CHEMBL1171837
     RDKit          3D

  0  0  0  0  0  0  0  0  0  0999 V3000
M  V30 BEGIN CTAB
M  V30 COUNTS 66 70 0 0 0
M  V30 BEGIN ATOM
M  V30 1 C 4.824860 -2.637244 5.689628 0
M  V30 2 C 3.821307 -2.722073 4.597821 0
M  V30 3 C 3.811123 -3.820199 3.762747 0
M  V30 4 C 2.849862 -3.859842 2.748109 0
M  V30 5 C 1.918282 -2.869153 2.537296 0
M  V30 6 C 0.958523 -2.988652 1.459554 0
M  V30 7 O 1.090274 -4.016434 0.771610 0
M  V30 8 N -0.056317 -2.065341 1.160920 0
M  V30 9 C -1.017770 -2.124834 0.127437 0
M  V30 10 C -1.159050 -3.090072 -0.826635 0
M  V30 11 C -2.156519 -3.001076 -1.772471 0
M  V30 12 C -3.094863 -1.953855 -1.853824 0
M  V30 13 C -4.000202 -2.095998 -2.984972 0
M  V30 14 N -3.668496 -1.572187 -4.236039 0
M  V30 15 C -3.457184 -0.237474 -4.482228 0
M  V30 16 C -3.193884 0.181978 -5.896989 0
M  V30 17 N -2.513011 -0.823269 -6.678307 0
M  V30 18 C -2.411188 -0.373740 -8.042099 0
M  V30 19 C -3.348408 -2.027930 -6.571304 0
M  V30 20 C -3.127640 -2.526854 -5.168343 0
M  V30 21 C -2.926134 -0.998642 -0.877325 0
M  V30 22 C -3.887934 0.111857 -0.862701 0
M  V30 23 F -5.219458 -0.344885 -0.800151 0
M  V30 24 F -3.755802 0.679443 0.448925 0
M  V30 25 F -3.703498 1.133391 -1.710509 0
M  V30 26 C -1.925458 -1.099080 0.061237 0
M  V30 27 C 2.005439 -1.818331 3.415254 0
M  V30 28 C 2.915892 -1.691422 4.443571 0
M  V30 29 C 2.904488 -0.525083 5.304103 0
M  V30 30 C 2.900799 0.457588 6.004553 0
M  V30 31 C 2.918414 1.623598 6.848254 0
M  V30 32 C 2.729951 1.743725 8.209330 0
M  V30 33 N 2.844874 3.064919 8.532046 0
M  V30 34 C 3.100666 3.767037 7.399753 0
M  V30 35 C 3.297965 5.125320 7.205227 0
M  V30 36 C 3.548019 5.568140 5.901029 0
M  V30 37 C 3.582154 4.619631 4.890108 0
M  V30 38 N 3.379946 3.316690 5.162569 0
M  V30 39 N 3.142755 2.883425 6.388537 0
M  V30 40 H 5.423679 -1.716961 5.682626 0
M  V30 41 H 4.242699 -2.671313 6.652277 0
M  V30 42 H 5.516534 -3.522078 5.643007 0
M  V30 43 H 4.534232 -4.612169 3.911194 0
M  V30 44 H 2.901460 -4.740624 2.139276 0
M  V30 45 H -0.032227 -1.265192 1.827625 0
M  V30 46 H -0.474122 -3.920319 -0.824713 0
M  V30 47 H -2.158324 -3.832169 -2.474623 0
M  V30 48 H -5.030974 -1.670936 -2.723340 0
M  V30 49 H -4.220670 -3.202446 -3.119212 0
M  V30 50 H -2.588027 0.123527 -3.871900 0
M  V30 51 H -4.334855 0.353294 -4.151505 0
M  V30 52 H -4.127358 0.446064 -6.433619 0
M  V30 53 H -2.556942 1.095164 -5.909693 0
M  V30 54 H -2.870262 -1.130404 -8.736178 0
M  V30 55 H -2.799821 0.644495 -8.214132 0
M  V30 56 H -1.331682 -0.356584 -8.307135 0
M  V30 57 H -4.415106 -1.708427 -6.646407 0
M  V30 58 H -3.075202 -2.775754 -7.340195 0
M  V30 59 H -2.013541 -2.652743 -5.055611 0
M  V30 60 H -3.663020 -3.488326 -5.007366 0
M  V30 61 H -1.875343 -0.283047 0.794100 0
M  V30 62 H 1.308500 -0.998087 3.317434 0
M  V30 63 H 2.527444 0.897891 8.863970 0
M  V30 64 H 3.262428 5.844332 8.022142 0
M  V30 65 H 3.707546 6.632476 5.714596 0
M  V30 66 H 3.776959 4.942963 3.858895 0
M  V30 END ATOM
M  V30 BEGIN BOND
M  V30 1 1 1 2
M  V30 2 2 2 3
M  V30 3 1 3 4
M  V30 4 2 4 5
M  V30 5 1 5 6
M  V30 6 2 6 7
M  V30 7 1 6 8
M  V30 8 1 8 9
M  V30 9 2 9 10
M  V30 10 1 10 11
M  V30 11 2 11 12
M  V30 12 1 12 13
M  V30 13 1 13 14
M  V30 14 1 14 15
M  V30 15 1 15 16
M  V30 16 1 16 17
M  V30 17 1 17 18
M  V30 18 1 17 19
M  V30 19 1 19 20
M  V30 20 1 12 21
M  V30 21 1 21 22
M  V30 22 1 22 23
M  V30 23 1 22 24
M  V30 24 1 22 25
M  V30 25 2 21 26
M  V30 26 1 5 27
M  V30 27 2 27 28
M  V30 28 1 28 29
M  V30 29 3 29 30
M  V30 30 1 30 31
M  V30 31 2 31 32
M  V30 32 1 32 33
M  V30 33 2 33 34
M  V30 34 1 34 35
M  V30 35 2 35 36
M  V30 36 1 36 37
M  V30 37 2 37 38
M  V30 38 1 38 39
M  V30 39 1 28 2
M  V30 40 1 39 31
M  V30 41 1 26 9
M  V30 42 1 39 34
M  V30 43 1 20 14
M  V30 44 1 1 40
M  V30 45 1 1 41
M  V30 46 1 1 42
M  V30 47 1 3 43
M  V30 48 1 4 44
M  V30 49 1 8 45
M  V30 50 1 10 46
M  V30 51 1 11 47
M  V30 52 1 13 48
M  V30 53 1 13 49
M  V30 54 1 15 50
M  V30 55 1 15 51
M  V30 56 1 16 52
M  V30 57 1 16 53
M  V30 58 1 18 54
M  V30 59 1 18 55
M  V30 60 1 18 56
M  V30 61 1 19 57
M  V30 62 1 19 58
M  V30 63 1 20 59
M  V30 64 1 20 60
M  V30 65 1 26 61
M  V30 66 1 27 62
M  V30 67 1 32 63
M  V30 68 1 35 64
M  V30 69 1 36 65
M  V30 70 1 37 66
M  V30 END BOND
M  V30 END CTAB
M  END
>  <Dataset>  (1) 
ChEMBL_PKA

>  <Ligand_Instance>  (1) 
nan

>  <PDB_ID>  (1) 
nan

>  <Standardized_SMILES>  (1) 
Cc1ccc(C(=O)Nc2ccc(CN3CCN(C)CC3)c(C(F)(F)F)c2)cc1C#Cc1cnc2cccnn12

>  <Name>  (1) 
PONATINIB

>  <Pocket>  (1) 
nan

>  <ATP_Site>  (1) 
nan

>  <Peripheral>  (1) 
nan

>  <Num_H_Atoms_ProtBoundConf>  (1) 
nan

>  <Num_Resolved_Atoms>  (1) 
nan

>  <Num_Not_Resolved_Atoms>  (1) 
nan

>  <2D_Mol_H>  (1) 
<rdkit.Chem.rdchem.Mol object at 0x72a239101620>

>  <MW>  (1) 
532.57

>  <HBA>  (1) 
6

>  <HBD>  (1) 
1

>  <LogP>  (1) 
4.45602

>  <NRB>  (1) 
6

>  <TPSA>  (1) 
65.77

>  <Num_Heavy_Atoms>  (1) 
39

>  <Ro5>  (1) 
[False, True, True, True, True, True]

>  <Ro5_Fulfilled>  (1) 
True

>  <Ro3>  (1) 
[False, False, True, False]

>  <Ro3_Fulfilled>  (1) 
False

>  <Fsp3>  (1) 
0.275862

>  <Fsp3_0.42>  (1) 
False

>  <Fsp3_0.45>  (1) 
False

>  <Stereogenic_Carbons>  (1) 
0

>  <C_Atoms>  (1) 
29

>  <FCStereo>  (1) 
0.0

>  <SPS>  (1) 
573

>  <nSPS>  (1) 
14.692308

>  <PBF>  (1) 
1.107137

>  <PBF_0.6>  (1) 
True

>  <nPBF>  (1) 
0.028388

>  <nPBF_0.016>  (1) 
True

>  <PMI1>  (1) 
3920.857762

>  <PMI2>  (1) 
16861.575257

>  <PMI3>  (1) 
18942.594232

>  <NPR1>  (1) 
0.206986

>  <NPR2>  (1) 
0.890141

>  <Sum_NPR>  (1) 
1.097127

>  <Sum_NPR_1.07>  (1) 
True

>  <Sum_NPR_1.2>  (1) 
False

>  <MaxAbsEStateIndex>  (1) 
13.935889

>  <MaxEStateIndex>  (1) 
13.935889

>  <MinAbsEStateIndex>  (1) 
0.082839

>  <MinEStateIndex>  (1) 
-4.539718

>  <qed>  (1) 
0.393599

>  <MolWt>  (1) 
532.57

>  <HeavyAtomMolWt>  (1) 
505.354

>  <ExactMolWt>  (1) 
532.219844

>  <NumValenceElectrons>  (1) 
200

>  <NumRadicalElectrons>  (1) 
0

>  <MaxPartialCharge>  (1) 
0.4163

>  <MinPartialCharge>  (1) 
-0.321982

>  <MaxAbsPartialCharge>  (1) 
0.4163

>  <MinAbsPartialCharge>  (1) 
0.321982

>  <FpDensityMorgan1>  (1) 
1.051282

>  <FpDensityMorgan2>  (1) 
1.846154

>  <FpDensityMorgan3>  (1) 
2.615385

>  <BCUT2D_MWHI>  (1) 
19.413196

>  <BCUT2D_MWLOW>  (1) 
10.031566

>  <BCUT2D_CHGHI>  (1) 
2.340121

>  <BCUT2D_CHGLO>  (1) 
-2.325238

>  <BCUT2D_LOGPHI>  (1) 
2.344511

>  <BCUT2D_LOGPLOW>  (1) 
-2.436376

>  <BCUT2D_MRHI>  (1) 
6.042029

>  <BCUT2D_MRLOW>  (1) 
-0.138024

>  <AvgIpc>  (1) 
3.325826

>  <BalabanJ>  (1) 
1.349403

>  <BertzCT>  (1) 
1575.423853

>  <Chi0>  (1) 
27.570339

>  <Chi0n>  (1) 
21.587246

>  <Chi0v>  (1) 
21.587246

>  <Chi1>  (1) 
18.668855

>  <Chi1n>  (1) 
12.51028

>  <Chi1v>  (1) 
12.51028

>  <Chi2n>  (1) 
9.620033

>  <Chi2v>  (1) 
9.620033

>  <Chi3n>  (1) 
6.765781

>  <Chi3v>  (1) 
6.765781

>  <Chi4n>  (1) 
4.449942

>  <Chi4v>  (1) 
4.449942

>  <HallKierAlpha>  (1) 
-4.2

>  <Ipc>  (1) 
636966205.134752

>  <Kappa1>  (1) 
26.408832

>  <Kappa2>  (1) 
10.884506

>  <Kappa3>  (1) 
6.108967

>  <LabuteASA>  (1) 
223.806917

>  <PEOE_VSA1>  (1) 
10.216698

>  <PEOE_VSA10>  (1) 
5.693928

>  <PEOE_VSA11>  (1) 
5.647177

>  <PEOE_VSA12>  (1) 
0.0

>  <PEOE_VSA13>  (1) 
5.90718

>  <PEOE_VSA14>  (1) 
6.176299

>  <PEOE_VSA2>  (1) 
9.694447

>  <PEOE_VSA3>  (1) 
9.499376

>  <PEOE_VSA4>  (1) 
18.269927

>  <PEOE_VSA5>  (1) 
0.0

>  <PEOE_VSA6>  (1) 
18.053168

>  <PEOE_VSA7>  (1) 
67.416949

>  <PEOE_VSA8>  (1) 
55.734915

>  <PEOE_VSA9>  (1) 
11.760295

>  <SMR_VSA1>  (1) 
17.965782

>  <SMR_VSA10>  (1) 
17.241743

>  <SMR_VSA2>  (1) 
0.0

>  <SMR_VSA3>  (1) 
24.397878

>  <SMR_VSA4>  (1) 
0.0

>  <SMR_VSA5>  (1) 
19.644792

>  <SMR_VSA6>  (1) 
38.543486

>  <SMR_VSA7>  (1) 
94.435809

>  <SMR_VSA8>  (1) 
0.0

>  <SMR_VSA9>  (1) 
11.840869

>  <SlogP_VSA1>  (1) 
5.316789

>  <SlogP_VSA10>  (1) 
18.858631

>  <SlogP_VSA11>  (1) 
0.0

>  <SlogP_VSA12>  (1) 
0.0

>  <SlogP_VSA2>  (1) 
63.531755

>  <SlogP_VSA3>  (1) 
12.721055

>  <SlogP_VSA4>  (1) 
18.764606

>  <SlogP_VSA5>  (1) 
38.305723

>  <SlogP_VSA6>  (1) 
60.924624

>  <SlogP_VSA7>  (1) 
0.0

>  <SlogP_VSA8>  (1) 
5.647177

>  <SlogP_VSA9>  (1) 
0.0

>  <EState_VSA1>  (1) 
17.64693

>  <EState_VSA10>  (1) 
17.965782

>  <EState_VSA11>  (1) 
0.0

>  <EState_VSA2>  (1) 
23.359046

>  <EState_VSA3>  (1) 
29.99407

>  <EState_VSA4>  (1) 
24.719331

>  <EState_VSA5>  (1) 
12.132734

>  <EState_VSA6>  (1) 
41.174553

>  <EState_VSA7>  (1) 
24.937686

>  <EState_VSA8>  (1) 
32.140227

>  <EState_VSA9>  (1) 
0.0

>  <VSA_EState1>  (1) 
43.423259

>  <VSA_EState10>  (1) 
0.0

>  <VSA_EState2>  (1) 
21.428743

>  <VSA_EState3>  (1) 
6.853847

>  <VSA_EState4>  (1) 
2.558315

>  <VSA_EState5>  (1) 
5.569691

>  <VSA_EState6>  (1) 
12.583993

>  <VSA_EState7>  (1) 
-1.283702

>  <VSA_EState8>  (1) 
5.117218

>  <VSA_EState9>  (1) 
1.998635

>  <FractionCSP3>  (1) 
0.275862

>  <HeavyAtomCount>  (1) 
39

>  <NHOHCount>  (1) 
1

>  <NOCount>  (1) 
7

>  <NumAliphaticCarbocycles>  (1) 
0

>  <NumAliphaticHeterocycles>  (1) 
1

>  <NumAliphaticRings>  (1) 
1

>  <NumAromaticCarbocycles>  (1) 
2

>  <NumAromaticHeterocycles>  (1) 
2

>  <NumAromaticRings>  (1) 
4

>  <NumHAcceptors>  (1) 
6

>  <NumHDonors>  (1) 
1

>  <NumHeteroatoms>  (1) 
10

>  <NumRotatableBonds>  (1) 
4

>  <NumSaturatedCarbocycles>  (1) 
0

>  <NumSaturatedHeterocycles>  (1) 
1

>  <NumSaturatedRings>  (1) 
1

>  <RingCount>  (1) 
5

>  <MolLogP>  (1) 
4.45602

>  <MolMR>  (1) 
142.3172

>  <fr_Al_COO>  (1) 
0

>  <fr_Al_OH>  (1) 
0

>  <fr_Al_OH_noTert>  (1) 
0

>  <fr_ArN>  (1) 
0

>  <fr_Ar_COO>  (1) 
0

>  <fr_Ar_N>  (1) 
3

>  <fr_Ar_NH>  (1) 
0

>  <fr_Ar_OH>  (1) 
0

>  <fr_COO>  (1) 
0

>  <fr_COO2>  (1) 
0

>  <fr_C_O>  (1) 
1

>  <fr_C_O_noCOO>  (1) 
1

>  <fr_C_S>  (1) 
0

>  <fr_HOCCN>  (1) 
0

>  <fr_Imine>  (1) 
0

>  <fr_NH0>  (1) 
5

>  <fr_NH1>  (1) 
1

>  <fr_NH2>  (1) 
0

>  <fr_N_O>  (1) 
0

>  <fr_Ndealkylation1>  (1) 
1

>  <fr_Ndealkylation2>  (1) 
0

>  <fr_Nhpyrrole>  (1) 
0

>  <fr_SH>  (1) 
0

>  <fr_aldehyde>  (1) 
0

>  <fr_alkyl_carbamate>  (1) 
0

>  <fr_alkyl_halide>  (1) 
3

>  <fr_allylic_oxid>  (1) 
0

>  <fr_amide>  (1) 
1

>  <fr_amidine>  (1) 
0

>  <fr_aniline>  (1) 
1

>  <fr_aryl_methyl>  (1) 
1

>  <fr_azide>  (1) 
0

>  <fr_azo>  (1) 
0

>  <fr_barbitur>  (1) 
0

>  <fr_benzene>  (1) 
2

>  <fr_benzodiazepine>  (1) 
0

>  <fr_bicyclic>  (1) 
1

>  <fr_diazo>  (1) 
0

>  <fr_dihydropyridine>  (1) 
0

>  <fr_epoxide>  (1) 
0

>  <fr_ester>  (1) 
0

>  <fr_ether>  (1) 
0

>  <fr_furan>  (1) 
0

>  <fr_guanido>  (1) 
0

>  <fr_halogen>  (1) 
3

>  <fr_hdrzine>  (1) 
0

>  <fr_hdrzone>  (1) 
0

>  <fr_imidazole>  (1) 
1

>  <fr_imide>  (1) 
0

>  <fr_isocyan>  (1) 
0

>  <fr_isothiocyan>  (1) 
0

>  <fr_ketone>  (1) 
0

>  <fr_ketone_Topliss>  (1) 
0

>  <fr_lactam>  (1) 
0

>  <fr_lactone>  (1) 
0

>  <fr_methoxy>  (1) 
0

>  <fr_morpholine>  (1) 
0

>  <fr_nitrile>  (1) 
0

>  <fr_nitro>  (1) 
0

>  <fr_nitro_arom>  (1) 
0

>  <fr_nitro_arom_nonortho>  (1) 
0

>  <fr_nitroso>  (1) 
0

>  <fr_oxazole>  (1) 
0

>  <fr_oxime>  (1) 
0

>  <fr_para_hydroxylation>  (1) 
0

>  <fr_phenol>  (1) 
0

>  <fr_phenol_noOrthoHbond>  (1) 
0

>  <fr_phos_acid>  (1) 
0

>  <fr_phos_ester>  (1) 
0

>  <fr_piperdine>  (1) 
0

>  <fr_piperzine>  (1) 
1

>  <fr_priamide>  (1) 
0

>  <fr_prisulfonamd>  (1) 
0

>  <fr_pyridine>  (1) 
0

>  <fr_quatN>  (1) 
0

>  <fr_sulfide>  (1) 
0

>  <fr_sulfonamd>  (1) 
0

>  <fr_sulfone>  (1) 
0

>  <fr_term_acetylene>  (1) 
0

>  <fr_tetrazole>  (1) 
0

>  <fr_thiazole>  (1) 
0

>  <fr_thiocyan>  (1) 
0

>  <fr_thiophene>  (1) 
0

>  <fr_unbrch_alkane>  (1) 
0

>  <fr_urea>  (1) 
0

>  <NP_Likeness>  (1) 
-1.800469

$$$$
CHEMBL1233654
     RDKit          3D

  0  0  0  0  0  0  0  0  0  0999 V3000
M  V30 BEGIN CTAB
M  V30 COUNTS 37 39 0 0 0
M  V30 BEGIN ATOM
M  V30 1 C -2.523921 -1.973704 0.520700 0
M  V30 2 C -1.104949 -2.238491 1.000675 0 CFG=1
M  V30 3 C -1.126406 -3.590073 1.641074 0
M  V30 4 N 0.140401 -4.103172 2.019812 0
M  V30 5 C 1.265425 -3.646693 1.313294 0
M  V30 6 C 1.149238 -2.366045 0.548193 0
M  V30 7 N -0.098195 -2.056748 -0.011219 0
M  V30 8 S -0.306737 -0.738238 -1.016710 0
M  V30 9 O 0.427083 -0.874405 -2.340021 0
M  V30 10 O -1.745008 -0.692476 -1.476040 0
M  V30 11 C 0.028115 0.804017 -0.269041 0
M  V30 12 C -1.056448 1.601858 0.146437 0
M  V30 13 C -0.964605 2.802230 0.818824 0
M  V30 14 C 0.280899 3.273678 1.115491 0
M  V30 15 C 1.382764 2.548690 0.738716 0
M  V30 16 C 2.657558 3.008845 0.999766 0
M  V30 17 N 3.755396 2.300213 0.600717 0
M  V30 18 C 3.602760 1.126375 -0.062910 0
M  V30 19 C 2.337419 0.691629 -0.308704 0
M  V30 20 C 1.231567 1.374479 0.078685 0
M  V30 21 H -2.719584 -2.502465 -0.434448 0
M  V30 22 H -2.819997 -0.924733 0.553448 0
M  V30 23 H -3.245392 -2.483175 1.235887 0
M  V30 24 H -0.901583 -1.491813 1.797700 0
M  V30 25 H -1.650468 -4.290216 0.970354 0
M  V30 26 H -1.756177 -3.496971 2.558261 0
M  V30 27 H 0.114471 -5.149454 2.093419 0
M  V30 28 H 1.566451 -4.463574 0.593104 0
M  V30 29 H 2.131935 -3.567894 2.002828 0
M  V30 30 H 1.990431 -2.416601 -0.209723 0
M  V30 31 H 1.450413 -1.556848 1.246663 0
M  V30 32 H -2.061482 1.262705 -0.070766 0
M  V30 33 H -1.845516 3.343813 1.097341 0
M  V30 34 H 0.433811 4.200902 1.638500 0
M  V30 35 H 2.837278 3.940911 1.526201 0
M  V30 36 H 4.477143 0.597117 -0.362115 0
M  V30 37 H 2.263556 -0.210098 -0.851420 0
M  V30 END ATOM
M  V30 BEGIN BOND
M  V30 1 1 1 2
M  V30 2 1 2 3
M  V30 3 1 3 4
M  V30 4 1 4 5
M  V30 5 1 5 6
M  V30 6 1 6 7
M  V30 7 1 7 8
M  V30 8 2 8 9
M  V30 9 2 8 10
M  V30 10 1 8 11
M  V30 11 2 11 12
M  V30 12 1 12 13
M  V30 13 2 13 14
M  V30 14 1 14 15
M  V30 15 2 15 16
M  V30 16 1 16 17
M  V30 17 2 17 18
M  V30 18 1 18 19
M  V30 19 2 19 20
M  V30 20 1 7 2
M  V30 21 1 20 11
M  V30 22 1 20 15
M  V30 23 1 1 21
M  V30 24 1 1 22
M  V30 25 1 1 23
M  V30 26 1 2 24 CFG=1
M  V30 27 1 3 25
M  V30 28 1 3 26
M  V30 29 1 4 27
M  V30 30 1 5 28
M  V30 31 1 5 29
M  V30 32 1 6 30
M  V30 33 1 6 31
M  V30 34 1 12 32
M  V30 35 1 13 33
M  V30 36 1 14 34
M  V30 37 1 16 35
M  V30 38 1 18 36
M  V30 39 1 19 37
M  V30 END BOND
M  V30 END CTAB
M  END
>  <Dataset>  (2) 
ChEMBL_PKA

>  <Ligand_Instance>  (2) 
nan

>  <PDB_ID>  (2) 
nan

>  <Standardized_SMILES>  (2) 
C[C@H]1CNCCN1S(=O)(=O)c1cccc2cnccc12

>  <Name>  (2) 
nan

>  <Pocket>  (2) 
nan

>  <ATP_Site>  (2) 
nan

>  <Peripheral>  (2) 
nan

>  <Num_H_Atoms_ProtBoundConf>  (2) 
nan

>  <Num_Resolved_Atoms>  (2) 
nan

>  <Num_Not_Resolved_Atoms>  (2) 
nan

>  <2D_Mol_H>  (2) 
<rdkit.Chem.rdchem.Mol object at 0x72a239101700>

>  <MW>  (2) 
291.376

>  <HBA>  (2) 
4

>  <HBD>  (2) 
1

>  <LogP>  (2) 
1.2172

>  <NRB>  (2) 
3

>  <TPSA>  (2) 
62.3

>  <Num_Heavy_Atoms>  (2) 
20

>  <Ro5>  (2) 
[True, True, True, True, True, True]

>  <Ro5_Fulfilled>  (2) 
True

>  <Ro3>  (2) 
[True, False, True, True]

>  <Ro3_Fulfilled>  (2) 
True

>  <Fsp3>  (2) 
0.357143

>  <Fsp3_0.42>  (2) 
False

>  <Fsp3_0.45>  (2) 
False

>  <Stereogenic_Carbons>  (2) 
1

>  <C_Atoms>  (2) 
14

>  <FCStereo>  (2) 
0.071429

>  <SPS>  (2) 
423

>  <nSPS>  (2) 
21.15

>  <PBF>  (2) 
0.833068

>  <PBF_0.6>  (2) 
True

>  <nPBF>  (2) 
0.041653

>  <nPBF_0.016>  (2) 
True

>  <PMI1>  (2) 
970.865322

>  <PMI2>  (2) 
2051.171391

>  <PMI3>  (2) 
2363.412169

>  <NPR1>  (2) 
0.41079

>  <NPR2>  (2) 
0.867886

>  <Sum_NPR>  (2) 
1.278675

>  <Sum_NPR_1.07>  (2) 
True

>  <Sum_NPR_1.2>  (2) 
True

>  <MaxAbsEStateIndex>  (2) 
12.889364

>  <MaxEStateIndex>  (2) 
12.889364

>  <MinAbsEStateIndex>  (2) 
0.036256

>  <MinEStateIndex>  (2) 
-3.472269

>  <qed>  (2) 
0.90341

>  <MolWt>  (2) 
291.376

>  <HeavyAtomMolWt>  (2) 
274.24

>  <ExactMolWt>  (2) 
291.104148

>  <NumValenceElectrons>  (2) 
106

>  <NumRadicalElectrons>  (2) 
0

>  <MaxPartialCharge>  (2) 
0.243521

>  <MinPartialCharge>  (2) 
-0.313835

>  <MaxAbsPartialCharge>  (2) 
0.313835

>  <MinAbsPartialCharge>  (2) 
0.243521

>  <FpDensityMorgan1>  (2) 
1.35

>  <FpDensityMorgan2>  (2) 
2.2

>  <FpDensityMorgan3>  (2) 
3.0

>  <BCUT2D_MWHI>  (2) 
32.233428

>  <BCUT2D_MWLOW>  (2) 
10.168204

>  <BCUT2D_CHGHI>  (2) 
2.312975

>  <BCUT2D_CHGLO>  (2) 
-2.32641

>  <BCUT2D_LOGPHI>  (2) 
2.261058

>  <BCUT2D_LOGPLOW>  (2) 
-2.515892

>  <BCUT2D_MRHI>  (2) 
7.889898

>  <BCUT2D_MRLOW>  (2) 
0.283843

>  <AvgIpc>  (2) 
2.466246

>  <BalabanJ>  (2) 
2.137974

>  <BertzCT>  (2) 
724.781365

>  <Chi0>  (2) 
14.164926

>  <Chi0n>  (2) 
11.281944

>  <Chi0v>  (2) 
12.098441

>  <Chi1>  (2) 
9.60419

>  <Chi1n>  (2) 
6.658262

>  <Chi1v>  (2) 
8.098325

>  <Chi2n>  (2) 
5.021861

>  <Chi2v>  (2) 
6.880838

>  <Chi3n>  (2) 
3.667706

>  <Chi3v>  (2) 
5.739439

>  <Chi4n>  (2) 
2.623572

>  <Chi4v>  (2) 
4.470531

>  <HallKierAlpha>  (2) 
-1.5

>  <Ipc>  (2) 
45916.573653

>  <Kappa1>  (2) 
13.481559

>  <Kappa2>  (2) 
5.121607

>  <Kappa3>  (2) 
2.194671

>  <LabuteASA>  (2) 
118.222067

>  <PEOE_VSA1>  (2) 
5.316789

>  <PEOE_VSA10>  (2) 
0.0

>  <PEOE_VSA11>  (2) 
0.0

>  <PEOE_VSA12>  (2) 
10.023291

>  <PEOE_VSA13>  (2) 
0.0

>  <PEOE_VSA14>  (2) 
0.0

>  <PEOE_VSA2>  (2) 
4.983979

>  <PEOE_VSA3>  (2) 
8.417797

>  <PEOE_VSA4>  (2) 
4.305216

>  <PEOE_VSA5>  (2) 
0.0

>  <PEOE_VSA6>  (2) 
12.132734

>  <PEOE_VSA7>  (2) 
19.056471

>  <PEOE_VSA8>  (2) 
48.842246

>  <PEOE_VSA9>  (2) 
4.895483

>  <SMR_VSA1>  (2) 
8.417797

>  <SMR_VSA10>  (2) 
20.79574

>  <SMR_VSA2>  (2) 
0.0

>  <SMR_VSA3>  (2) 
14.605983

>  <SMR_VSA4>  (2) 
0.0

>  <SMR_VSA5>  (2) 
17.861062

>  <SMR_VSA6>  (2) 
19.634269

>  <SMR_VSA7>  (2) 
36.659155

>  <SMR_VSA8>  (2) 
0.0

>  <SMR_VSA9>  (2) 
0.0

>  <SlogP_VSA1>  (2) 
5.316789

>  <SlogP_VSA10>  (2) 
0.0

>  <SlogP_VSA11>  (2) 
0.0

>  <SlogP_VSA12>  (2) 
0.0

>  <SlogP_VSA2>  (2) 
43.383102

>  <SlogP_VSA3>  (2) 
10.023291

>  <SlogP_VSA4>  (2) 
0.0

>  <SlogP_VSA5>  (2) 
6.923737

>  <SlogP_VSA6>  (2) 
41.554639

>  <SlogP_VSA7>  (2) 
0.0

>  <SlogP_VSA8>  (2) 
10.772448

>  <SlogP_VSA9>  (2) 
0.0

>  <EState_VSA1>  (2) 
10.023291

>  <EState_VSA10>  (2) 
8.417797

>  <EState_VSA11>  (2) 
0.0

>  <EState_VSA2>  (2) 
6.041841

>  <EState_VSA3>  (2) 
24.529753

>  <EState_VSA4>  (2) 
10.772448

>  <EState_VSA5>  (2) 
0.0

>  <EState_VSA6>  (2) 
34.898004

>  <EState_VSA7>  (2) 
12.990104

>  <EState_VSA8>  (2) 
10.300767

>  <EState_VSA9>  (2) 
0.0

>  <VSA_EState1>  (2) 
27.360774

>  <VSA_EState10>  (2) 
0.0

>  <VSA_EState2>  (2) 
4.411884

>  <VSA_EState3>  (2) 
4.782797

>  <VSA_EState4>  (2) 
0.0

>  <VSA_EState5>  (2) 
0.0

>  <VSA_EState6>  (2) 
7.040928

>  <VSA_EState7>  (2) 
3.317542

>  <VSA_EState8>  (2) 
3.808344

>  <VSA_EState9>  (2) 
-3.472269

>  <FractionCSP3>  (2) 
0.357143

>  <HeavyAtomCount>  (2) 
20

>  <NHOHCount>  (2) 
1

>  <NOCount>  (2) 
5

>  <NumAliphaticCarbocycles>  (2) 
0

>  <NumAliphaticHeterocycles>  (2) 
1

>  <NumAliphaticRings>  (2) 
1

>  <NumAromaticCarbocycles>  (2) 
1

>  <NumAromaticHeterocycles>  (2) 
1

>  <NumAromaticRings>  (2) 
2

>  <NumHAcceptors>  (2) 
4

>  <NumHDonors>  (2) 
1

>  <NumHeteroatoms>  (2) 
6

>  <NumRotatableBonds>  (2) 
2

>  <NumSaturatedCarbocycles>  (2) 
0

>  <NumSaturatedHeterocycles>  (2) 
1

>  <NumSaturatedRings>  (2) 
1

>  <RingCount>  (2) 
3

>  <MolLogP>  (2) 
1.2172

>  <MolMR>  (2) 
77.9665

>  <fr_Al_COO>  (2) 
0

>  <fr_Al_OH>  (2) 
0

>  <fr_Al_OH_noTert>  (2) 
0

>  <fr_ArN>  (2) 
0

>  <fr_Ar_COO>  (2) 
0

>  <fr_Ar_N>  (2) 
1

>  <fr_Ar_NH>  (2) 
0

>  <fr_Ar_OH>  (2) 
0

>  <fr_COO>  (2) 
0

>  <fr_COO2>  (2) 
0

>  <fr_C_O>  (2) 
0

>  <fr_C_O_noCOO>  (2) 
0

>  <fr_C_S>  (2) 
0

>  <fr_HOCCN>  (2) 
0

>  <fr_Imine>  (2) 
0

>  <fr_NH0>  (2) 
2

>  <fr_NH1>  (2) 
1

>  <fr_NH2>  (2) 
0

>  <fr_N_O>  (2) 
0

>  <fr_Ndealkylation1>  (2) 
0

>  <fr_Ndealkylation2>  (2) 
0

>  <fr_Nhpyrrole>  (2) 
0

>  <fr_SH>  (2) 
0

>  <fr_aldehyde>  (2) 
0

>  <fr_alkyl_carbamate>  (2) 
0

>  <fr_alkyl_halide>  (2) 
0

>  <fr_allylic_oxid>  (2) 
0

>  <fr_amide>  (2) 
0

>  <fr_amidine>  (2) 
0

>  <fr_aniline>  (2) 
0

>  <fr_aryl_methyl>  (2) 
0

>  <fr_azide>  (2) 
0

>  <fr_azo>  (2) 
0

>  <fr_barbitur>  (2) 
0

>  <fr_benzene>  (2) 
1

>  <fr_benzodiazepine>  (2) 
0

>  <fr_bicyclic>  (2) 
1

>  <fr_diazo>  (2) 
0

>  <fr_dihydropyridine>  (2) 
0

>  <fr_epoxide>  (2) 
0

>  <fr_ester>  (2) 
0

>  <fr_ether>  (2) 
0

>  <fr_furan>  (2) 
0

>  <fr_guanido>  (2) 
0

>  <fr_halogen>  (2) 
0

>  <fr_hdrzine>  (2) 
0

>  <fr_hdrzone>  (2) 
0

>  <fr_imidazole>  (2) 
0

>  <fr_imide>  (2) 
0

>  <fr_isocyan>  (2) 
0

>  <fr_isothiocyan>  (2) 
0

>  <fr_ketone>  (2) 
0

>  <fr_ketone_Topliss>  (2) 
0

>  <fr_lactam>  (2) 
0

>  <fr_lactone>  (2) 
0

>  <fr_methoxy>  (2) 
0

>  <fr_morpholine>  (2) 
0

>  <fr_nitrile>  (2) 
0

>  <fr_nitro>  (2) 
0

>  <fr_nitro_arom>  (2) 
0

>  <fr_nitro_arom_nonortho>  (2) 
0

>  <fr_nitroso>  (2) 
0

>  <fr_oxazole>  (2) 
0

>  <fr_oxime>  (2) 
0

>  <fr_para_hydroxylation>  (2) 
0

>  <fr_phenol>  (2) 
0

>  <fr_phenol_noOrthoHbond>  (2) 
0

>  <fr_phos_acid>  (2) 
0

>  <fr_phos_ester>  (2) 
0

>  <fr_piperdine>  (2) 
0

>  <fr_piperzine>  (2) 
1

>  <fr_priamide>  (2) 
0

>  <fr_prisulfonamd>  (2) 
0

>  <fr_pyridine>  (2) 
1

>  <fr_quatN>  (2) 
0

>  <fr_sulfide>  (2) 
0

>  <fr_sulfonamd>  (2) 
1

>  <fr_sulfone>  (2) 
0

>  <fr_term_acetylene>  (2) 
0

>  <fr_tetrazole>  (2) 
0

>  <fr_thiazole>  (2) 
0

>  <fr_thiocyan>  (2) 
0

>  <fr_thiophene>  (2) 
0

>  <fr_unbrch_alkane>  (2) 
0

>  <fr_urea>  (2) 
0

>  <NP_Likeness>  (2) 
-1.166941

$$$$
CHEMBL148333
     RDKit          3D

  0  0  0  0  0  0  0  0  0  0999 V3000
M  V30 BEGIN CTAB
M  V30 COUNTS 33 34 0 0 0
M  V30 BEGIN ATOM
M  V30 1 C -2.204279 -1.883582 2.159880 0
M  V30 2 N -1.090551 -2.519394 2.823051 0
M  V30 3 C -0.465120 -3.522095 1.989599 0
M  V30 4 C 0.242674 -2.869389 0.805858 0
M  V30 5 N 1.247805 -1.996777 1.381376 0
M  V30 6 S 2.148922 -1.166315 0.176821 0
M  V30 7 O 2.791761 -2.161487 -0.755530 0
M  V30 8 O 3.270433 -0.421851 0.842801 0
M  V30 9 C 1.133911 -0.131241 -0.798455 0
M  V30 10 C 0.932759 -0.273043 -2.162940 0
M  V30 11 C 0.087306 0.635265 -2.766557 0
M  V30 12 C -0.559290 1.665416 -2.086546 0
M  V30 13 C -0.327987 1.773924 -0.709393 0
M  V30 14 C -0.978022 2.813863 -0.039429 0
M  V30 15 N -0.758935 2.926477 1.281933 0
M  V30 16 C 0.049154 2.086815 1.960247 0
M  V30 17 C 0.672155 1.072825 1.259461 0
M  V30 18 C 0.516140 0.869592 -0.094499 0
M  V30 19 H -2.310219 -2.251703 1.117181 0
M  V30 20 H -3.119098 -2.119467 2.735516 0
M  V30 21 H -2.095102 -0.776207 2.154374 0
M  V30 22 H -0.407305 -1.866409 3.237142 0
M  V30 23 H -1.239246 -4.238998 1.682781 0
M  V30 24 H 0.266387 -4.066824 2.611034 0
M  V30 25 H 0.668587 -3.692322 0.201810 0
M  V30 26 H -0.442553 -2.318072 0.165371 0
M  V30 27 H 1.857471 -2.495808 2.064127 0
M  V30 28 H 1.444440 -1.069487 -2.651448 0
M  V30 29 H -0.072331 0.531441 -3.832616 0
M  V30 30 H -1.205686 2.341479 -2.624483 0
M  V30 31 H -1.631286 3.507191 -0.548802 0
M  V30 32 H 0.198160 2.224667 3.041092 0
M  V30 33 H 1.319926 0.409446 1.814349 0
M  V30 END ATOM
M  V30 BEGIN BOND
M  V30 1 1 1 2
M  V30 2 1 2 3
M  V30 3 1 3 4
M  V30 4 1 4 5
M  V30 5 1 5 6
M  V30 6 2 6 7
M  V30 7 2 6 8
M  V30 8 1 6 9
M  V30 9 2 9 10
M  V30 10 1 10 11
M  V30 11 2 11 12
M  V30 12 1 12 13
M  V30 13 2 13 14
M  V30 14 1 14 15
M  V30 15 2 15 16
M  V30 16 1 16 17
M  V30 17 2 17 18
M  V30 18 1 18 9
M  V30 19 1 18 13
M  V30 20 1 1 19
M  V30 21 1 1 20
M  V30 22 1 1 21
M  V30 23 1 2 22
M  V30 24 1 3 23
M  V30 25 1 3 24
M  V30 26 1 4 25
M  V30 27 1 4 26
M  V30 28 1 5 27
M  V30 29 1 10 28
M  V30 30 1 11 29
M  V30 31 1 12 30
M  V30 32 1 14 31
M  V30 33 1 16 32
M  V30 34 1 17 33
M  V30 END BOND
M  V30 END CTAB
M  END
>  <Dataset>  (3) 
ChEMBL_PKA

>  <Ligand_Instance>  (3) 
nan

>  <PDB_ID>  (3) 
nan

>  <Standardized_SMILES>  (3) 
CNCCNS(=O)(=O)c1cccc2cnccc12

>  <Name>  (3) 
nan

>  <Pocket>  (3) 
nan

>  <ATP_Site>  (3) 
nan

>  <Peripheral>  (3) 
nan

>  <Num_H_Atoms_ProtBoundConf>  (3) 
nan

>  <Num_Resolved_Atoms>  (3) 
nan

>  <Num_Not_Resolved_Atoms>  (3) 
nan

>  <2D_Mol_H>  (3) 
<rdkit.Chem.rdchem.Mol object at 0x72a2391017e0>

>  <MW>  (3) 
265.338

>  <HBA>  (3) 
4

>  <HBD>  (3) 
2

>  <LogP>  (3) 
0.7325

>  <NRB>  (3) 
6

>  <TPSA>  (3) 
71.09

>  <Num_Heavy_Atoms>  (3) 
18

>  <Ro5>  (3) 
[True, True, True, True, True, True]

>  <Ro5_Fulfilled>  (3) 
True

>  <Ro3>  (3) 
[True, False, True, True]

>  <Ro3_Fulfilled>  (3) 
True

>  <Fsp3>  (3) 
0.25

>  <Fsp3_0.42>  (3) 
False

>  <Fsp3_0.45>  (3) 
False

>  <Stereogenic_Carbons>  (3) 
0

>  <C_Atoms>  (3) 
12

>  <FCStereo>  (3) 
0.0

>  <SPS>  (3) 
213

>  <nSPS>  (3) 
11.833333

>  <PBF>  (3) 
1.100042

>  <PBF_0.6>  (3) 
True

>  <nPBF>  (3) 
0.061113

>  <nPBF_0.016>  (3) 
True

>  <PMI1>  (3) 
1050.37015

>  <PMI2>  (3) 
1454.591342

>  <PMI3>  (3) 
1851.774045

>  <NPR1>  (3) 
0.567224

>  <NPR2>  (3) 
0.785512

>  <Sum_NPR>  (3) 
1.352736

>  <Sum_NPR_1.07>  (3) 
True

>  <Sum_NPR_1.2>  (3) 
True

>  <MaxAbsEStateIndex>  (3) 
12.161683

>  <MaxEStateIndex>  (3) 
12.161683

>  <MinAbsEStateIndex>  (3) 
0.290281

>  <MinEStateIndex>  (3) 
-3.476898

>  <qed>  (3) 
0.781978

>  <MolWt>  (3) 
265.338

>  <HeavyAtomMolWt>  (3) 
250.218

>  <ExactMolWt>  (3) 
265.088498

>  <NumValenceElectrons>  (3) 
96

>  <NumRadicalElectrons>  (3) 
0

>  <MaxPartialCharge>  (3) 
0.240726

>  <MinPartialCharge>  (3) 
-0.318449

>  <MaxAbsPartialCharge>  (3) 
0.318449

>  <MinAbsPartialCharge>  (3) 
0.240726

>  <FpDensityMorgan1>  (3) 
1.222222

>  <FpDensityMorgan2>  (3) 
2.055556

>  <FpDensityMorgan3>  (3) 
2.833333

>  <BCUT2D_MWHI>  (3) 
32.233271

>  <BCUT2D_MWLOW>  (3) 
10.168345

>  <BCUT2D_CHGHI>  (3) 
2.155408

>  <BCUT2D_CHGLO>  (3) 
-2.085434

>  <BCUT2D_LOGPHI>  (3) 
2.209352

>  <BCUT2D_LOGPLOW>  (3) 
-2.301333

>  <BCUT2D_MRHI>  (3) 
7.893359

>  <BCUT2D_MRLOW>  (3) 
0.580212

>  <AvgIpc>  (3) 
2.380098

>  <BalabanJ>  (3) 
2.41025

>  <BertzCT>  (3) 
635.317511

>  <Chi0>  (3) 
13.010225

>  <Chi0n>  (3) 
10.050274

>  <Chi0v>  (3) 
10.86677

>  <Chi1>  (3) 
8.648995

>  <Chi1n>  (3) 
5.619787

>  <Chi1v>  (3) 
7.10295

>  <Chi2n>  (3) 
3.854287

>  <Chi2v>  (3) 
5.589662

>  <Chi3n>  (3) 
2.597333

>  <Chi3v>  (3) 
4.116522

>  <Chi4n>  (3) 
1.715311

>  <Chi4v>  (3) 
2.974732

>  <HallKierAlpha>  (3) 
-1.5

>  <Ipc>  (3) 
13180.983112

>  <Kappa1>  (3) 
12.944082

>  <Kappa2>  (3) 
5.429196

>  <Kappa3>  (3) 
2.663265

>  <LabuteASA>  (3) 
106.288042

>  <PEOE_VSA1>  (3) 
5.316789

>  <PEOE_VSA10>  (3) 
0.0

>  <PEOE_VSA11>  (3) 
0.0

>  <PEOE_VSA12>  (3) 
10.023291

>  <PEOE_VSA13>  (3) 
0.0

>  <PEOE_VSA14>  (3) 
0.0

>  <PEOE_VSA2>  (3) 
4.983979

>  <PEOE_VSA3>  (3) 
13.139892

>  <PEOE_VSA4>  (3) 
0.0

>  <PEOE_VSA5>  (3) 
0.0

>  <PEOE_VSA6>  (3) 
12.132734

>  <PEOE_VSA7>  (3) 
19.180406

>  <PEOE_VSA8>  (3) 
36.255648

>  <PEOE_VSA9>  (3) 
4.895483

>  <SMR_VSA1>  (3) 
8.417797

>  <SMR_VSA10>  (3) 
20.79574

>  <SMR_VSA2>  (3) 
0.0

>  <SMR_VSA3>  (3) 
15.022862

>  <SMR_VSA4>  (3) 
0.0

>  <SMR_VSA5>  (3) 
4.895483

>  <SMR_VSA6>  (3) 
20.137185

>  <SMR_VSA7>  (3) 
36.659155

>  <SMR_VSA8>  (3) 
0.0

>  <SMR_VSA9>  (3) 
0.0

>  <SlogP_VSA1>  (3) 
10.038883

>  <SlogP_VSA10>  (3) 
0.0

>  <SlogP_VSA11>  (3) 
0.0

>  <SlogP_VSA12>  (3) 
0.0

>  <SlogP_VSA2>  (3) 
33.53896

>  <SlogP_VSA3>  (3) 
10.023291

>  <SlogP_VSA4>  (3) 
0.0

>  <SlogP_VSA5>  (3) 
0.0

>  <SlogP_VSA6>  (3) 
41.554639

>  <SlogP_VSA7>  (3) 
0.0

>  <SlogP_VSA8>  (3) 
10.772448

>  <SlogP_VSA9>  (3) 
0.0

>  <EState_VSA1>  (3) 
10.023291

>  <EState_VSA10>  (3) 
8.417797

>  <EState_VSA11>  (3) 
0.0

>  <EState_VSA2>  (3) 
0.0

>  <EState_VSA3>  (3) 
23.371221

>  <EState_VSA4>  (3) 
5.386224

>  <EState_VSA5>  (3) 
0.0

>  <EState_VSA6>  (3) 
37.64046

>  <EState_VSA7>  (3) 
6.066367

>  <EState_VSA8>  (3) 
15.022862

>  <EState_VSA9>  (3) 
0.0

>  <VSA_EState1>  (3) 
26.881032

>  <VSA_EState10>  (3) 
0.0

>  <VSA_EState2>  (3) 
4.276514

>  <VSA_EState3>  (3) 
4.390532

>  <VSA_EState4>  (3) 
0.0

>  <VSA_EState5>  (3) 
0.0

>  <VSA_EState6>  (3) 
6.872627

>  <VSA_EState7>  (3) 
3.246928

>  <VSA_EState8>  (3) 
0.950254

>  <VSA_EState9>  (3) 
-1.70122

>  <FractionCSP3>  (3) 
0.25

>  <HeavyAtomCount>  (3) 
18

>  <NHOHCount>  (3) 
2

>  <NOCount>  (3) 
5

>  <NumAliphaticCarbocycles>  (3) 
0

>  <NumAliphaticHeterocycles>  (3) 
0

>  <NumAliphaticRings>  (3) 
0

>  <NumAromaticCarbocycles>  (3) 
1

>  <NumAromaticHeterocycles>  (3) 
1

>  <NumAromaticRings>  (3) 
2

>  <NumHAcceptors>  (3) 
4

>  <NumHDonors>  (3) 
2

>  <NumHeteroatoms>  (3) 
6

>  <NumRotatableBonds>  (3) 
5

>  <NumSaturatedCarbocycles>  (3) 
0

>  <NumSaturatedHeterocycles>  (3) 
0

>  <NumSaturatedRings>  (3) 
0

>  <RingCount>  (3) 
2

>  <MolLogP>  (3) 
0.7325

>  <MolMR>  (3) 
70.8582

>  <fr_Al_COO>  (3) 
0

>  <fr_Al_OH>  (3) 
0

>  <fr_Al_OH_noTert>  (3) 
0

>  <fr_ArN>  (3) 
0

>  <fr_Ar_COO>  (3) 
0

>  <fr_Ar_N>  (3) 
1

>  <fr_Ar_NH>  (3) 
0

>  <fr_Ar_OH>  (3) 
0

>  <fr_COO>  (3) 
0

>  <fr_COO2>  (3) 
0

>  <fr_C_O>  (3) 
0

>  <fr_C_O_noCOO>  (3) 
0

>  <fr_C_S>  (3) 
0

>  <fr_HOCCN>  (3) 
0

>  <fr_Imine>  (3) 
0

>  <fr_NH0>  (3) 
1

>  <fr_NH1>  (3) 
2

>  <fr_NH2>  (3) 
0

>  <fr_N_O>  (3) 
0

>  <fr_Ndealkylation1>  (3) 
1

>  <fr_Ndealkylation2>  (3) 
0

>  <fr_Nhpyrrole>  (3) 
0

>  <fr_SH>  (3) 
0

>  <fr_aldehyde>  (3) 
0

>  <fr_alkyl_carbamate>  (3) 
0

>  <fr_alkyl_halide>  (3) 
0

>  <fr_allylic_oxid>  (3) 
0

>  <fr_amide>  (3) 
0

>  <fr_amidine>  (3) 
0

>  <fr_aniline>  (3) 
0

>  <fr_aryl_methyl>  (3) 
0

>  <fr_azide>  (3) 
0

>  <fr_azo>  (3) 
0

>  <fr_barbitur>  (3) 
0

>  <fr_benzene>  (3) 
1

>  <fr_benzodiazepine>  (3) 
0

>  <fr_bicyclic>  (3) 
1

>  <fr_diazo>  (3) 
0

>  <fr_dihydropyridine>  (3) 
0

>  <fr_epoxide>  (3) 
0

>  <fr_ester>  (3) 
0

>  <fr_ether>  (3) 
0

>  <fr_furan>  (3) 
0

>  <fr_guanido>  (3) 
0

>  <fr_halogen>  (3) 
0

>  <fr_hdrzine>  (3) 
0

>  <fr_hdrzone>  (3) 
0

>  <fr_imidazole>  (3) 
0

>  <fr_imide>  (3) 
0

>  <fr_isocyan>  (3) 
0

>  <fr_isothiocyan>  (3) 
0

>  <fr_ketone>  (3) 
0

>  <fr_ketone_Topliss>  (3) 
0

>  <fr_lactam>  (3) 
0

>  <fr_lactone>  (3) 
0

>  <fr_methoxy>  (3) 
0

>  <fr_morpholine>  (3) 
0

>  <fr_nitrile>  (3) 
0

>  <fr_nitro>  (3) 
0

>  <fr_nitro_arom>  (3) 
0

>  <fr_nitro_arom_nonortho>  (3) 
0

>  <fr_nitroso>  (3) 
0

>  <fr_oxazole>  (3) 
0

>  <fr_oxime>  (3) 
0

>  <fr_para_hydroxylation>  (3) 
0

>  <fr_phenol>  (3) 
0

>  <fr_phenol_noOrthoHbond>  (3) 
0

>  <fr_phos_acid>  (3) 
0

>  <fr_phos_ester>  (3) 
0

>  <fr_piperdine>  (3) 
0

>  <fr_piperzine>  (3) 
0

>  <fr_priamide>  (3) 
0

>  <fr_prisulfonamd>  (3) 
0

>  <fr_pyridine>  (3) 
1

>  <fr_quatN>  (3) 
0

>  <fr_sulfide>  (3) 
0

>  <fr_sulfonamd>  (3) 
1

>  <fr_sulfone>  (3) 
0

>  <fr_term_acetylene>  (3) 
0

>  <fr_tetrazole>  (3) 
0

>  <fr_thiazole>  (3) 
0

>  <fr_thiocyan>  (3) 
0

>  <fr_thiophene>  (3) 
0

>  <fr_unbrch_alkane>  (3) 
0

>  <fr_urea>  (3) 
0

>  <NP_Likeness>  (3) 
-1.226189

$$$$
CHEMBL1580664
     RDKit          3D

  0  0  0  0  0  0  0  0  0  0999 V3000
M  V30 BEGIN CTAB
M  V30 COUNTS 38 40 0 0 0
M  V30 BEGIN ATOM
M  V30 1 N 0.375440 -4.323856 -0.304022 0
M  V30 2 C 0.263095 -2.961364 0.094972 0
M  V30 3 N 0.911012 -2.000422 -0.570820 0
M  V30 4 C 0.861881 -0.704288 -0.208689 0
M  V30 5 C 1.572128 0.192856 -1.096792 0
M  V30 6 C 2.281587 -0.299997 -2.172233 0
M  V30 7 C 2.924407 0.480400 -3.120921 0
M  V30 8 O 3.600494 -0.131054 -4.138161 0
M  V30 9 C 2.879565 1.861302 -3.027630 0
M  V30 10 C 2.175643 2.410930 -1.952979 0
M  V30 11 C 1.575293 1.527825 -1.062891 0
M  V30 12 N 0.932666 2.300699 -0.075308 0 CHG=1 VAL=4
M  V30 13 O 0.246480 3.344222 0.166107 0
M  V30 14 O 0.328166 3.004231 0.927934 0 CHG=-1 VAL=1
M  V30 15 C 0.106055 -0.461053 0.886972 0
M  V30 16 C -0.583213 -1.372917 1.618909 0
M  V30 17 C -1.248293 -0.720528 2.783702 0
M  V30 18 C -2.112245 0.318660 2.712173 0
M  V30 19 C -2.571511 0.798561 3.950991 0
M  V30 20 C -2.213993 0.305214 5.173541 0
M  V30 21 C -1.318705 -0.781083 5.140376 0
M  V30 22 C -0.821987 -1.311397 3.943208 0
M  V30 23 C -0.490154 -2.662245 1.186459 0
M  V30 24 N -1.226062 -3.631250 1.895842 0 CHG=1 VAL=4
M  V30 25 O -1.269998 -4.301336 2.931271 0
M  V30 26 O -2.334145 -3.941983 1.100663 0 CHG=-1 VAL=1
M  V30 27 H -0.194688 -4.690645 -1.135690 0
M  V30 28 H 1.067927 -4.724571 0.408810 0
M  V30 29 H 2.359285 -1.391206 -2.332719 0
M  V30 30 H 3.159690 -0.142475 -5.060676 0
M  V30 31 H 3.401531 2.375318 -3.787450 0
M  V30 32 H 2.199164 3.476063 -1.950385 0
M  V30 33 H 0.085924 0.575758 1.186779 0
M  V30 34 H -2.393779 0.682198 1.762779 0
M  V30 35 H -3.260998 1.643247 3.873840 0
M  V30 36 H -2.582673 0.702536 6.105757 0
M  V30 37 H -1.054528 -1.143057 6.113987 0
M  V30 38 H -0.155739 -2.124425 4.114472 0
M  V30 END ATOM
M  V30 BEGIN BOND
M  V30 1 1 1 2
M  V30 2 2 2 3
M  V30 3 1 3 4
M  V30 4 1 4 5
M  V30 5 2 5 6
M  V30 6 1 6 7
M  V30 7 1 7 8
M  V30 8 2 7 9
M  V30 9 1 9 10
M  V30 10 2 10 11
M  V30 11 1 11 12
M  V30 12 2 12 13
M  V30 13 1 12 14
M  V30 14 2 4 15
M  V30 15 1 15 16
M  V30 16 1 16 17
M  V30 17 2 17 18
M  V30 18 1 18 19
M  V30 19 2 19 20
M  V30 20 1 20 21
M  V30 21 2 21 22
M  V30 22 2 16 23
M  V30 23 1 23 24
M  V30 24 2 24 25
M  V30 25 1 24 26
M  V30 26 1 23 2
M  V30 27 1 11 5
M  V30 28 1 22 17
M  V30 29 1 1 27
M  V30 30 1 1 28
M  V30 31 1 6 29
M  V30 32 1 8 30
M  V30 33 1 9 31
M  V30 34 1 10 32
M  V30 35 1 15 33
M  V30 36 1 18 34
M  V30 37 1 19 35
M  V30 38 1 20 36
M  V30 39 1 21 37
M  V30 40 1 22 38
M  V30 END BOND
M  V30 END CTAB
M  END
>  <Dataset>  (4) 
ChEMBL_PKA

>  <Ligand_Instance>  (4) 
nan

>  <PDB_ID>  (4) 
nan

>  <Standardized_SMILES>  (4) 
Nc1nc(-c2cc(O)ccc2[N+](=O)[O-])cc(-c2ccccc2)c1[N+](=O)[O-]

>  <Name>  (4) 
nan

>  <Pocket>  (4) 
nan

>  <ATP_Site>  (4) 
nan

>  <Peripheral>  (4) 
nan

>  <Num_H_Atoms_ProtBoundConf>  (4) 
nan

>  <Num_Resolved_Atoms>  (4) 
nan

>  <Num_Not_Resolved_Atoms>  (4) 
nan

>  <2D_Mol_H>  (4) 
<rdkit.Chem.rdchem.Mol object at 0x72a2391018c0>

>  <MW>  (4) 
352.306

>  <HBA>  (4) 
7

>  <HBD>  (4) 
2

>  <LogP>  (4) 
3.5198

>  <NRB>  (4) 
6

>  <TPSA>  (4) 
145.42

>  <Num_Heavy_Atoms>  (4) 
26

>  <Ro5>  (4) 
[True, True, True, True, True, False]

>  <Ro5_Fulfilled>  (4) 
True

>  <Ro3>  (4) 
[False, False, True, False]

>  <Ro3_Fulfilled>  (4) 
False

>  <Fsp3>  (4) 
0.0

>  <Fsp3_0.42>  (4) 
False

>  <Fsp3_0.45>  (4) 
False

>  <Stereogenic_Carbons>  (4) 
0

>  <C_Atoms>  (4) 
17

>  <FCStereo>  (4) 
0.0

>  <SPS>  (4) 
272

>  <nSPS>  (4) 
10.461538

>  <PBF>  (4) 
0.505639

>  <PBF_0.6>  (4) 
False

>  <nPBF>  (4) 
0.019448

>  <nPBF_0.016>  (4) 
True

>  <PMI1>  (4) 
1661.190101

>  <PMI2>  (4) 
3473.514533

>  <PMI3>  (4) 
4918.717893

>  <NPR1>  (4) 
0.337728

>  <NPR2>  (4) 
0.706183

>  <Sum_NPR>  (4) 
1.043911

>  <Sum_NPR_1.07>  (4) 
False

>  <Sum_NPR_1.2>  (4) 
False

>  <MaxAbsEStateIndex>  (4) 
11.430327

>  <MaxEStateIndex>  (4) 
11.430327

>  <MinAbsEStateIndex>  (4) 
0.008129

>  <MinEStateIndex>  (4) 
-0.647495

>  <qed>  (4) 
0.539229

>  <MolWt>  (4) 
352.306

>  <HeavyAtomMolWt>  (4) 
340.21

>  <ExactMolWt>  (4) 
352.080769

>  <NumValenceElectrons>  (4) 
130

>  <NumRadicalElectrons>  (4) 
0

>  <MaxPartialCharge>  (4) 
0.318437

>  <MinPartialCharge>  (4) 
-0.507934

>  <MaxAbsPartialCharge>  (4) 
0.507934

>  <MinAbsPartialCharge>  (4) 
0.318437

>  <FpDensityMorgan1>  (4) 
0.923077

>  <FpDensityMorgan2>  (4) 
1.615385

>  <FpDensityMorgan3>  (4) 
2.230769

>  <BCUT2D_MWHI>  (4) 
16.632043

>  <BCUT2D_MWLOW>  (4) 
10.001877

>  <BCUT2D_CHGHI>  (4) 
2.252191

>  <BCUT2D_CHGLO>  (4) 
-2.093351

>  <BCUT2D_LOGPHI>  (4) 
2.392772

>  <BCUT2D_LOGPLOW>  (4) 
-2.029888

>  <BCUT2D_MRHI>  (4) 
5.850326

>  <BCUT2D_MRLOW>  (4) 
-0.383872

>  <AvgIpc>  (4) 
2.606538

>  <BalabanJ>  (4) 
2.326311

>  <BertzCT>  (4) 
1021.161863

>  <Chi0>  (4) 
18.844571

>  <Chi0n>  (4) 
13.19535

>  <Chi0v>  (4) 
13.19535

>  <Chi1>  (4) 
12.379918

>  <Chi1n>  (4) 
7.363074

>  <Chi1v>  (4) 
7.363074

>  <Chi2n>  (4) 
5.370601

>  <Chi2v>  (4) 
5.370601

>  <Chi3n>  (4) 
3.739854

>  <Chi3v>  (4) 
3.739854

>  <Chi4n>  (4) 
2.614061

>  <Chi4v>  (4) 
2.614061

>  <HallKierAlpha>  (4) 
-4.01

>  <Ipc>  (4) 
661351.704894

>  <Kappa1>  (4) 
16.834089

>  <Kappa2>  (4) 
6.475515

>  <Kappa3>  (4) 
3.00364

>  <LabuteASA>  (4) 
146.205315

>  <PEOE_VSA1>  (4) 
10.840195

>  <PEOE_VSA10>  (4) 
5.749512

>  <PEOE_VSA11>  (4) 
0.0

>  <PEOE_VSA12>  (4) 
5.817863

>  <PEOE_VSA13>  (4) 
5.687386

>  <PEOE_VSA14>  (4) 
5.687386

>  <PEOE_VSA2>  (4) 
20.228637

>  <PEOE_VSA3>  (4) 
4.983979

>  <PEOE_VSA4>  (4) 
0.0

>  <PEOE_VSA5>  (4) 
0.0

>  <PEOE_VSA6>  (4) 
30.331835

>  <PEOE_VSA7>  (4) 
23.762553

>  <PEOE_VSA8>  (4) 
6.066367

>  <PEOE_VSA9>  (4) 
26.667453

>  <SMR_VSA1>  (4) 
14.953149

>  <SMR_VSA10>  (4) 
17.192635

>  <SMR_VSA2>  (4) 
0.0

>  <SMR_VSA3>  (4) 
4.983979

>  <SMR_VSA4>  (4) 
0.0

>  <SMR_VSA5>  (4) 
0.0

>  <SMR_VSA6>  (4) 
5.733667

>  <SMR_VSA7>  (4) 
74.82594

>  <SMR_VSA8>  (4) 
0.0

>  <SMR_VSA9>  (4) 
28.133794

>  <SlogP_VSA1>  (4) 
5.733667

>  <SlogP_VSA10>  (4) 
17.192635

>  <SlogP_VSA11>  (4) 
5.749512

>  <SlogP_VSA12>  (4) 
0.0

>  <SlogP_VSA2>  (4) 
19.937128

>  <SlogP_VSA3>  (4) 
0.0

>  <SlogP_VSA4>  (4) 
20.228637

>  <SlogP_VSA5>  (4) 
0.0

>  <SlogP_VSA6>  (4) 
54.597304

>  <SlogP_VSA7>  (4) 
0.0

>  <SlogP_VSA8>  (4) 
22.384282

>  <SlogP_VSA9>  (4) 
0.0

>  <EState_VSA1>  (4) 
9.846622

>  <EState_VSA10>  (4) 
25.335164

>  <EState_VSA11>  (4) 
0.0

>  <EState_VSA2>  (4) 
39.762978

>  <EState_VSA3>  (4) 
5.563451

>  <EState_VSA4>  (4) 
6.066367

>  <EState_VSA5>  (4) 
18.199101

>  <EState_VSA6>  (4) 
30.331835

>  <EState_VSA7>  (4) 
0.0

>  <EState_VSA8>  (4) 
4.983979

>  <EState_VSA9>  (4) 
5.733667

>  <VSA_EState1>  (4) 
0.0

>  <VSA_EState10>  (4) 
0.0

>  <VSA_EState2>  (4) 
25.387676

>  <VSA_EState3>  (4) 
32.397584

>  <VSA_EState4>  (4) 
5.834079

>  <VSA_EState5>  (4) 
-0.574464

>  <VSA_EState6>  (4) 
13.288458

>  <VSA_EState7>  (4) 
0.0

>  <VSA_EState8>  (4) 
0.0

>  <VSA_EState9>  (4) 
0.0

>  <FractionCSP3>  (4) 
0.0

>  <HeavyAtomCount>  (4) 
26

>  <NHOHCount>  (4) 
3

>  <NOCount>  (4) 
9

>  <NumAliphaticCarbocycles>  (4) 
0

>  <NumAliphaticHeterocycles>  (4) 
0

>  <NumAliphaticRings>  (4) 
0

>  <NumAromaticCarbocycles>  (4) 
2

>  <NumAromaticHeterocycles>  (4) 
1

>  <NumAromaticRings>  (4) 
3

>  <NumHAcceptors>  (4) 
7

>  <NumHDonors>  (4) 
2

>  <NumHeteroatoms>  (4) 
9

>  <NumRotatableBonds>  (4) 
4

>  <NumSaturatedCarbocycles>  (4) 
0

>  <NumSaturatedHeterocycles>  (4) 
0

>  <NumSaturatedRings>  (4) 
0

>  <RingCount>  (4) 
3

>  <MolLogP>  (4) 
3.5198

>  <MolMR>  (4) 
94.495

>  <fr_Al_COO>  (4) 
0

>  <fr_Al_OH>  (4) 
0

>  <fr_Al_OH_noTert>  (4) 
0

>  <fr_ArN>  (4) 
1

>  <fr_Ar_COO>  (4) 
0

>  <fr_Ar_N>  (4) 
1

>  <fr_Ar_NH>  (4) 
0

>  <fr_Ar_OH>  (4) 
1

>  <fr_COO>  (4) 
0

>  <fr_COO2>  (4) 
0

>  <fr_C_O>  (4) 
0

>  <fr_C_O_noCOO>  (4) 
0

>  <fr_C_S>  (4) 
0

>  <fr_HOCCN>  (4) 
0

>  <fr_Imine>  (4) 
0

>  <fr_NH0>  (4) 
3

>  <fr_NH1>  (4) 
0

>  <fr_NH2>  (4) 
1

>  <fr_N_O>  (4) 
0

>  <fr_Ndealkylation1>  (4) 
0

>  <fr_Ndealkylation2>  (4) 
0

>  <fr_Nhpyrrole>  (4) 
0

>  <fr_SH>  (4) 
0

>  <fr_aldehyde>  (4) 
0

>  <fr_alkyl_carbamate>  (4) 
0

>  <fr_alkyl_halide>  (4) 
0

>  <fr_allylic_oxid>  (4) 
0

>  <fr_amide>  (4) 
0

>  <fr_amidine>  (4) 
0

>  <fr_aniline>  (4) 
1

>  <fr_aryl_methyl>  (4) 
0

>  <fr_azide>  (4) 
0

>  <fr_azo>  (4) 
0

>  <fr_barbitur>  (4) 
0

>  <fr_benzene>  (4) 
2

>  <fr_benzodiazepine>  (4) 
0

>  <fr_bicyclic>  (4) 
0

>  <fr_diazo>  (4) 
0

>  <fr_dihydropyridine>  (4) 
0

>  <fr_epoxide>  (4) 
0

>  <fr_ester>  (4) 
0

>  <fr_ether>  (4) 
0

>  <fr_furan>  (4) 
0

>  <fr_guanido>  (4) 
0

>  <fr_halogen>  (4) 
0

>  <fr_hdrzine>  (4) 
0

>  <fr_hdrzone>  (4) 
0

>  <fr_imidazole>  (4) 
0

>  <fr_imide>  (4) 
0

>  <fr_isocyan>  (4) 
0

>  <fr_isothiocyan>  (4) 
0

>  <fr_ketone>  (4) 
0

>  <fr_ketone_Topliss>  (4) 
0

>  <fr_lactam>  (4) 
0

>  <fr_lactone>  (4) 
0

>  <fr_methoxy>  (4) 
0

>  <fr_morpholine>  (4) 
0

>  <fr_nitrile>  (4) 
0

>  <fr_nitro>  (4) 
2

>  <fr_nitro_arom>  (4) 
1

>  <fr_nitro_arom_nonortho>  (4) 
0

>  <fr_nitroso>  (4) 
0

>  <fr_oxazole>  (4) 
0

>  <fr_oxime>  (4) 
0

>  <fr_para_hydroxylation>  (4) 
0

>  <fr_phenol>  (4) 
1

>  <fr_phenol_noOrthoHbond>  (4) 
1

>  <fr_phos_acid>  (4) 
0

>  <fr_phos_ester>  (4) 
0

>  <fr_piperdine>  (4) 
0

>  <fr_piperzine>  (4) 
0

>  <fr_priamide>  (4) 
0

>  <fr_prisulfonamd>  (4) 
0

>  <fr_pyridine>  (4) 
1

>  <fr_quatN>  (4) 
0

>  <fr_sulfide>  (4) 
0

>  <fr_sulfonamd>  (4) 
0

>  <fr_sulfone>  (4) 
0

>  <fr_term_acetylene>  (4) 
0

>  <fr_tetrazole>  (4) 
0

>  <fr_thiazole>  (4) 
0

>  <fr_thiocyan>  (4) 
0

>  <fr_thiophene>  (4) 
0

>  <fr_unbrch_alkane>  (4) 
0

>  <fr_urea>  (4) 
0

>  <NP_Likeness>  (4) 
-0.534712

$$$$
CHEMBL1667969
     RDKit          3D

  0  0  0  0  0  0  0  0  0  0999 V3000
M  V30 BEGIN CTAB
M  V30 COUNTS 34 36 0 0 0
M  V30 BEGIN ATOM
M  V30 1 O 1.950757 -0.128664 5.730272 0
M  V30 2 C 2.419582 -0.217363 4.565879 0
M  V30 3 N 3.771064 -0.238383 4.367897 0
M  V30 4 C 4.321415 -0.333595 3.121114 0
M  V30 5 C 3.506274 -0.414078 1.986839 0
M  V30 6 C 2.140705 -0.389745 2.228433 0
M  V30 7 C 1.351810 -0.469971 1.099044 0
M  V30 8 C -0.025330 -0.456914 1.188021 0
M  V30 9 O -1.004295 -0.522618 0.242145 0
M  V30 10 C -0.832232 -0.627287 -1.155724 0
M  V30 11 C -1.347045 -1.934288 -1.702399 0
M  V30 12 C -2.801414 -1.861276 -2.100290 0
M  V30 13 N -3.038255 -0.727028 -2.983874 0
M  V30 14 C -2.852176 0.457991 -2.174829 0
M  V30 15 C -1.378089 0.571935 -1.885694 0
M  V30 16 C -0.597323 -0.359440 2.463920 0
M  V30 17 C 0.196924 -0.277636 3.614831 0
M  V30 18 C 1.569221 -0.293971 3.481438 0
M  V30 19 H 4.400715 -0.177781 5.223030 0
M  V30 20 H 5.389124 -0.349344 2.975859 0
M  V30 21 H 3.911486 -0.490377 0.985517 0
M  V30 22 H 1.693768 -0.546232 0.094484 0
M  V30 23 H 0.261843 -0.645590 -1.338890 0
M  V30 24 H -1.267108 -2.729021 -0.927322 0
M  V30 25 H -0.778037 -2.302735 -2.585307 0
M  V30 26 H -3.019695 -2.761707 -2.711516 0
M  V30 27 H -3.469999 -1.798842 -1.225754 0
M  V30 28 H -4.018992 -0.779738 -3.307877 0
M  V30 29 H -3.147929 1.363445 -2.730053 0
M  V30 30 H -3.463527 0.311363 -1.267290 0
M  V30 31 H -1.122237 1.461928 -1.271241 0
M  V30 32 H -0.860642 0.661347 -2.863977 0
M  V30 33 H -1.665316 -0.335791 2.714555 0
M  V30 34 H -0.196655 -0.202083 4.606999 0
M  V30 END ATOM
M  V30 BEGIN BOND
M  V30 1 2 1 2
M  V30 2 1 2 3
M  V30 3 1 3 4
M  V30 4 2 4 5
M  V30 5 1 5 6
M  V30 6 2 6 7
M  V30 7 1 7 8
M  V30 8 1 8 9
M  V30 9 1 9 10
M  V30 10 1 10 11
M  V30 11 1 11 12
M  V30 12 1 12 13
M  V30 13 1 13 14
M  V30 14 1 14 15
M  V30 15 2 8 16
M  V30 16 1 16 17
M  V30 17 2 17 18
M  V30 18 1 18 2
M  V30 19 1 18 6
M  V30 20 1 15 10
M  V30 21 1 3 19
M  V30 22 1 4 20
M  V30 23 1 5 21
M  V30 24 1 7 22
M  V30 25 1 10 23
M  V30 26 1 11 24
M  V30 27 1 11 25
M  V30 28 1 12 26
M  V30 29 1 12 27
M  V30 30 1 13 28
M  V30 31 1 14 29
M  V30 32 1 14 30
M  V30 33 1 15 31
M  V30 34 1 15 32
M  V30 35 1 16 33
M  V30 36 1 17 34
M  V30 END BOND
M  V30 END CTAB
M  END
>  <Dataset>  (5) 
ChEMBL_PKA

>  <Ligand_Instance>  (5) 
nan

>  <PDB_ID>  (5) 
nan

>  <Standardized_SMILES>  (5) 
O=c1[nH]ccc2cc(OC3CCNCC3)ccc12

>  <Name>  (5) 
SAR-407899

>  <Pocket>  (5) 
nan

>  <ATP_Site>  (5) 
nan

>  <Peripheral>  (5) 
nan

>  <Num_H_Atoms_ProtBoundConf>  (5) 
nan

>  <Num_Resolved_Atoms>  (5) 
nan

>  <Num_Not_Resolved_Atoms>  (5) 
nan

>  <2D_Mol_H>  (5) 
<rdkit.Chem.rdchem.Mol object at 0x72a2391019a0>

>  <MW>  (5) 
244.294

>  <HBA>  (5) 
3

>  <HBD>  (5) 
2

>  <LogP>  (5) 
1.6589

>  <NRB>  (5) 
2

>  <TPSA>  (5) 
54.12

>  <Num_Heavy_Atoms>  (5) 
18

>  <Ro5>  (5) 
[True, True, True, True, True, True]

>  <Ro5_Fulfilled>  (5) 
True

>  <Ro3>  (5) 
[True, True, True, True]

>  <Ro3_Fulfilled>  (5) 
True

>  <Fsp3>  (5) 
0.357143

>  <Fsp3_0.42>  (5) 
False

>  <Fsp3_0.45>  (5) 
False

>  <Stereogenic_Carbons>  (5) 
0

>  <C_Atoms>  (5) 
14

>  <FCStereo>  (5) 
0.0

>  <SPS>  (5) 
304

>  <nSPS>  (5) 
16.888889

>  <PBF>  (5) 
0.554522

>  <PBF_0.6>  (5) 
False

>  <nPBF>  (5) 
0.030807

>  <nPBF_0.016>  (5) 
True

>  <PMI1>  (5) 
375.7512

>  <PMI2>  (5) 
2907.067478

>  <PMI3>  (5) 
3094.093442

>  <NPR1>  (5) 
0.121441

>  <NPR2>  (5) 
0.939554

>  <Sum_NPR>  (5) 
1.060995

>  <Sum_NPR_1.07>  (5) 
False

>  <Sum_NPR_1.2>  (5) 
False

>  <MaxAbsEStateIndex>  (5) 
11.57537

>  <MaxEStateIndex>  (5) 
11.57537

>  <MinAbsEStateIndex>  (5) 
0.054707

>  <MinEStateIndex>  (5) 
-0.054707

>  <qed>  (5) 
0.844388

>  <MolWt>  (5) 
244.294

>  <HeavyAtomMolWt>  (5) 
228.166

>  <ExactMolWt>  (5) 
244.121178

>  <NumValenceElectrons>  (5) 
94

>  <NumRadicalElectrons>  (5) 
0

>  <MaxPartialCharge>  (5) 
0.255308

>  <MinPartialCharge>  (5) 
-0.490318

>  <MaxAbsPartialCharge>  (5) 
0.490318

>  <MinAbsPartialCharge>  (5) 
0.255308

>  <FpDensityMorgan1>  (5) 
1.166667

>  <FpDensityMorgan2>  (5) 
2.0

>  <FpDensityMorgan3>  (5) 
2.833333

>  <BCUT2D_MWHI>  (5) 
16.489584

>  <BCUT2D_MWLOW>  (5) 
10.101585

>  <BCUT2D_CHGHI>  (5) 
2.139984

>  <BCUT2D_CHGLO>  (5) 
-2.234344

>  <BCUT2D_LOGPHI>  (5) 
2.205956

>  <BCUT2D_LOGPLOW>  (5) 
-2.336138

>  <BCUT2D_MRHI>  (5) 
5.821313

>  <BCUT2D_MRLOW>  (5) 
0.16248

>  <AvgIpc>  (5) 
2.399801

>  <BalabanJ>  (5) 
1.863523

>  <BertzCT>  (5) 
600.010635

>  <Chi0>  (5) 
12.372033

>  <Chi0n>  (5) 
10.109025

>  <Chi0v>  (5) 
10.109025

>  <Chi1>  (5) 
8.8265

>  <Chi1n>  (5) 
6.316271

>  <Chi1v>  (5) 
6.316271

>  <Chi2n>  (5) 
4.623062

>  <Chi2v>  (5) 
4.623062

>  <Chi3n>  (5) 
3.333905

>  <Chi3v>  (5) 
3.333905

>  <Chi4n>  (5) 
2.349418

>  <Chi4v>  (5) 
2.349418

>  <HallKierAlpha>  (5) 
-1.81

>  <Ipc>  (5) 
21281.438438

>  <Kappa1>  (5) 
11.290079

>  <Kappa2>  (5) 
4.820213

>  <Kappa3>  (5) 
2.241081

>  <LabuteASA>  (5) 
104.976525

>  <PEOE_VSA1>  (5) 
15.03763

>  <PEOE_VSA10>  (5) 
11.853478

>  <PEOE_VSA11>  (5) 
0.0

>  <PEOE_VSA12>  (5) 
0.0

>  <PEOE_VSA13>  (5) 
5.559267

>  <PEOE_VSA14>  (5) 
0.0

>  <PEOE_VSA2>  (5) 
4.794537

>  <PEOE_VSA3>  (5) 
0.0

>  <PEOE_VSA4>  (5) 
0.0

>  <PEOE_VSA5>  (5) 
0.0

>  <PEOE_VSA6>  (5) 
0.0

>  <PEOE_VSA7>  (5) 
55.582849

>  <PEOE_VSA8>  (5) 
11.583068

>  <PEOE_VSA9>  (5) 
0.0

>  <SMR_VSA1>  (5) 
4.736863

>  <SMR_VSA10>  (5) 
10.772448

>  <SMR_VSA2>  (5) 
0.0

>  <SMR_VSA3>  (5) 
10.300767

>  <SMR_VSA4>  (5) 
0.0

>  <SMR_VSA5>  (5) 
18.94561

>  <SMR_VSA6>  (5) 
13.089513

>  <SMR_VSA7>  (5) 
40.816116

>  <SMR_VSA8>  (5) 
0.0

>  <SMR_VSA9>  (5) 
5.749512

>  <SlogP_VSA1>  (5) 
15.612918

>  <SlogP_VSA10>  (5) 
0.0

>  <SlogP_VSA11>  (5) 
5.749512

>  <SlogP_VSA12>  (5) 
0.0

>  <SlogP_VSA2>  (5) 
24.177458

>  <SlogP_VSA3>  (5) 
0.0

>  <SlogP_VSA4>  (5) 
0.0

>  <SlogP_VSA5>  (5) 
12.841643

>  <SlogP_VSA6>  (5) 
35.256849

>  <SlogP_VSA7>  (5) 
0.0

>  <SlogP_VSA8>  (5) 
10.772448

>  <SlogP_VSA9>  (5) 
0.0

>  <EState_VSA1>  (5) 
0.0

>  <EState_VSA10>  (5) 
4.794537

>  <EState_VSA11>  (5) 
0.0

>  <EState_VSA2>  (5) 
11.663233

>  <EState_VSA3>  (5) 
5.386224

>  <EState_VSA4>  (5) 
37.066892

>  <EState_VSA5>  (5) 
0.0

>  <EState_VSA6>  (5) 
6.196844

>  <EState_VSA7>  (5) 
24.265468

>  <EState_VSA8>  (5) 
10.300767

>  <EState_VSA9>  (5) 
4.736863

>  <VSA_EState1>  (5) 
5.951017

>  <VSA_EState10>  (5) 
0.0

>  <VSA_EState2>  (5) 
14.245846

>  <VSA_EState3>  (5) 
4.937452

>  <VSA_EState4>  (5) 
-0.054707

>  <VSA_EState5>  (5) 
0.847222

>  <VSA_EState6>  (5) 
7.530566

>  <VSA_EState7>  (5) 
4.018961

>  <VSA_EState8>  (5) 
2.023643

>  <VSA_EState9>  (5) 
0.0

>  <FractionCSP3>  (5) 
0.357143

>  <HeavyAtomCount>  (5) 
18

>  <NHOHCount>  (5) 
2

>  <NOCount>  (5) 
4

>  <NumAliphaticCarbocycles>  (5) 
0

>  <NumAliphaticHeterocycles>  (5) 
1

>  <NumAliphaticRings>  (5) 
1

>  <NumAromaticCarbocycles>  (5) 
1

>  <NumAromaticHeterocycles>  (5) 
1

>  <NumAromaticRings>  (5) 
2

>  <NumHAcceptors>  (5) 
3

>  <NumHDonors>  (5) 
2

>  <NumHeteroatoms>  (5) 
4

>  <NumRotatableBonds>  (5) 
2

>  <NumSaturatedCarbocycles>  (5) 
0

>  <NumSaturatedHeterocycles>  (5) 
1

>  <NumSaturatedRings>  (5) 
1

>  <RingCount>  (5) 
3

>  <MolLogP>  (5) 
1.6589

>  <MolMR>  (5) 
71.0884

>  <fr_Al_COO>  (5) 
0

>  <fr_Al_OH>  (5) 
0

>  <fr_Al_OH_noTert>  (5) 
0

>  <fr_ArN>  (5) 
0

>  <fr_Ar_COO>  (5) 
0

>  <fr_Ar_N>  (5) 
1

>  <fr_Ar_NH>  (5) 
1

>  <fr_Ar_OH>  (5) 
0

>  <fr_COO>  (5) 
0

>  <fr_COO2>  (5) 
0

>  <fr_C_O>  (5) 
0

>  <fr_C_O_noCOO>  (5) 
0

>  <fr_C_S>  (5) 
0

>  <fr_HOCCN>  (5) 
0

>  <fr_Imine>  (5) 
0

>  <fr_NH0>  (5) 
0

>  <fr_NH1>  (5) 
2

>  <fr_NH2>  (5) 
0

>  <fr_N_O>  (5) 
0

>  <fr_Ndealkylation1>  (5) 
0

>  <fr_Ndealkylation2>  (5) 
0

>  <fr_Nhpyrrole>  (5) 
1

>  <fr_SH>  (5) 
0

>  <fr_aldehyde>  (5) 
0

>  <fr_alkyl_carbamate>  (5) 
0

>  <fr_alkyl_halide>  (5) 
0

>  <fr_allylic_oxid>  (5) 
0

>  <fr_amide>  (5) 
0

>  <fr_amidine>  (5) 
0

>  <fr_aniline>  (5) 
0

>  <fr_aryl_methyl>  (5) 
0

>  <fr_azide>  (5) 
0

>  <fr_azo>  (5) 
0

>  <fr_barbitur>  (5) 
0

>  <fr_benzene>  (5) 
1

>  <fr_benzodiazepine>  (5) 
0

>  <fr_bicyclic>  (5) 
1

>  <fr_diazo>  (5) 
0

>  <fr_dihydropyridine>  (5) 
0

>  <fr_epoxide>  (5) 
0

>  <fr_ester>  (5) 
0

>  <fr_ether>  (5) 
1

>  <fr_furan>  (5) 
0

>  <fr_guanido>  (5) 
0

>  <fr_halogen>  (5) 
0

>  <fr_hdrzine>  (5) 
0

>  <fr_hdrzone>  (5) 
0

>  <fr_imidazole>  (5) 
0

>  <fr_imide>  (5) 
0

>  <fr_isocyan>  (5) 
0

>  <fr_isothiocyan>  (5) 
0

>  <fr_ketone>  (5) 
0

>  <fr_ketone_Topliss>  (5) 
0

>  <fr_lactam>  (5) 
0

>  <fr_lactone>  (5) 
0

>  <fr_methoxy>  (5) 
0

>  <fr_morpholine>  (5) 
0

>  <fr_nitrile>  (5) 
0

>  <fr_nitro>  (5) 
0

>  <fr_nitro_arom>  (5) 
0

>  <fr_nitro_arom_nonortho>  (5) 
0

>  <fr_nitroso>  (5) 
0

>  <fr_oxazole>  (5) 
0

>  <fr_oxime>  (5) 
0

>  <fr_para_hydroxylation>  (5) 
0

>  <fr_phenol>  (5) 
0

>  <fr_phenol_noOrthoHbond>  (5) 
0

>  <fr_phos_acid>  (5) 
0

>  <fr_phos_ester>  (5) 
0

>  <fr_piperdine>  (5) 
1

>  <fr_piperzine>  (5) 
0

>  <fr_priamide>  (5) 
0

>  <fr_prisulfonamd>  (5) 
0

>  <fr_pyridine>  (5) 
1

>  <fr_quatN>  (5) 
0

>  <fr_sulfide>  (5) 
0

>  <fr_sulfonamd>  (5) 
0

>  <fr_sulfone>  (5) 
0

>  <fr_term_acetylene>  (5) 
0

>  <fr_tetrazole>  (5) 
0

>  <fr_thiazole>  (5) 
0

>  <fr_thiocyan>  (5) 
0

>  <fr_thiophene>  (5) 
0

>  <fr_unbrch_alkane>  (5) 
0

>  <fr_urea>  (5) 
0

>  <NP_Likeness>  (5) 
0.155267

$$$$
CHEMBL1939876
     RDKit          3D

  0  0  0  0  0  0  0  0  0  0999 V3000
M  V30 BEGIN CTAB
M  V30 COUNTS 55 58 0 0 0
M  V30 BEGIN ATOM
M  V30 1 C 4.088408 5.980339 4.248685 0
M  V30 2 C 3.338155 6.588685 3.080678 0
M  V30 3 O 2.884478 5.516891 2.282317 0
M  V30 4 C 2.154002 5.664342 1.116623 0
M  V30 5 O 1.991114 6.896206 0.932850 0
M  V30 6 C 1.688011 4.554800 0.296013 0
M  V30 7 C 1.950942 3.242971 0.631753 0
M  V30 8 C 1.336595 2.530071 -0.401721 0
M  V30 9 C 1.283750 1.156440 -0.576834 0
M  V30 10 C 0.631639 0.602697 -1.660009 0
M  V30 11 C 0.614165 -0.859685 -1.783405 0
M  V30 12 C 0.329170 -1.599397 -0.645330 0
M  V30 13 C 0.364828 -2.940402 -0.984487 0
M  V30 14 C 0.134087 -4.136717 -0.143909 0
M  V30 15 O 0.211011 -5.277699 -0.641700 0
M  V30 16 N -0.169924 -3.894072 1.222324 0
M  V30 17 C -0.425823 -4.952508 2.188823 0
M  V30 18 C -1.791229 -5.498965 2.002589 0
M  V30 19 C -2.813230 -4.864098 2.708191 0
M  V30 20 C -4.150824 -5.257616 2.644936 0
M  V30 21 C -4.496498 -6.328443 1.847478 0
M  V30 22 C -5.897313 -6.710231 1.805936 0
M  V30 23 O -6.728436 -6.064276 2.484419 0
M  V30 24 O -6.397892 -7.759837 1.055638 0
M  V30 25 C -3.501163 -6.961635 1.148477 0
M  V30 26 C -2.186792 -6.561878 1.221403 0
M  V30 27 N 0.665631 -2.964161 -2.295802 0
M  V30 28 N 0.815757 -1.741866 -2.781167 0
M  V30 29 C 1.136377 -1.246465 -4.105184 0
M  V30 30 C 0.030580 1.462546 -2.567956 0
M  V30 31 C 0.088998 2.836717 -2.384067 0
M  V30 32 C 0.743506 3.398778 -1.296539 0
M  V30 33 N 0.976988 4.656426 -0.838756 0
M  V30 34 H 5.176396 5.953253 4.029661 0
M  V30 35 H 3.879673 6.560484 5.180312 0
M  V30 36 H 3.791230 4.936662 4.466617 0
M  V30 37 H 2.510803 7.192541 3.505301 0
M  V30 38 H 4.063375 7.184424 2.502688 0
M  V30 39 H 2.500059 2.865553 1.488475 0
M  V30 40 H 1.769473 0.502354 0.160011 0
M  V30 41 H 0.102757 -1.277691 0.382770 0
M  V30 42 H -0.219530 -2.895747 1.581550 0
M  V30 43 H 0.335237 -5.758963 2.115225 0
M  V30 44 H -0.338693 -4.562010 3.220630 0
M  V30 45 H -2.599941 -4.027382 3.342245 0
M  V30 46 H -4.892959 -4.723025 3.216561 0
M  V30 47 H -7.337733 -8.110228 1.229846 0
M  V30 48 H -3.761578 -7.808339 0.515261 0
M  V30 49 H -1.392263 -7.052250 0.678783 0
M  V30 50 H 1.586881 -2.064071 -4.731246 0
M  V30 51 H 0.208300 -0.944204 -4.666796 0
M  V30 52 H 1.883497 -0.432267 -4.092845 0
M  V30 53 H -0.476933 1.022689 -3.412382 0
M  V30 54 H -0.382191 3.505017 -3.095172 0
M  V30 55 H 0.640156 5.524307 -1.322517 0
M  V30 END ATOM
M  V30 BEGIN BOND
M  V30 1 1 1 2
M  V30 2 1 2 3
M  V30 3 1 3 4
M  V30 4 2 4 5
M  V30 5 1 4 6
M  V30 6 2 6 7
M  V30 7 1 7 8
M  V30 8 2 8 9
M  V30 9 1 9 10
M  V30 10 1 10 11
M  V30 11 2 11 12
M  V30 12 1 12 13
M  V30 13 1 13 14
M  V30 14 2 14 15
M  V30 15 1 14 16
M  V30 16 1 16 17
M  V30 17 1 17 18
M  V30 18 2 18 19
M  V30 19 1 19 20
M  V30 20 2 20 21
M  V30 21 1 21 22
M  V30 22 2 22 23
M  V30 23 1 22 24
M  V30 24 1 21 25
M  V30 25 2 25 26
M  V30 26 2 13 27
M  V30 27 1 27 28
M  V30 28 1 28 29
M  V30 29 2 10 30
M  V30 30 1 30 31
M  V30 31 2 31 32
M  V30 32 1 32 33
M  V30 33 1 33 6
M  V30 34 1 32 8
M  V30 35 1 28 11
M  V30 36 1 26 18
M  V30 37 1 1 34
M  V30 38 1 1 35
M  V30 39 1 1 36
M  V30 40 1 2 37
M  V30 41 1 2 38
M  V30 42 1 7 39
M  V30 43 1 9 40
M  V30 44 1 12 41
M  V30 45 1 16 42
M  V30 46 1 17 43
M  V30 47 1 17 44
M  V30 48 1 19 45
M  V30 49 1 20 46
M  V30 50 1 24 47
M  V30 51 1 25 48
M  V30 52 1 26 49
M  V30 53 1 29 50
M  V30 54 1 29 51
M  V30 55 1 29 52
M  V30 56 1 30 53
M  V30 57 1 31 54
M  V30 58 1 33 55
M  V30 END BOND
M  V30 END CTAB
M  END
>  <Dataset>  (6) 
ChEMBL_PKA

>  <Ligand_Instance>  (6) 
nan

>  <PDB_ID>  (6) 
nan

>  <Standardized_SMILES>  (6) 
CCOC(=O)c1cc2cc(-c3cc(C(=O)NCc4ccc(C(=O)O)cc4)nn3C)ccc2[nH]1

>  <Name>  (6) 
BI 4394

>  <Pocket>  (6) 
nan

>  <ATP_Site>  (6) 
nan

>  <Peripheral>  (6) 
nan

>  <Num_H_Atoms_ProtBoundConf>  (6) 
nan

>  <Num_Resolved_Atoms>  (6) 
nan

>  <Num_Not_Resolved_Atoms>  (6) 
nan

>  <2D_Mol_H>  (6) 
<rdkit.Chem.rdchem.Mol object at 0x72a239101a80>

>  <MW>  (6) 
446.463

>  <HBA>  (6) 
7

>  <HBD>  (6) 
3

>  <LogP>  (6) 
3.3733

>  <NRB>  (6) 
9

>  <TPSA>  (6) 
126.31

>  <Num_Heavy_Atoms>  (6) 
33

>  <Ro5>  (6) 
[True, True, True, True, True, True]

>  <Ro5_Fulfilled>  (6) 
True

>  <Ro3>  (6) 
[False, False, True, False]

>  <Ro3_Fulfilled>  (6) 
False

>  <Fsp3>  (6) 
0.166667

>  <Fsp3_0.42>  (6) 
False

>  <Fsp3_0.45>  (6) 
False

>  <Stereogenic_Carbons>  (6) 
0

>  <C_Atoms>  (6) 
24

>  <FCStereo>  (6) 
0.0

>  <SPS>  (6) 
358

>  <nSPS>  (6) 
10.848485

>  <PBF>  (6) 
1.201906

>  <PBF_0.6>  (6) 
True

>  <nPBF>  (6) 
0.036421

>  <nPBF_0.016>  (6) 
True

>  <PMI1>  (6) 
2701.643372

>  <PMI2>  (6) 
13335.931545

>  <PMI3>  (6) 
14452.167995

>  <NPR1>  (6) 
0.186937

>  <NPR2>  (6) 
0.922763

>  <Sum_NPR>  (6) 
1.1097

>  <Sum_NPR_1.07>  (6) 
True

>  <Sum_NPR_1.2>  (6) 
False

>  <MaxAbsEStateIndex>  (6) 
12.604799

>  <MaxEStateIndex>  (6) 
12.604799

>  <MinAbsEStateIndex>  (6) 
0.188159

>  <MinEStateIndex>  (6) 
-0.998571

>  <qed>  (6) 
0.37376

>  <MolWt>  (6) 
446.463

>  <HeavyAtomMolWt>  (6) 
424.287

>  <ExactMolWt>  (6) 
446.15902

>  <NumValenceElectrons>  (6) 
168

>  <NumRadicalElectrons>  (6) 
0

>  <MaxPartialCharge>  (6) 
0.354256

>  <MinPartialCharge>  (6) 
-0.477639

>  <MaxAbsPartialCharge>  (6) 
0.477639

>  <MinAbsPartialCharge>  (6) 
0.354256

>  <FpDensityMorgan1>  (6) 
1.090909

>  <FpDensityMorgan2>  (6) 
1.848485

>  <FpDensityMorgan3>  (6) 
2.545455

>  <BCUT2D_MWHI>  (6) 
16.532807

>  <BCUT2D_MWLOW>  (6) 
10.091733

>  <BCUT2D_CHGHI>  (6) 
2.156947

>  <BCUT2D_CHGLO>  (6) 
-2.035253

>  <BCUT2D_LOGPHI>  (6) 
2.255012

>  <BCUT2D_LOGPLOW>  (6) 
-2.229618

>  <BCUT2D_MRHI>  (6) 
5.966326

>  <BCUT2D_MRLOW>  (6) 
0.051961

>  <AvgIpc>  (6) 
3.406986

>  <BalabanJ>  (6) 
1.498369

>  <BertzCT>  (6) 
1351.202062

>  <Chi0>  (6) 
23.534805

>  <Chi0n>  (6) 
18.085

>  <Chi0v>  (6) 
18.085

>  <Chi1>  (6) 
15.850576

>  <Chi1n>  (6) 
10.301521

>  <Chi1v>  (6) 
10.301521

>  <Chi2n>  (6) 
7.428691

>  <Chi2v>  (6) 
7.428691

>  <Chi3n>  (6) 
5.178261

>  <Chi3v>  (6) 
5.178261

>  <Chi4n>  (6) 
3.497238

>  <Chi4v>  (6) 
3.497238

>  <HallKierAlpha>  (6) 
-4.4

>  <Ipc>  (6) 
34541849.960264

>  <Kappa1>  (6) 
21.817754

>  <Kappa2>  (6) 
8.992916

>  <Kappa3>  (6) 
4.615729

>  <LabuteASA>  (6) 
188.540452

>  <PEOE_VSA1>  (6) 
20.144157

>  <PEOE_VSA10>  (6) 
5.693928

>  <PEOE_VSA11>  (6) 
5.693928

>  <PEOE_VSA12>  (6) 
0.0

>  <PEOE_VSA13>  (6) 
5.90718

>  <PEOE_VSA14>  (6) 
11.938611

>  <PEOE_VSA2>  (6) 
9.47634

>  <PEOE_VSA3>  (6) 
9.589074

>  <PEOE_VSA4>  (6) 
5.098682

>  <PEOE_VSA5>  (6) 
0.0

>  <PEOE_VSA6>  (6) 
18.199101

>  <PEOE_VSA7>  (6) 
48.885391

>  <PEOE_VSA8>  (6) 
30.058805

>  <PEOE_VSA9>  (6) 
17.864261

>  <SMR_VSA1>  (6) 
24.227002

>  <SMR_VSA10>  (6) 
28.748715

>  <SMR_VSA2>  (6) 
0.0

>  <SMR_VSA3>  (6) 
20.081252

>  <SMR_VSA4>  (6) 
7.047672

>  <SMR_VSA5>  (6) 
13.468494

>  <SMR_VSA6>  (6) 
6.606882

>  <SMR_VSA7>  (6) 
77.112063

>  <SMR_VSA8>  (6) 
0.0

>  <SMR_VSA9>  (6) 
11.257379

>  <SlogP_VSA1>  (6) 
5.316789

>  <SlogP_VSA10>  (6) 
0.0

>  <SlogP_VSA11>  (6) 
0.0

>  <SlogP_VSA12>  (6) 
0.0

>  <SlogP_VSA2>  (6) 
44.323663

>  <SlogP_VSA3>  (6) 
18.329291

>  <SlogP_VSA4>  (6) 
0.0

>  <SlogP_VSA5>  (6) 
43.822108

>  <SlogP_VSA6>  (6) 
54.597304

>  <SlogP_VSA7>  (6) 
0.0

>  <SlogP_VSA8>  (6) 
22.160304

>  <SlogP_VSA9>  (6) 
0.0

>  <EState_VSA1>  (6) 
11.938611

>  <EState_VSA10>  (6) 
14.383612

>  <EState_VSA11>  (6) 
0.0

>  <EState_VSA2>  (6) 
23.709316

>  <EState_VSA3>  (6) 
12.30081

>  <EState_VSA4>  (6) 
27.723756

>  <EState_VSA5>  (6) 
12.132734

>  <EState_VSA6>  (6) 
42.91868

>  <EState_VSA7>  (6) 
18.199101

>  <EState_VSA8>  (6) 
15.399449

>  <EState_VSA9>  (6) 
9.84339

>  <VSA_EState1>  (6) 
6.659194

>  <VSA_EState10>  (6) 
0.0

>  <VSA_EState2>  (6) 
38.565772

>  <VSA_EState3>  (6) 
16.92226

>  <VSA_EState4>  (6) 
3.99291

>  <VSA_EState5>  (6) 
-1.749662

>  <VSA_EState6>  (6) 
15.391781

>  <VSA_EState7>  (6) 
0.0

>  <VSA_EState8>  (6) 
2.298997

>  <VSA_EState9>  (6) 
1.752081

>  <FractionCSP3>  (6) 
0.166667

>  <HeavyAtomCount>  (6) 
33

>  <NHOHCount>  (6) 
3

>  <NOCount>  (6) 
9

>  <NumAliphaticCarbocycles>  (6) 
0

>  <NumAliphaticHeterocycles>  (6) 
0

>  <NumAliphaticRings>  (6) 
0

>  <NumAromaticCarbocycles>  (6) 
2

>  <NumAromaticHeterocycles>  (6) 
2

>  <NumAromaticRings>  (6) 
4

>  <NumHAcceptors>  (6) 
6

>  <NumHDonors>  (6) 
3

>  <NumHeteroatoms>  (6) 
9

>  <NumRotatableBonds>  (6) 
7

>  <NumSaturatedCarbocycles>  (6) 
0

>  <NumSaturatedHeterocycles>  (6) 
0

>  <NumSaturatedRings>  (6) 
0

>  <RingCount>  (6) 
4

>  <MolLogP>  (6) 
3.3733

>  <MolMR>  (6) 
121.0287

>  <fr_Al_COO>  (6) 
0

>  <fr_Al_OH>  (6) 
0

>  <fr_Al_OH_noTert>  (6) 
0

>  <fr_ArN>  (6) 
0

>  <fr_Ar_COO>  (6) 
1

>  <fr_Ar_N>  (6) 
3

>  <fr_Ar_NH>  (6) 
1

>  <fr_Ar_OH>  (6) 
0

>  <fr_COO>  (6) 
1

>  <fr_COO2>  (6) 
1

>  <fr_C_O>  (6) 
3

>  <fr_C_O_noCOO>  (6) 
2

>  <fr_C_S>  (6) 
0

>  <fr_HOCCN>  (6) 
0

>  <fr_Imine>  (6) 
0

>  <fr_NH0>  (6) 
2

>  <fr_NH1>  (6) 
2

>  <fr_NH2>  (6) 
0

>  <fr_N_O>  (6) 
0

>  <fr_Ndealkylation1>  (6) 
0

>  <fr_Ndealkylation2>  (6) 
0

>  <fr_Nhpyrrole>  (6) 
1

>  <fr_SH>  (6) 
0

>  <fr_aldehyde>  (6) 
0

>  <fr_alkyl_carbamate>  (6) 
0

>  <fr_alkyl_halide>  (6) 
0

>  <fr_allylic_oxid>  (6) 
0

>  <fr_amide>  (6) 
1

>  <fr_amidine>  (6) 
0

>  <fr_aniline>  (6) 
0

>  <fr_aryl_methyl>  (6) 
1

>  <fr_azide>  (6) 
0

>  <fr_azo>  (6) 
0

>  <fr_barbitur>  (6) 
0

>  <fr_benzene>  (6) 
2

>  <fr_benzodiazepine>  (6) 
0

>  <fr_bicyclic>  (6) 
1

>  <fr_diazo>  (6) 
0

>  <fr_dihydropyridine>  (6) 
0

>  <fr_epoxide>  (6) 
0

>  <fr_ester>  (6) 
1

>  <fr_ether>  (6) 
1

>  <fr_furan>  (6) 
0

>  <fr_guanido>  (6) 
0

>  <fr_halogen>  (6) 
0

>  <fr_hdrzine>  (6) 
0

>  <fr_hdrzone>  (6) 
0

>  <fr_imidazole>  (6) 
0

>  <fr_imide>  (6) 
0

>  <fr_isocyan>  (6) 
0

>  <fr_isothiocyan>  (6) 
0

>  <fr_ketone>  (6) 
0

>  <fr_ketone_Topliss>  (6) 
0

>  <fr_lactam>  (6) 
0

>  <fr_lactone>  (6) 
0

>  <fr_methoxy>  (6) 
0

>  <fr_morpholine>  (6) 
0

>  <fr_nitrile>  (6) 
0

>  <fr_nitro>  (6) 
0

>  <fr_nitro_arom>  (6) 
0

>  <fr_nitro_arom_nonortho>  (6) 
0

>  <fr_nitroso>  (6) 
0

>  <fr_oxazole>  (6) 
0

>  <fr_oxime>  (6) 
0

>  <fr_para_hydroxylation>  (6) 
0

>  <fr_phenol>  (6) 
0

>  <fr_phenol_noOrthoHbond>  (6) 
0

>  <fr_phos_acid>  (6) 
0

>  <fr_phos_ester>  (6) 
0

>  <fr_piperdine>  (6) 
0

>  <fr_piperzine>  (6) 
0

>  <fr_priamide>  (6) 
0

>  <fr_prisulfonamd>  (6) 
0

>  <fr_pyridine>  (6) 
0

>  <fr_quatN>  (6) 
0

>  <fr_sulfide>  (6) 
0

>  <fr_sulfonamd>  (6) 
0

>  <fr_sulfone>  (6) 
0

>  <fr_term_acetylene>  (6) 
0

>  <fr_tetrazole>  (6) 
0

>  <fr_thiazole>  (6) 
0

>  <fr_thiocyan>  (6) 
0

>  <fr_thiophene>  (6) 
0

>  <fr_unbrch_alkane>  (6) 
0

>  <fr_urea>  (6) 
0

>  <NP_Likeness>  (6) 
-1.301463

$$$$
CHEMBL1971943
     RDKit          3D

  0  0  0  0  0  0  0  0  0  0999 V3000
M  V30 BEGIN CTAB
M  V30 COUNTS 41 44 0 0 0
M  V30 BEGIN ATOM
M  V30 1 C 1.127475 -4.336777 0.503647 0
M  V30 2 C 2.447941 -3.878504 0.059942 0
M  V30 3 C 3.661821 -4.380562 0.461556 0
M  V30 4 N 4.623863 -3.711912 -0.197713 0
M  V30 5 C 4.107504 -2.787096 -1.020046 0
M  V30 6 N 4.598724 -1.867983 -1.900364 0
M  V30 7 C 3.708281 -1.088605 -2.582448 0
M  V30 8 C 2.322596 -1.218847 -2.392592 0
M  V30 9 C 1.797706 -2.163288 -1.485812 0
M  V30 10 O 0.466646 -1.988159 -1.576911 0
M  V30 11 C -0.365858 -1.601554 -0.580846 0
M  V30 12 C -0.026186 -0.269733 -0.272575 0
M  V30 13 F 0.933244 0.534739 -0.813572 0
M  V30 14 C -0.694296 0.460758 0.724744 0
M  V30 15 C -1.724116 -0.102627 1.453482 0
M  V30 16 N -2.422382 0.594326 2.475773 0
M  V30 17 C -2.184539 1.940732 2.852033 0
M  V30 18 C -3.026935 2.833605 2.201639 0
M  V30 19 C -2.912727 4.191969 2.463148 0
M  V30 20 Cl -3.976025 5.335953 1.647697 0
M  V30 21 N -1.983774 4.651700 3.349383 0
M  V30 22 C -1.174873 3.755508 3.969149 0
M  V30 23 N -0.165187 4.121481 4.913742 0
M  V30 24 N -1.270355 2.426188 3.728001 0
M  V30 25 C -2.065278 -1.395274 1.163563 0
M  V30 26 C -1.396362 -2.073000 0.189548 0
M  V30 27 F -1.766855 -3.325642 -0.136175 0
M  V30 28 C 2.753276 -2.899306 -0.849710 0
M  V30 29 H 0.467533 -4.539053 -0.369269 0
M  V30 30 H 0.641459 -3.746213 1.279625 0
M  V30 31 H 1.277106 -5.354667 0.959287 0
M  V30 32 H 3.755879 -5.177077 1.187355 0
M  V30 33 H 5.659533 -3.860007 -0.111963 0
M  V30 34 H 4.278390 -0.430731 -3.222375 0
M  V30 35 H 1.895312 -0.473948 -3.076339 0
M  V30 36 H -0.493142 1.486619 1.021084 0
M  V30 37 H -3.173973 0.112138 3.010200 0
M  V30 38 H -3.795633 2.554006 1.479999 0
M  V30 39 H -0.282781 4.373085 5.940812 0
M  V30 40 H 0.771438 4.111800 4.439399 0
M  V30 41 H -2.841615 -1.910092 1.668987 0
M  V30 END ATOM
M  V30 BEGIN BOND
M  V30 1 1 1 2
M  V30 2 2 2 3
M  V30 3 1 3 4
M  V30 4 1 4 5
M  V30 5 2 5 6
M  V30 6 1 6 7
M  V30 7 2 7 8
M  V30 8 1 8 9
M  V30 9 1 9 10
M  V30 10 1 10 11
M  V30 11 2 11 12
M  V30 12 1 12 13
M  V30 13 1 12 14
M  V30 14 2 14 15
M  V30 15 1 15 16
M  V30 16 1 16 17
M  V30 17 2 17 18
M  V30 18 1 18 19
M  V30 19 1 19 20
M  V30 20 2 19 21
M  V30 21 1 21 22
M  V30 22 1 22 23
M  V30 23 2 22 24
M  V30 24 1 15 25
M  V30 25 2 25 26
M  V30 26 1 26 27
M  V30 27 2 9 28
M  V30 28 1 28 2
M  V30 29 1 28 5
M  V30 30 1 26 11
M  V30 31 1 24 17
M  V30 32 1 1 29
M  V30 33 1 1 30
M  V30 34 1 1 31
M  V30 35 1 3 32
M  V30 36 1 4 33
M  V30 37 1 7 34
M  V30 38 1 8 35
M  V30 39 1 14 36
M  V30 40 1 16 37
M  V30 41 1 18 38
M  V30 42 1 23 39
M  V30 43 1 23 40
M  V30 44 1 25 41
M  V30 END BOND
M  V30 END CTAB
M  END
>  <Dataset>  (7) 
ChEMBL_PKA

>  <Ligand_Instance>  (7) 
nan

>  <PDB_ID>  (7) 
nan

>  <Standardized_SMILES>  (7) 
Cc1c[nH]c2nccc(Oc3c(F)cc(Nc4cc(Cl)nc(N)n4)cc3F)c12

>  <Name>  (7) 
BAY-549

>  <Pocket>  (7) 
nan

>  <ATP_Site>  (7) 
nan

>  <Peripheral>  (7) 
nan

>  <Num_H_Atoms_ProtBoundConf>  (7) 
nan

>  <Num_Resolved_Atoms>  (7) 
nan

>  <Num_Not_Resolved_Atoms>  (7) 
nan

>  <2D_Mol_H>  (7) 
<rdkit.Chem.rdchem.Mol object at 0x72a239101b60>

>  <MW>  (7) 
402.792

>  <HBA>  (7) 
6

>  <HBD>  (7) 
3

>  <LogP>  (7) 
4.71102

>  <NRB>  (7) 
6

>  <TPSA>  (7) 
101.74

>  <Num_Heavy_Atoms>  (7) 
28

>  <Ro5>  (7) 
[True, True, True, True, True, True]

>  <Ro5_Fulfilled>  (7) 
True

>  <Ro3>  (7) 
[False, False, True, False]

>  <Ro3_Fulfilled>  (7) 
False

>  <Fsp3>  (7) 
0.055556

>  <Fsp3_0.42>  (7) 
False

>  <Fsp3_0.45>  (7) 
False

>  <Stereogenic_Carbons>  (7) 
0

>  <C_Atoms>  (7) 
18

>  <FCStereo>  (7) 
0.0

>  <SPS>  (7) 
308

>  <nSPS>  (7) 
11.0

>  <PBF>  (7) 
1.222421

>  <PBF_0.6>  (7) 
True

>  <nPBF>  (7) 
0.043658

>  <nPBF_0.016>  (7) 
True

>  <PMI1>  (7) 
1597.221938

>  <PMI2>  (7) 
7178.4044

>  <PMI3>  (7) 
7466.784615

>  <NPR1>  (7) 
0.21391

>  <NPR2>  (7) 
0.961378

>  <Sum_NPR>  (7) 
1.175289

>  <Sum_NPR_1.07>  (7) 
True

>  <Sum_NPR_1.2>  (7) 
False

>  <MaxAbsEStateIndex>  (7) 
14.572516

>  <MaxEStateIndex>  (7) 
14.572516

>  <MinAbsEStateIndex>  (7) 
0.069932

>  <MinEStateIndex>  (7) 
-0.894652

>  <qed>  (7) 
0.427117

>  <MolWt>  (7) 
402.792

>  <HeavyAtomMolWt>  (7) 
389.688

>  <ExactMolWt>  (7) 
402.080743

>  <NumValenceElectrons>  (7) 
142

>  <NumRadicalElectrons>  (7) 
0

>  <MaxPartialCharge>  (7) 
0.222909

>  <MinPartialCharge>  (7) 
-0.450327

>  <MaxAbsPartialCharge>  (7) 
0.450327

>  <MinAbsPartialCharge>  (7) 
0.222909

>  <FpDensityMorgan1>  (7) 
1.178571

>  <FpDensityMorgan2>  (7) 
1.928571

>  <FpDensityMorgan3>  (7) 
2.642857

>  <BCUT2D_MWHI>  (7) 
35.495697

>  <BCUT2D_MWLOW>  (7) 
10.193859

>  <BCUT2D_CHGHI>  (7) 
2.168891

>  <BCUT2D_CHGLO>  (7) 
-2.119296

>  <BCUT2D_LOGPHI>  (7) 
2.348633

>  <BCUT2D_LOGPLOW>  (7) 
-2.014077

>  <BCUT2D_MRHI>  (7) 
6.292615

>  <BCUT2D_MRLOW>  (7) 
0.410747

>  <AvgIpc>  (7) 
2.992036

>  <BalabanJ>  (7) 
1.666125

>  <BertzCT>  (7) 
1152.878567

>  <Chi0>  (7) 
19.836134

>  <Chi0n>  (7) 
14.425234

>  <Chi0v>  (7) 
15.181163

>  <Chi1>  (7) 
13.401887

>  <Chi1n>  (7) 
8.071513

>  <Chi1v>  (7) 
8.449477

>  <Chi2n>  (7) 
5.934569

>  <Chi2v>  (7) 
6.321817

>  <Chi3n>  (7) 
3.92737

>  <Chi3v>  (7) 
4.120994

>  <Chi4n>  (7) 
2.755083

>  <Chi4v>  (7) 
2.945024

>  <HallKierAlpha>  (7) 
-3.46

>  <Ipc>  (7) 
2509180.945232

>  <Kappa1>  (7) 
17.929146

>  <Kappa2>  (7) 
6.930767

>  <Kappa3>  (7) 
3.390264

>  <LabuteASA>  (7) 
162.097938

>  <PEOE_VSA1>  (7) 
20.771298

>  <PEOE_VSA10>  (7) 
22.367662

>  <PEOE_VSA11>  (7) 
17.383954

>  <PEOE_VSA12>  (7) 
5.948339

>  <PEOE_VSA13>  (7) 
0.0

>  <PEOE_VSA14>  (7) 
0.0

>  <PEOE_VSA2>  (7) 
0.0

>  <PEOE_VSA3>  (7) 
18.748787

>  <PEOE_VSA4>  (7) 
4.983979

>  <PEOE_VSA5>  (7) 
0.0

>  <PEOE_VSA6>  (7) 
11.60094

>  <PEOE_VSA7>  (7) 
18.553556

>  <PEOE_VSA8>  (7) 
36.280175

>  <PEOE_VSA9>  (7) 
5.386224

>  <SMR_VSA1>  (7) 
13.517693

>  <SMR_VSA10>  (7) 
40.08793

>  <SMR_VSA2>  (7) 
0.0

>  <SMR_VSA3>  (7) 
19.935914

>  <SMR_VSA4>  (7) 
0.0

>  <SMR_VSA5>  (7) 
6.923737

>  <SMR_VSA6>  (7) 
11.050456

>  <SMR_VSA7>  (7) 
59.010158

>  <SMR_VSA8>  (7) 
0.0

>  <SMR_VSA9>  (7) 
11.499024

>  <SlogP_VSA1>  (7) 
15.787319

>  <SlogP_VSA10>  (7) 
26.234418

>  <SlogP_VSA11>  (7) 
11.499024

>  <SlogP_VSA12>  (7) 
11.60094

>  <SlogP_VSA2>  (7) 
19.935914

>  <SlogP_VSA3>  (7) 
0.0

>  <SlogP_VSA4>  (7) 
18.558179

>  <SlogP_VSA5>  (7) 
5.563451

>  <SlogP_VSA6>  (7) 
36.659155

>  <SlogP_VSA7>  (7) 
5.15311

>  <SlogP_VSA8>  (7) 
11.033401

>  <SlogP_VSA9>  (7) 
0.0

>  <EState_VSA1>  (7) 
17.383954

>  <EState_VSA10>  (7) 
8.78083

>  <EState_VSA11>  (7) 
0.0

>  <EState_VSA2>  (7) 
28.35621

>  <EState_VSA3>  (7) 
11.033401

>  <EState_VSA4>  (7) 
17.696186

>  <EState_VSA5>  (7) 
12.263211

>  <EState_VSA6>  (7) 
12.263211

>  <EState_VSA7>  (7) 
6.923737

>  <EState_VSA8>  (7) 
25.252703

>  <EState_VSA9>  (7) 
22.07147

>  <VSA_EState1>  (7) 
34.676325

>  <VSA_EState10>  (7) 
5.79855

>  <VSA_EState2>  (7) 
14.742313

>  <VSA_EState3>  (7) 
3.471328

>  <VSA_EState4>  (7) 
7.020264

>  <VSA_EState5>  (7) 
-1.900664

>  <VSA_EState6>  (7) 
5.0698

>  <VSA_EState7>  (7) 
3.227584

>  <VSA_EState8>  (7) 
1.838945

>  <VSA_EState9>  (7) 
0.0

>  <FractionCSP3>  (7) 
0.055556

>  <HeavyAtomCount>  (7) 
28

>  <NHOHCount>  (7) 
4

>  <NOCount>  (7) 
7

>  <NumAliphaticCarbocycles>  (7) 
0

>  <NumAliphaticHeterocycles>  (7) 
0

>  <NumAliphaticRings>  (7) 
0

>  <NumAromaticCarbocycles>  (7) 
1

>  <NumAromaticHeterocycles>  (7) 
3

>  <NumAromaticRings>  (7) 
4

>  <NumHAcceptors>  (7) 
6

>  <NumHDonors>  (7) 
3

>  <NumHeteroatoms>  (7) 
10

>  <NumRotatableBonds>  (7) 
4

>  <NumSaturatedCarbocycles>  (7) 
0

>  <NumSaturatedHeterocycles>  (7) 
0

>  <NumSaturatedRings>  (7) 
0

>  <RingCount>  (7) 
4

>  <MolLogP>  (7) 
4.71102

>  <MolMR>  (7) 
101.9998

>  <fr_Al_COO>  (7) 
0

>  <fr_Al_OH>  (7) 
0

>  <fr_Al_OH_noTert>  (7) 
0

>  <fr_ArN>  (7) 
1

>  <fr_Ar_COO>  (7) 
0

>  <fr_Ar_N>  (7) 
4

>  <fr_Ar_NH>  (7) 
1

>  <fr_Ar_OH>  (7) 
0

>  <fr_COO>  (7) 
0

>  <fr_COO2>  (7) 
0

>  <fr_C_O>  (7) 
0

>  <fr_C_O_noCOO>  (7) 
0

>  <fr_C_S>  (7) 
0

>  <fr_HOCCN>  (7) 
0

>  <fr_Imine>  (7) 
0

>  <fr_NH0>  (7) 
3

>  <fr_NH1>  (7) 
2

>  <fr_NH2>  (7) 
1

>  <fr_N_O>  (7) 
0

>  <fr_Ndealkylation1>  (7) 
0

>  <fr_Ndealkylation2>  (7) 
0

>  <fr_Nhpyrrole>  (7) 
1

>  <fr_SH>  (7) 
0

>  <fr_aldehyde>  (7) 
0

>  <fr_alkyl_carbamate>  (7) 
0

>  <fr_alkyl_halide>  (7) 
0

>  <fr_allylic_oxid>  (7) 
0

>  <fr_amide>  (7) 
0

>  <fr_amidine>  (7) 
0

>  <fr_aniline>  (7) 
3

>  <fr_aryl_methyl>  (7) 
1

>  <fr_azide>  (7) 
0

>  <fr_azo>  (7) 
0

>  <fr_barbitur>  (7) 
0

>  <fr_benzene>  (7) 
1

>  <fr_benzodiazepine>  (7) 
0

>  <fr_bicyclic>  (7) 
1

>  <fr_diazo>  (7) 
0

>  <fr_dihydropyridine>  (7) 
0

>  <fr_epoxide>  (7) 
0

>  <fr_ester>  (7) 
0

>  <fr_ether>  (7) 
1

>  <fr_furan>  (7) 
0

>  <fr_guanido>  (7) 
0

>  <fr_halogen>  (7) 
3

>  <fr_hdrzine>  (7) 
0

>  <fr_hdrzone>  (7) 
0

>  <fr_imidazole>  (7) 
0

>  <fr_imide>  (7) 
0

>  <fr_isocyan>  (7) 
0

>  <fr_isothiocyan>  (7) 
0

>  <fr_ketone>  (7) 
0

>  <fr_ketone_Topliss>  (7) 
0

>  <fr_lactam>  (7) 
0

>  <fr_lactone>  (7) 
0

>  <fr_methoxy>  (7) 
0

>  <fr_morpholine>  (7) 
0

>  <fr_nitrile>  (7) 
0

>  <fr_nitro>  (7) 
0

>  <fr_nitro_arom>  (7) 
0

>  <fr_nitro_arom_nonortho>  (7) 
0

>  <fr_nitroso>  (7) 
0

>  <fr_oxazole>  (7) 
0

>  <fr_oxime>  (7) 
0

>  <fr_para_hydroxylation>  (7) 
0

>  <fr_phenol>  (7) 
0

>  <fr_phenol_noOrthoHbond>  (7) 
0

>  <fr_phos_acid>  (7) 
0

>  <fr_phos_ester>  (7) 
0

>  <fr_piperdine>  (7) 
0

>  <fr_piperzine>  (7) 
0

>  <fr_priamide>  (7) 
0

>  <fr_prisulfonamd>  (7) 
0

>  <fr_pyridine>  (7) 
1

>  <fr_quatN>  (7) 
0

>  <fr_sulfide>  (7) 
0

>  <fr_sulfonamd>  (7) 
0

>  <fr_sulfone>  (7) 
0

>  <fr_term_acetylene>  (7) 
0

>  <fr_tetrazole>  (7) 
0

>  <fr_thiazole>  (7) 
0

>  <fr_thiocyan>  (7) 
0

>  <fr_thiophene>  (7) 
0

>  <fr_unbrch_alkane>  (7) 
0

>  <fr_urea>  (7) 
0

>  <NP_Likeness>  (7) 
-1.02977

$$$$
CHEMBL2105759
     RDKit          3D

  0  0  0  0  0  0  0  0  0  0999 V3000
M  V30 BEGIN CTAB
M  V30 COUNTS 43 46 0 0 0
M  V30 BEGIN ATOM
M  V30 1 C 0.199708 -5.183415 1.328017 0
M  V30 2 C 0.214952 -4.322446 0.059440 0
M  V30 3 S 1.704596 -3.416024 0.015751 0
M  V30 4 O 2.835633 -4.435358 -0.038645 0
M  V30 5 O 1.888712 -2.654899 1.297554 0
M  V30 6 N 1.890554 -2.399911 -1.333810 0
M  V30 7 C 0.942164 -1.348821 -1.519290 0
M  V30 8 C 1.933515 -0.310016 -1.082989 0
M  V30 9 C 2.036800 0.853584 -2.018050 0
M  V30 10 C 2.442142 0.512925 -3.360331 0
M  V30 11 N 2.755042 0.232317 -4.435004 0
M  V30 12 N 1.794889 0.164786 0.281152 0
M  V30 13 C 0.565781 0.286509 0.818667 0
M  V30 14 C 0.677260 0.757082 2.131471 0
M  V30 15 C -0.378531 1.044621 3.110468 0
M  V30 16 N -0.257449 0.630631 4.386543 0
M  V30 17 C -1.182176 0.857799 5.334030 0
M  V30 18 N -2.288323 1.541904 4.964758 0
M  V30 19 C -2.478937 1.986189 3.711760 0
M  V30 20 N -3.492818 2.678964 3.133724 0
M  V30 21 C -3.177371 2.870701 1.829443 0
M  V30 22 C -1.941537 2.298104 1.543439 0
M  V30 23 C -1.515361 1.748481 2.728110 0
M  V30 24 C 2.055596 0.904521 2.331427 0
M  V30 25 N 2.682738 0.535622 1.189836 0
M  V30 26 C 2.929897 -1.421407 -1.270993 0
M  V30 27 H 0.517773 -6.219062 1.125721 0
M  V30 28 H 0.906475 -4.771723 2.078300 0
M  V30 29 H -0.799265 -5.192916 1.779899 0
M  V30 30 H -0.702673 -3.715041 0.052939 0
M  V30 31 H 0.130027 -5.057826 -0.766892 0
M  V30 32 H 0.031195 -1.329631 -0.939770 0
M  V30 33 H 0.704593 -1.236269 -2.607225 0
M  V30 34 H 1.016786 1.319346 -2.082962 0
M  V30 35 H 2.677118 1.640730 -1.540549 0
M  V30 36 H -0.425713 0.098783 0.443957 0
M  V30 37 H -1.054727 0.512202 6.348616 0
M  V30 38 H -4.386045 3.028244 3.575753 0
M  V30 39 H -3.728624 3.378868 1.036003 0
M  V30 40 H -1.417158 2.278476 0.608260 0
M  V30 41 H 2.542816 1.250145 3.231860 0
M  V30 42 H 3.607932 -1.474805 -0.388045 0
M  V30 43 H 3.516981 -1.301346 -2.203554 0
M  V30 END ATOM
M  V30 BEGIN BOND
M  V30 1 1 1 2
M  V30 2 1 2 3
M  V30 3 2 3 4
M  V30 4 2 3 5
M  V30 5 1 3 6
M  V30 6 1 6 7
M  V30 7 1 7 8
M  V30 8 1 8 9
M  V30 9 1 9 10
M  V30 10 3 10 11
M  V30 11 1 8 12
M  V30 12 1 12 13
M  V30 13 2 13 14
M  V30 14 1 14 15
M  V30 15 2 15 16
M  V30 16 1 16 17
M  V30 17 2 17 18
M  V30 18 1 18 19
M  V30 19 1 19 20
M  V30 20 1 20 21
M  V30 21 2 21 22
M  V30 22 1 22 23
M  V30 23 1 14 24
M  V30 24 2 24 25
M  V30 25 1 8 26
M  V30 26 1 26 6
M  V30 27 1 25 12
M  V30 28 1 23 15
M  V30 29 2 23 19
M  V30 30 1 1 27
M  V30 31 1 1 28
M  V30 32 1 1 29
M  V30 33 1 2 30
M  V30 34 1 2 31
M  V30 35 1 7 32
M  V30 36 1 7 33
M  V30 37 1 9 34
M  V30 38 1 9 35
M  V30 39 1 13 36
M  V30 40 1 17 37
M  V30 41 1 20 38
M  V30 42 1 21 39
M  V30 43 1 22 40
M  V30 44 1 24 41
M  V30 45 1 26 42
M  V30 46 1 26 43
M  V30 END BOND
M  V30 END CTAB
M  END
>  <Dataset>  (8) 
ChEMBL_PKA

>  <Ligand_Instance>  (8) 
nan

>  <PDB_ID>  (8) 
nan

>  <Standardized_SMILES>  (8) 
CCS(=O)(=O)N1CC(CC#N)(n2cc(-c3ncnc4[nH]ccc34)cn2)C1

>  <Name>  (8) 
BARICITINIB

>  <Pocket>  (8) 
nan

>  <ATP_Site>  (8) 
nan

>  <Peripheral>  (8) 
nan

>  <Num_H_Atoms_ProtBoundConf>  (8) 
nan

>  <Num_Resolved_Atoms>  (8) 
nan

>  <Num_Not_Resolved_Atoms>  (8) 
nan

>  <2D_Mol_H>  (8) 
<rdkit.Chem.rdchem.Mol object at 0x72a239101c40>

>  <MW>  (8) 
371.426

>  <HBA>  (8) 
7

>  <HBD>  (8) 
1

>  <LogP>  (8) 
1.09568

>  <NRB>  (8) 
6

>  <TPSA>  (8) 
120.56

>  <Num_Heavy_Atoms>  (8) 
26

>  <Ro5>  (8) 
[True, True, True, True, True, True]

>  <Ro5_Fulfilled>  (8) 
True

>  <Ro3>  (8) 
[False, False, True, True]

>  <Ro3_Fulfilled>  (8) 
False

>  <Fsp3>  (8) 
0.375

>  <Fsp3_0.42>  (8) 
False

>  <Fsp3_0.45>  (8) 
False

>  <Stereogenic_Carbons>  (8) 
0

>  <C_Atoms>  (8) 
16

>  <FCStereo>  (8) 
0.0

>  <SPS>  (8) 
444

>  <nSPS>  (8) 
17.076923

>  <PBF>  (8) 
1.135621

>  <PBF_0.6>  (8) 
True

>  <nPBF>  (8) 
0.043678

>  <nPBF_0.016>  (8) 
True

>  <PMI1>  (8) 
1763.487002

>  <PMI2>  (8) 
4156.394

>  <PMI3>  (8) 
5052.890817

>  <NPR1>  (8) 
0.349006

>  <NPR2>  (8) 
0.822577

>  <Sum_NPR>  (8) 
1.171583

>  <Sum_NPR_1.07>  (8) 
True

>  <Sum_NPR_1.2>  (8) 
False

>  <MaxAbsEStateIndex>  (8) 
12.041409

>  <MaxEStateIndex>  (8) 
12.041409

>  <MinAbsEStateIndex>  (8) 
0.048014

>  <MinEStateIndex>  (8) 
-3.267389

>  <qed>  (8) 
0.716703

>  <MolWt>  (8) 
371.426

>  <HeavyAtomMolWt>  (8) 
354.29

>  <ExactMolWt>  (8) 
371.116444

>  <NumValenceElectrons>  (8) 
134

>  <NumRadicalElectrons>  (8) 
0

>  <MaxPartialCharge>  (8) 
0.213492

>  <MinPartialCharge>  (8) 
-0.346035

>  <MaxAbsPartialCharge>  (8) 
0.346035

>  <MinAbsPartialCharge>  (8) 
0.213492

>  <FpDensityMorgan1>  (8) 
1.384615

>  <FpDensityMorgan2>  (8) 
2.192308

>  <FpDensityMorgan3>  (8) 
2.923077

>  <BCUT2D_MWHI>  (8) 
32.233383

>  <BCUT2D_MWLOW>  (8) 
9.890857

>  <BCUT2D_CHGHI>  (8) 
2.492816

>  <BCUT2D_CHGLO>  (8) 
-2.473353

>  <BCUT2D_LOGPHI>  (8) 
2.353066

>  <BCUT2D_LOGPLOW>  (8) 
-2.638873

>  <BCUT2D_MRHI>  (8) 
7.886259

>  <BCUT2D_MRLOW>  (8) 
0.071879

>  <AvgIpc>  (8) 
3.260521

>  <BalabanJ>  (8) 
1.685278

>  <BertzCT>  (8) 
1103.023545

>  <Chi0>  (8) 
18.363597

>  <Chi0n>  (8) 
14.123205

>  <Chi0v>  (8) 
14.939701

>  <Chi1>  (8) 
12.48826

>  <Chi1n>  (8) 
8.173615

>  <Chi1v>  (8) 
9.78278

>  <Chi2n>  (8) 
6.363664

>  <Chi2v>  (8) 
8.621241

>  <Chi3n>  (8) 
4.803633

>  <Chi3v>  (8) 
6.578221

>  <Chi4n>  (8) 
3.28129

>  <Chi4v>  (8) 
4.520449

>  <HallKierAlpha>  (8) 
-2.77

>  <Ipc>  (8) 
1034201.485182

>  <Kappa1>  (8) 
16.685205

>  <Kappa2>  (8) 
5.894036

>  <Kappa3>  (8) 
2.476614

>  <LabuteASA>  (8) 
149.887805

>  <PEOE_VSA1>  (8) 
4.983979

>  <PEOE_VSA10>  (8) 
17.513423

>  <PEOE_VSA11>  (8) 
0.0

>  <PEOE_VSA12>  (8) 
10.023291

>  <PEOE_VSA13>  (8) 
0.0

>  <PEOE_VSA14>  (8) 
0.0

>  <PEOE_VSA2>  (8) 
4.681803

>  <PEOE_VSA3>  (8) 
18.385754

>  <PEOE_VSA4>  (8) 
14.665789

>  <PEOE_VSA5>  (8) 
0.0

>  <PEOE_VSA6>  (8) 
0.0

>  <PEOE_VSA7>  (8) 
12.990104

>  <PEOE_VSA8>  (8) 
36.432876

>  <PEOE_VSA9>  (8) 
30.133668

>  <SMR_VSA1>  (8) 
8.417797

>  <SMR_VSA10>  (8) 
21.056693

>  <SMR_VSA2>  (8) 
5.261892

>  <SMR_VSA3>  (8) 
29.037636

>  <SMR_VSA4>  (8) 
0.0

>  <SMR_VSA5>  (8) 
18.883484

>  <SMR_VSA6>  (8) 
18.842366

>  <SMR_VSA7>  (8) 
30.984218

>  <SMR_VSA8>  (8) 
0.0

>  <SMR_VSA9>  (8) 
17.326601

>  <SlogP_VSA1>  (8) 
0.0

>  <SlogP_VSA10>  (8) 
0.0

>  <SlogP_VSA11>  (8) 
0.0

>  <SlogP_VSA12>  (8) 
0.0

>  <SlogP_VSA2>  (8) 
56.2978

>  <SlogP_VSA3>  (8) 
15.562216

>  <SlogP_VSA4>  (8) 
11.331113

>  <SlogP_VSA5>  (8) 
13.344559

>  <SlogP_VSA6>  (8) 
30.984218

>  <SlogP_VSA7>  (8) 
0.0

>  <SlogP_VSA8>  (8) 
22.290781

>  <SlogP_VSA9>  (8) 
0.0

>  <EState_VSA1>  (8) 
15.562216

>  <EState_VSA10>  (8) 
13.679689

>  <EState_VSA11>  (8) 
0.0

>  <EState_VSA2>  (8) 
25.263188

>  <EState_VSA3>  (8) 
0.0

>  <EState_VSA4>  (8) 
22.290781

>  <EState_VSA5>  (8) 
10.632536

>  <EState_VSA6>  (8) 
23.999227

>  <EState_VSA7>  (8) 
12.263211

>  <EState_VSA8>  (8) 
26.119839

>  <EState_VSA9>  (8) 
0.0

>  <VSA_EState1>  (8) 
27.18854

>  <VSA_EState10>  (8) 
0.0

>  <VSA_EState2>  (8) 
11.565567

>  <VSA_EState3>  (8) 
14.520169

>  <VSA_EState4>  (8) 
1.635117

>  <VSA_EState5>  (8) 
0.048014

>  <VSA_EState6>  (8) 
4.055353

>  <VSA_EState7>  (8) 
6.971631

>  <VSA_EState8>  (8) 
2.116332

>  <VSA_EState9>  (8) 
-3.267389

>  <FractionCSP3>  (8) 
0.375

>  <HeavyAtomCount>  (8) 
26

>  <NHOHCount>  (8) 
1

>  <NOCount>  (8) 
9

>  <NumAliphaticCarbocycles>  (8) 
0

>  <NumAliphaticHeterocycles>  (8) 
1

>  <NumAliphaticRings>  (8) 
1

>  <NumAromaticCarbocycles>  (8) 
0

>  <NumAromaticHeterocycles>  (8) 
3

>  <NumAromaticRings>  (8) 
3

>  <NumHAcceptors>  (8) 
7

>  <NumHDonors>  (8) 
1

>  <NumHeteroatoms>  (8) 
10

>  <NumRotatableBonds>  (8) 
5

>  <NumSaturatedCarbocycles>  (8) 
0

>  <NumSaturatedHeterocycles>  (8) 
1

>  <NumSaturatedRings>  (8) 
1

>  <RingCount>  (8) 
4

>  <MolLogP>  (8) 
1.09568

>  <MolMR>  (8) 
94.3475

>  <fr_Al_COO>  (8) 
0

>  <fr_Al_OH>  (8) 
0

>  <fr_Al_OH_noTert>  (8) 
0

>  <fr_ArN>  (8) 
0

>  <fr_Ar_COO>  (8) 
0

>  <fr_Ar_N>  (8) 
5

>  <fr_Ar_NH>  (8) 
1

>  <fr_Ar_OH>  (8) 
0

>  <fr_COO>  (8) 
0

>  <fr_COO2>  (8) 
0

>  <fr_C_O>  (8) 
0

>  <fr_C_O_noCOO>  (8) 
0

>  <fr_C_S>  (8) 
0

>  <fr_HOCCN>  (8) 
0

>  <fr_Imine>  (8) 
0

>  <fr_NH0>  (8) 
6

>  <fr_NH1>  (8) 
1

>  <fr_NH2>  (8) 
0

>  <fr_N_O>  (8) 
0

>  <fr_Ndealkylation1>  (8) 
0

>  <fr_Ndealkylation2>  (8) 
0

>  <fr_Nhpyrrole>  (8) 
1

>  <fr_SH>  (8) 
0

>  <fr_aldehyde>  (8) 
0

>  <fr_alkyl_carbamate>  (8) 
0

>  <fr_alkyl_halide>  (8) 
0

>  <fr_allylic_oxid>  (8) 
0

>  <fr_amide>  (8) 
0

>  <fr_amidine>  (8) 
0

>  <fr_aniline>  (8) 
0

>  <fr_aryl_methyl>  (8) 
0

>  <fr_azide>  (8) 
0

>  <fr_azo>  (8) 
0

>  <fr_barbitur>  (8) 
0

>  <fr_benzene>  (8) 
0

>  <fr_benzodiazepine>  (8) 
0

>  <fr_bicyclic>  (8) 
1

>  <fr_diazo>  (8) 
0

>  <fr_dihydropyridine>  (8) 
0

>  <fr_epoxide>  (8) 
0

>  <fr_ester>  (8) 
0

>  <fr_ether>  (8) 
0

>  <fr_furan>  (8) 
0

>  <fr_guanido>  (8) 
0

>  <fr_halogen>  (8) 
0

>  <fr_hdrzine>  (8) 
0

>  <fr_hdrzone>  (8) 
0

>  <fr_imidazole>  (8) 
0

>  <fr_imide>  (8) 
0

>  <fr_isocyan>  (8) 
0

>  <fr_isothiocyan>  (8) 
0

>  <fr_ketone>  (8) 
0

>  <fr_ketone_Topliss>  (8) 
0

>  <fr_lactam>  (8) 
0

>  <fr_lactone>  (8) 
0

>  <fr_methoxy>  (8) 
0

>  <fr_morpholine>  (8) 
0

>  <fr_nitrile>  (8) 
1

>  <fr_nitro>  (8) 
0

>  <fr_nitro_arom>  (8) 
0

>  <fr_nitro_arom_nonortho>  (8) 
0

>  <fr_nitroso>  (8) 
0

>  <fr_oxazole>  (8) 
0

>  <fr_oxime>  (8) 
0

>  <fr_para_hydroxylation>  (8) 
0

>  <fr_phenol>  (8) 
0

>  <fr_phenol_noOrthoHbond>  (8) 
0

>  <fr_phos_acid>  (8) 
0

>  <fr_phos_ester>  (8) 
0

>  <fr_piperdine>  (8) 
0

>  <fr_piperzine>  (8) 
0

>  <fr_priamide>  (8) 
0

>  <fr_prisulfonamd>  (8) 
0

>  <fr_pyridine>  (8) 
0

>  <fr_quatN>  (8) 
0

>  <fr_sulfide>  (8) 
0

>  <fr_sulfonamd>  (8) 
1

>  <fr_sulfone>  (8) 
0

>  <fr_term_acetylene>  (8) 
0

>  <fr_tetrazole>  (8) 
0

>  <fr_thiazole>  (8) 
0

>  <fr_thiocyan>  (8) 
0

>  <fr_thiophene>  (8) 
0

>  <fr_unbrch_alkane>  (8) 
0

>  <fr_urea>  (8) 
0

>  <NP_Likeness>  (8) 
-1.110023

$$$$
CHEMBL2219422
     RDKit          3D

  0  0  0  0  0  0  0  0  0  0999 V3000
M  V30 BEGIN CTAB
M  V30 COUNTS 44 46 0 0 0
M  V30 BEGIN ATOM
M  V30 1 C 2.555478 -3.452686 1.517355 0
M  V30 2 N 2.508157 -4.306093 0.335953 0
M  V30 3 N 2.968233 -5.566350 0.450612 0
M  V30 4 C 2.845911 -6.183031 -0.726670 0
M  V30 5 C 2.292382 -5.208740 -1.517199 0
M  V30 6 Cl 2.008183 -5.734818 -3.145601 0
M  V30 7 C 2.064825 -4.022217 -0.895177 0
M  V30 8 C 1.515240 -2.790512 -1.386393 0
M  V30 9 C 1.346704 -1.688774 -0.625273 0
M  V30 10 C 0.844534 -0.553159 -1.087875 0
M  V30 11 C 0.506214 0.799488 -0.652273 0
M  V30 12 O 0.024593 1.627782 -1.427384 0
M  V30 13 N 0.715060 1.224597 0.681083 0
M  V30 14 C 0.393573 2.560836 1.159754 0 CFG=2
M  V30 15 C 1.699686 3.168445 1.641904 0
M  V30 16 N 2.205150 2.332454 2.692144 0
M  V30 17 C -0.498899 2.406347 2.360665 0
M  V30 18 C -1.758818 1.705021 2.105027 0
M  V30 19 C -1.972872 0.345495 2.201820 0
M  V30 20 C -3.180057 -0.269656 1.950463 0
M  V30 21 C -4.240999 0.554932 1.575222 0
M  V30 22 C -4.063515 1.926655 1.467330 0
M  V30 23 F -5.153456 2.636642 1.097339 0
M  V30 24 C -2.839228 2.498897 1.728083 0
M  V30 25 S 0.492615 -0.866971 -2.822818 0
M  V30 26 C 1.115299 -2.649139 -2.725090 0
M  V30 27 Cl 1.017053 -3.488268 -4.176539 0
M  V30 28 H 3.052273 -4.023958 2.359903 0
M  V30 29 H 3.211851 -2.572623 1.399920 0
M  V30 30 H 1.540422 -3.206892 1.831882 0
M  V30 31 H 3.169152 -7.201794 -0.807166 0
M  V30 32 H 1.529002 -1.433097 0.400109 0
M  V30 33 H 1.122182 0.554618 1.374665 0
M  V30 34 H -0.027603 3.185291 0.354940 0
M  V30 35 H 1.500116 4.178443 2.040163 0
M  V30 36 H 2.411918 3.304257 0.797279 0
M  V30 37 H 2.694528 2.847632 3.455501 0
M  V30 38 H 2.684345 1.475027 2.376823 0
M  V30 39 H 0.088762 1.788536 3.091703 0
M  V30 40 H -0.653012 3.381200 2.874871 0
M  V30 41 H -1.071120 -0.203651 2.503601 0
M  V30 42 H -3.257403 -1.353841 2.052467 0
M  V30 43 H -5.185490 0.042812 1.382047 0
M  V30 44 H -2.823083 3.560042 1.612415 0
M  V30 END ATOM
M  V30 BEGIN BOND
M  V30 1 1 1 2
M  V30 2 1 2 3
M  V30 3 2 3 4
M  V30 4 1 4 5
M  V30 5 1 5 6
M  V30 6 2 5 7
M  V30 7 1 7 8
M  V30 8 1 8 9
M  V30 9 2 9 10
M  V30 10 1 10 11
M  V30 11 2 11 12
M  V30 12 1 11 13
M  V30 13 1 13 14
M  V30 14 1 14 15
M  V30 15 1 15 16
M  V30 16 1 14 17
M  V30 17 1 17 18
M  V30 18 2 18 19
M  V30 19 1 19 20
M  V30 20 2 20 21
M  V30 21 1 21 22
M  V30 22 1 22 23
M  V30 23 2 22 24
M  V30 24 1 10 25
M  V30 25 1 25 26
M  V30 26 1 26 27
M  V30 27 1 7 2
M  V30 28 2 26 8
M  V30 29 1 24 18
M  V30 30 1 1 28
M  V30 31 1 1 29
M  V30 32 1 1 30
M  V30 33 1 4 31
M  V30 34 1 9 32
M  V30 35 1 13 33
M  V30 36 1 14 34 CFG=3
M  V30 37 1 15 35
M  V30 38 1 15 36
M  V30 39 1 16 37
M  V30 40 1 16 38
M  V30 41 1 17 39
M  V30 42 1 17 40
M  V30 43 1 19 41
M  V30 44 1 20 42
M  V30 45 1 21 43
M  V30 46 1 24 44
M  V30 END BOND
M  V30 END CTAB
M  END
>  <Dataset>  (9) 
ChEMBL_PKA

>  <Ligand_Instance>  (9) 
nan

>  <PDB_ID>  (9) 
nan

>  <Standardized_SMILES>  (9) 
Cn1ncc(Cl)c1-c1cc(C(=O)N[C@H](CN)Cc2cccc(F)c2)sc1Cl

>  <Name>  (9) 
AFURESERTIB

>  <Pocket>  (9) 
nan

>  <ATP_Site>  (9) 
nan

>  <Peripheral>  (9) 
nan

>  <Num_H_Atoms_ProtBoundConf>  (9) 
nan

>  <Num_Resolved_Atoms>  (9) 
nan

>  <Num_Not_Resolved_Atoms>  (9) 
nan

>  <2D_Mol_H>  (9) 
<rdkit.Chem.rdchem.Mol object at 0x72a239101d20>

>  <MW>  (9) 
427.332

>  <HBA>  (9) 
5

>  <HBD>  (9) 
2

>  <LogP>  (9) 
3.8943

>  <NRB>  (9) 
8

>  <TPSA>  (9) 
72.94

>  <Num_Heavy_Atoms>  (9) 
27

>  <Ro5>  (9) 
[True, True, True, True, True, True]

>  <Ro5_Fulfilled>  (9) 
True

>  <Ro3>  (9) 
[False, False, True, False]

>  <Ro3_Fulfilled>  (9) 
False

>  <Fsp3>  (9) 
0.222222

>  <Fsp3_0.42>  (9) 
False

>  <Fsp3_0.45>  (9) 
False

>  <Stereogenic_Carbons>  (9) 
1

>  <C_Atoms>  (9) 
18

>  <FCStereo>  (9) 
0.055556

>  <SPS>  (9) 
329

>  <nSPS>  (9) 
12.185185

>  <PBF>  (9) 
1.166777

>  <PBF_0.6>  (9) 
True

>  <nPBF>  (9) 
0.043214

>  <nPBF_0.016>  (9) 
True

>  <PMI1>  (9) 
2095.08148

>  <PMI2>  (9) 
6854.246559

>  <PMI3>  (9) 
7233.578956

>  <NPR1>  (9) 
0.289633

>  <NPR2>  (9) 
0.94756

>  <Sum_NPR>  (9) 
1.237192

>  <Sum_NPR_1.07>  (9) 
True

>  <Sum_NPR_1.2>  (9) 
True

>  <MaxAbsEStateIndex>  (9) 
13.346468

>  <MaxEStateIndex>  (9) 
13.346468

>  <MinAbsEStateIndex>  (9) 
0.223985

>  <MinEStateIndex>  (9) 
-0.329707

>  <qed>  (9) 
0.627055

>  <MolWt>  (9) 
427.332

>  <HeavyAtomMolWt>  (9) 
410.196

>  <ExactMolWt>  (9) 
426.048416

>  <NumValenceElectrons>  (9) 
142

>  <NumRadicalElectrons>  (9) 
0

>  <MaxPartialCharge>  (9) 
0.261197

>  <MinPartialCharge>  (9) 
-0.347001

>  <MaxAbsPartialCharge>  (9) 
0.347001

>  <MinAbsPartialCharge>  (9) 
0.261197

>  <FpDensityMorgan1>  (9) 
1.407407

>  <FpDensityMorgan2>  (9) 
2.185185

>  <FpDensityMorgan3>  (9) 
2.814815

>  <BCUT2D_MWHI>  (9) 
35.496972

>  <BCUT2D_MWLOW>  (9) 
10.05773

>  <BCUT2D_CHGHI>  (9) 
2.206787

>  <BCUT2D_CHGLO>  (9) 
-2.161064

>  <BCUT2D_LOGPHI>  (9) 
2.381566

>  <BCUT2D_LOGPLOW>  (9) 
-2.41009

>  <BCUT2D_MRHI>  (9) 
7.18191

>  <BCUT2D_MRLOW>  (9) 
0.094193

>  <AvgIpc>  (9) 
3.159202

>  <BalabanJ>  (9) 
1.764917

>  <BertzCT>  (9) 
952.679884

>  <Chi0>  (9) 
19.551677

>  <Chi0n>  (9) 
14.377833

>  <Chi0v>  (9) 
16.706187

>  <Chi1>  (9) 
12.884249

>  <Chi1n>  (9) 
8.112704

>  <Chi1v>  (9) 
9.68513

>  <Chi2n>  (9) 
6.002883

>  <Chi2v>  (9) 
8.064354

>  <Chi3n>  (9) 
4.050644

>  <Chi3v>  (9) 
5.684583

>  <Chi4n>  (9) 
2.75414

>  <Chi4v>  (9) 
4.202344

>  <HallKierAlpha>  (9) 
-1.93

>  <Ipc>  (9) 
1334017.084894

>  <Kappa1>  (9) 
19.821203

>  <Kappa2>  (9) 
8.392367

>  <Kappa3>  (9) 
4.4952

>  <LabuteASA>  (9) 
169.441242

>  <PEOE_VSA1>  (9) 
11.050456

>  <PEOE_VSA10>  (9) 
10.15355

>  <PEOE_VSA11>  (9) 
0.0

>  <PEOE_VSA12>  (9) 
0.0

>  <PEOE_VSA13>  (9) 
5.90718

>  <PEOE_VSA14>  (9) 
0.0

>  <PEOE_VSA2>  (9) 
9.47634

>  <PEOE_VSA3>  (9) 
4.390415

>  <PEOE_VSA4>  (9) 
5.098682

>  <PEOE_VSA5>  (9) 
11.336786

>  <PEOE_VSA6>  (9) 
35.334614

>  <PEOE_VSA7>  (9) 
30.183374

>  <PEOE_VSA8>  (9) 
25.197721

>  <PEOE_VSA9>  (9) 
21.790552

>  <SMR_VSA1>  (9) 
9.184952

>  <SMR_VSA10>  (9) 
40.445845

>  <SMR_VSA2>  (9) 
0.0

>  <SMR_VSA3>  (9) 
15.097273

>  <SMR_VSA4>  (9) 
12.781339

>  <SMR_VSA5>  (9) 
12.462662

>  <SMR_VSA6>  (9) 
6.544756

>  <SMR_VSA7>  (9) 
62.145461

>  <SMR_VSA8>  (9) 
0.0

>  <SMR_VSA9>  (9) 
11.257379

>  <SlogP_VSA1>  (9) 
11.050456

>  <SlogP_VSA10>  (9) 
4.390415

>  <SlogP_VSA11>  (9) 
0.0

>  <SlogP_VSA12>  (9) 
34.538666

>  <SlogP_VSA2>  (9) 
28.274262

>  <SlogP_VSA3>  (9) 
13.468494

>  <SlogP_VSA4>  (9) 
5.817221

>  <SlogP_VSA5>  (9) 
15.235136

>  <SlogP_VSA6>  (9) 
36.528679

>  <SlogP_VSA7>  (9) 
9.358962

>  <SlogP_VSA8>  (9) 
11.257379

>  <SlogP_VSA9>  (9) 
0.0

>  <EState_VSA1>  (9) 
0.0

>  <EState_VSA10>  (9) 
9.184952

>  <EState_VSA11>  (9) 
0.0

>  <EState_VSA2>  (9) 
24.310998

>  <EState_VSA3>  (9) 
31.914311

>  <EState_VSA4>  (9) 
16.900237

>  <EState_VSA5>  (9) 
18.329578

>  <EState_VSA6>  (9) 
29.928576

>  <EState_VSA7>  (9) 
0.0

>  <EState_VSA8>  (9) 
10.41547

>  <EState_VSA9>  (9) 
28.935547

>  <VSA_EState1>  (9) 
15.39276

>  <VSA_EState10>  (9) 
13.63175

>  <VSA_EState2>  (9) 
13.066896

>  <VSA_EState3>  (9) 
7.416118

>  <VSA_EState4>  (9) 
7.828406

>  <VSA_EState5>  (9) 
-0.615159

>  <VSA_EState6>  (9) 
7.577078

>  <VSA_EState7>  (9) 
1.95198

>  <VSA_EState8>  (9) 
0.223985

>  <VSA_EState9>  (9) 
1.74841

>  <FractionCSP3>  (9) 
0.222222

>  <HeavyAtomCount>  (9) 
27

>  <NHOHCount>  (9) 
3

>  <NOCount>  (9) 
5

>  <NumAliphaticCarbocycles>  (9) 
0

>  <NumAliphaticHeterocycles>  (9) 
0

>  <NumAliphaticRings>  (9) 
0

>  <NumAromaticCarbocycles>  (9) 
1

>  <NumAromaticHeterocycles>  (9) 
2

>  <NumAromaticRings>  (9) 
3

>  <NumHAcceptors>  (9) 
5

>  <NumHDonors>  (9) 
2

>  <NumHeteroatoms>  (9) 
9

>  <NumRotatableBonds>  (9) 
6

>  <NumSaturatedCarbocycles>  (9) 
0

>  <NumSaturatedHeterocycles>  (9) 
0

>  <NumSaturatedRings>  (9) 
0

>  <RingCount>  (9) 
3

>  <MolLogP>  (9) 
3.8943

>  <MolMR>  (9) 
106.9536

>  <fr_Al_COO>  (9) 
0

>  <fr_Al_OH>  (9) 
0

>  <fr_Al_OH_noTert>  (9) 
0

>  <fr_ArN>  (9) 
0

>  <fr_Ar_COO>  (9) 
0

>  <fr_Ar_N>  (9) 
2

>  <fr_Ar_NH>  (9) 
0

>  <fr_Ar_OH>  (9) 
0

>  <fr_COO>  (9) 
0

>  <fr_COO2>  (9) 
0

>  <fr_C_O>  (9) 
1

>  <fr_C_O_noCOO>  (9) 
1

>  <fr_C_S>  (9) 
0

>  <fr_HOCCN>  (9) 
0

>  <fr_Imine>  (9) 
0

>  <fr_NH0>  (9) 
2

>  <fr_NH1>  (9) 
1

>  <fr_NH2>  (9) 
1

>  <fr_N_O>  (9) 
0

>  <fr_Ndealkylation1>  (9) 
0

>  <fr_Ndealkylation2>  (9) 
0

>  <fr_Nhpyrrole>  (9) 
0

>  <fr_SH>  (9) 
0

>  <fr_aldehyde>  (9) 
0

>  <fr_alkyl_carbamate>  (9) 
0

>  <fr_alkyl_halide>  (9) 
0

>  <fr_allylic_oxid>  (9) 
0

>  <fr_amide>  (9) 
1

>  <fr_amidine>  (9) 
0

>  <fr_aniline>  (9) 
0

>  <fr_aryl_methyl>  (9) 
1

>  <fr_azide>  (9) 
0

>  <fr_azo>  (9) 
0

>  <fr_barbitur>  (9) 
0

>  <fr_benzene>  (9) 
1

>  <fr_benzodiazepine>  (9) 
0

>  <fr_bicyclic>  (9) 
0

>  <fr_diazo>  (9) 
0

>  <fr_dihydropyridine>  (9) 
0

>  <fr_epoxide>  (9) 
0

>  <fr_ester>  (9) 
0

>  <fr_ether>  (9) 
0

>  <fr_furan>  (9) 
0

>  <fr_guanido>  (9) 
0

>  <fr_halogen>  (9) 
3

>  <fr_hdrzine>  (9) 
0

>  <fr_hdrzone>  (9) 
0

>  <fr_imidazole>  (9) 
0

>  <fr_imide>  (9) 
0

>  <fr_isocyan>  (9) 
0

>  <fr_isothiocyan>  (9) 
0

>  <fr_ketone>  (9) 
0

>  <fr_ketone_Topliss>  (9) 
0

>  <fr_lactam>  (9) 
0

>  <fr_lactone>  (9) 
0

>  <fr_methoxy>  (9) 
0

>  <fr_morpholine>  (9) 
0

>  <fr_nitrile>  (9) 
0

>  <fr_nitro>  (9) 
0

>  <fr_nitro_arom>  (9) 
0

>  <fr_nitro_arom_nonortho>  (9) 
0

>  <fr_nitroso>  (9) 
0

>  <fr_oxazole>  (9) 
0

>  <fr_oxime>  (9) 
0

>  <fr_para_hydroxylation>  (9) 
0

>  <fr_phenol>  (9) 
0

>  <fr_phenol_noOrthoHbond>  (9) 
0

>  <fr_phos_acid>  (9) 
0

>  <fr_phos_ester>  (9) 
0

>  <fr_piperdine>  (9) 
0

>  <fr_piperzine>  (9) 
0

>  <fr_priamide>  (9) 
0

>  <fr_prisulfonamd>  (9) 
0

>  <fr_pyridine>  (9) 
0

>  <fr_quatN>  (9) 
0

>  <fr_sulfide>  (9) 
0

>  <fr_sulfonamd>  (9) 
0

>  <fr_sulfone>  (9) 
0

>  <fr_term_acetylene>  (9) 
0

>  <fr_tetrazole>  (9) 
0

>  <fr_thiazole>  (9) 
0

>  <fr_thiocyan>  (9) 
0

>  <fr_thiophene>  (9) 
1

>  <fr_unbrch_alkane>  (9) 
0

>  <fr_urea>  (9) 
0

>  <NP_Likeness>  (9) 
-1.474022

$$$$
CHEMBL223360
     RDKit          3D

  0  0  0  0  0  0  0  0  0  0999 V3000
M  V30 BEGIN CTAB
M  V30 COUNTS 46 49 0 0 0
M  V30 BEGIN ATOM
M  V30 1 C 6.407053 -3.989280 0.717671 0
M  V30 2 C 5.479662 -3.652680 -0.399538 0
M  V30 3 C 5.182435 -4.608596 -1.349936 0
M  V30 4 C 4.322374 -4.288200 -2.381465 0
M  V30 5 C 3.733213 -3.039193 -2.514840 0
M  V30 6 F 2.891516 -2.680518 -3.499211 0
M  V30 7 C 4.061309 -2.117813 -1.540246 0
M  V30 8 N 3.544658 -0.771783 -1.517620 0
M  V30 9 C 2.313317 -0.559256 -0.798007 0
M  V30 10 O 1.727205 -1.534426 -0.216289 0
M  V30 11 N 1.681031 0.707647 -0.685772 0
M  V30 12 C 0.468967 0.719171 0.066506 0
M  V30 13 C 0.475606 0.944195 1.429946 0
M  V30 14 C -0.722787 0.946382 2.115906 0
M  V30 15 C -1.964196 0.730502 1.501095 0
M  V30 16 C -3.067734 0.769739 2.449625 0
M  V30 17 C -2.932207 -0.089809 3.547855 0
M  V30 18 C -3.884619 -0.215978 4.544803 0
M  V30 19 C -5.029950 0.535172 4.468068 0
M  V30 20 C -5.186184 1.384666 3.403108 0
M  V30 21 N -6.148432 2.261891 3.005879 0
M  V30 22 N -5.804737 2.869622 1.862404 0
M  V30 23 C -4.594937 2.413491 1.458963 0
M  V30 24 N -3.896879 2.832066 0.294553 0
M  V30 25 C -4.234940 1.499319 2.423693 0
M  V30 26 C -1.942705 0.507770 0.139389 0
M  V30 27 C -0.748003 0.504925 -0.550223 0
M  V30 28 C 4.916022 -2.396004 -0.492738 0
M  V30 29 H 7.408491 -3.617073 0.460641 0
M  V30 30 H 5.998519 -3.524819 1.658313 0
M  V30 31 H 6.462780 -5.067699 0.862096 0
M  V30 32 H 5.622905 -5.599429 -1.281987 0
M  V30 33 H 4.052816 -5.008574 -3.161789 0
M  V30 34 H 3.944148 0.096348 -1.959333 0
M  V30 35 H 2.161178 1.523099 -1.166008 0
M  V30 36 H 1.427851 1.108532 1.893894 0
M  V30 37 H -0.593536 1.134140 3.184136 0
M  V30 38 H -2.048157 -0.719522 3.677883 0
M  V30 39 H -3.738723 -0.891373 5.373620 0
M  V30 40 H -5.822766 0.496896 5.202942 0
M  V30 41 H -7.049211 2.452078 3.514600 0
M  V30 42 H -2.938555 3.227662 0.306461 0
M  V30 43 H -4.476435 2.686885 -0.558700 0
M  V30 44 H -2.925839 0.337208 -0.273370 0
M  V30 45 H -0.827909 0.323242 -1.609015 0
M  V30 46 H 5.184683 -1.687096 0.279939 0
M  V30 END ATOM
M  V30 BEGIN BOND
M  V30 1 1 1 2
M  V30 2 2 2 3
M  V30 3 1 3 4
M  V30 4 2 4 5
M  V30 5 1 5 6
M  V30 6 1 5 7
M  V30 7 1 7 8
M  V30 8 1 8 9
M  V30 9 2 9 10
M  V30 10 1 9 11
M  V30 11 1 11 12
M  V30 12 2 12 13
M  V30 13 1 13 14
M  V30 14 2 14 15
M  V30 15 1 15 16
M  V30 16 2 16 17
M  V30 17 1 17 18
M  V30 18 2 18 19
M  V30 19 1 19 20
M  V30 20 1 20 21
M  V30 21 1 21 22
M  V30 22 2 22 23
M  V30 23 1 23 24
M  V30 24 1 23 25
M  V30 25 1 15 26
M  V30 26 2 26 27
M  V30 27 2 7 28
M  V30 28 1 28 2
M  V30 29 1 27 12
M  V30 30 1 25 16
M  V30 31 2 25 20
M  V30 32 1 1 29
M  V30 33 1 1 30
M  V30 34 1 1 31
M  V30 35 1 3 32
M  V30 36 1 4 33
M  V30 37 1 8 34
M  V30 38 1 11 35
M  V30 39 1 13 36
M  V30 40 1 14 37
M  V30 41 1 17 38
M  V30 42 1 18 39
M  V30 43 1 19 40
M  V30 44 1 21 41
M  V30 45 1 24 42
M  V30 46 1 24 43
M  V30 47 1 26 44
M  V30 48 1 27 45
M  V30 49 1 28 46
M  V30 END BOND
M  V30 END CTAB
M  END
>  <Dataset>  (10) 
ChEMBL_PKA

>  <Ligand_Instance>  (10) 
nan

>  <PDB_ID>  (10) 
nan

>  <Standardized_SMILES>  (10) 
Cc1ccc(F)c(NC(=O)Nc2ccc(-c3cccc4[nH]nc(N)c34)cc2)c1

>  <Name>  (10) 
LINIFANIB

>  <Pocket>  (10) 
nan

>  <ATP_Site>  (10) 
nan

>  <Peripheral>  (10) 
nan

>  <Num_H_Atoms_ProtBoundConf>  (10) 
nan

>  <Num_Resolved_Atoms>  (10) 
nan

>  <Num_Not_Resolved_Atoms>  (10) 
nan

>  <2D_Mol_H>  (10) 
<rdkit.Chem.rdchem.Mol object at 0x72a239101e00>

>  <MW>  (10) 
375.407

>  <HBA>  (10) 
3

>  <HBD>  (10) 
4

>  <LogP>  (10) 
4.90362

>  <NRB>  (10) 
5

>  <TPSA>  (10) 
95.83

>  <Num_Heavy_Atoms>  (10) 
28

>  <Ro5>  (10) 
[True, True, True, True, True, True]

>  <Ro5_Fulfilled>  (10) 
True

>  <Ro3>  (10) 
[False, True, False, False]

>  <Ro3_Fulfilled>  (10) 
False

>  <Fsp3>  (10) 
0.047619

>  <Fsp3_0.42>  (10) 
False

>  <Fsp3_0.45>  (10) 
False

>  <Stereogenic_Carbons>  (10) 
0

>  <C_Atoms>  (10) 
21

>  <FCStereo>  (10) 
0.0

>  <SPS>  (10) 
302

>  <nSPS>  (10) 
10.785714

>  <PBF>  (10) 
0.858207

>  <PBF_0.6>  (10) 
True

>  <nPBF>  (10) 
0.03065

>  <nPBF_0.016>  (10) 
True

>  <PMI1>  (10) 
1046.955976

>  <PMI2>  (10) 
8500.933264

>  <PMI3>  (10) 
8984.787221

>  <NPR1>  (10) 
0.116525

>  <NPR2>  (10) 
0.946147

>  <Sum_NPR>  (10) 
1.062673

>  <Sum_NPR_1.07>  (10) 
False

>  <Sum_NPR_1.2>  (10) 
False

>  <MaxAbsEStateIndex>  (10) 
13.782611

>  <MaxEStateIndex>  (10) 
13.782611

>  <MinAbsEStateIndex>  (10) 
0.135399

>  <MinEStateIndex>  (10) 
-0.515342

>  <qed>  (10) 
0.409856

>  <MolWt>  (10) 
375.407

>  <HeavyAtomMolWt>  (10) 
357.263

>  <ExactMolWt>  (10) 
375.149538

>  <NumValenceElectrons>  (10) 
140

>  <NumRadicalElectrons>  (10) 
0

>  <MaxPartialCharge>  (10) 
0.323264

>  <MinPartialCharge>  (10) 
-0.381693

>  <MaxAbsPartialCharge>  (10) 
0.381693

>  <MinAbsPartialCharge>  (10) 
0.323264

>  <FpDensityMorgan1>  (10) 
1.071429

>  <FpDensityMorgan2>  (10) 
1.857143

>  <FpDensityMorgan3>  (10) 
2.642857

>  <BCUT2D_MWHI>  (10) 
19.142212

>  <BCUT2D_MWLOW>  (10) 
10.010229

>  <BCUT2D_CHGHI>  (10) 
2.10557

>  <BCUT2D_CHGLO>  (10) 
-2.100572

>  <BCUT2D_LOGPHI>  (10) 
2.313484

>  <BCUT2D_LOGPLOW>  (10) 
-2.196771

>  <BCUT2D_MRHI>  (10) 
6.022773

>  <BCUT2D_MRLOW>  (10) 
0.261754

>  <AvgIpc>  (10) 
3.065716

>  <BalabanJ>  (10) 
1.524205

>  <BertzCT>  (10) 
1167.358461

>  <Chi0>  (10) 
19.672998

>  <Chi0n>  (10) 
15.084279

>  <Chi0v>  (10) 
15.084279

>  <Chi1>  (10) 
13.50804

>  <Chi1n>  (10) 
8.682413

>  <Chi1v>  (10) 
8.682413

>  <Chi2n>  (10) 
6.476756

>  <Chi2v>  (10) 
6.476756

>  <Chi3n>  (10) 
4.44124

>  <Chi3v>  (10) 
4.44124

>  <Chi4n>  (10) 
3.091038

>  <Chi4v>  (10) 
3.091038

>  <HallKierAlpha>  (10) 
-3.87

>  <Ipc>  (10) 
3147705.072141

>  <Kappa1>  (10) 
17.539168

>  <Kappa2>  (10) 
7.033964

>  <Kappa3>  (10) 
3.37213

>  <LabuteASA>  (10) 
160.121075

>  <PEOE_VSA1>  (10) 
16.367245

>  <PEOE_VSA10>  (10) 
5.817221

>  <PEOE_VSA11>  (10) 
5.817863

>  <PEOE_VSA12>  (10) 
0.0

>  <PEOE_VSA13>  (10) 
0.0

>  <PEOE_VSA14>  (10) 
6.031115

>  <PEOE_VSA2>  (10) 
5.098682

>  <PEOE_VSA3>  (10) 
9.184952

>  <PEOE_VSA4>  (10) 
5.098682

>  <PEOE_VSA5>  (10) 
0.0

>  <PEOE_VSA6>  (10) 
30.331835

>  <PEOE_VSA7>  (10) 
53.945927

>  <PEOE_VSA8>  (10) 
5.687386

>  <PEOE_VSA9>  (10) 
16.590311

>  <SMR_VSA1>  (10) 
9.184952

>  <SMR_VSA10>  (10) 
34.126675

>  <SMR_VSA2>  (10) 
0.0

>  <SMR_VSA3>  (10) 
10.197364

>  <SMR_VSA4>  (10) 
0.0

>  <SMR_VSA5>  (10) 
6.923737

>  <SMR_VSA6>  (10) 
16.367245

>  <SMR_VSA7>  (10) 
72.044343

>  <SMR_VSA8>  (10) 
0.0

>  <SMR_VSA9>  (10) 
11.126903

>  <SlogP_VSA1>  (10) 
16.367245

>  <SlogP_VSA10>  (10) 
26.377588

>  <SlogP_VSA11>  (10) 
0.0

>  <SlogP_VSA12>  (10) 
0.0

>  <SlogP_VSA2>  (10) 
16.228478

>  <SlogP_VSA3>  (10) 
0.0

>  <SlogP_VSA4>  (10) 
12.740958

>  <SlogP_VSA5>  (10) 
5.563451

>  <SlogP_VSA6>  (10) 
60.663671

>  <SlogP_VSA7>  (10) 
0.0

>  <SlogP_VSA8>  (10) 
22.029828

>  <SlogP_VSA9>  (10) 
0.0

>  <EState_VSA1>  (10) 
11.848335

>  <EState_VSA10>  (10) 
9.184952

>  <EState_VSA11>  (10) 
0.0

>  <EState_VSA2>  (10) 
5.687386

>  <EState_VSA3>  (10) 
11.505249

>  <EState_VSA4>  (10) 
27.593279

>  <EState_VSA5>  (10) 
6.066367

>  <EState_VSA6>  (10) 
24.265468

>  <EState_VSA7>  (10) 
37.255573

>  <EState_VSA8>  (10) 
20.830941

>  <EState_VSA9>  (10) 
5.733667

>  <VSA_EState1>  (10) 
13.782611

>  <VSA_EState10>  (10) 
0.0

>  <VSA_EState2>  (10) 
12.167231

>  <VSA_EState3>  (10) 
13.021723

>  <VSA_EState4>  (10) 
10.286843

>  <VSA_EState5>  (10) 
-0.046987

>  <VSA_EState6>  (10) 
17.127302

>  <VSA_EState7>  (10) 
0.0

>  <VSA_EState8>  (10) 
1.827944

>  <VSA_EState9>  (10) 
0.0

>  <FractionCSP3>  (10) 
0.047619

>  <HeavyAtomCount>  (10) 
28

>  <NHOHCount>  (10) 
5

>  <NOCount>  (10) 
6

>  <NumAliphaticCarbocycles>  (10) 
0

>  <NumAliphaticHeterocycles>  (10) 
0

>  <NumAliphaticRings>  (10) 
0

>  <NumAromaticCarbocycles>  (10) 
3

>  <NumAromaticHeterocycles>  (10) 
1

>  <NumAromaticRings>  (10) 
4

>  <NumHAcceptors>  (10) 
3

>  <NumHDonors>  (10) 
4

>  <NumHeteroatoms>  (10) 
7

>  <NumRotatableBonds>  (10) 
3

>  <NumSaturatedCarbocycles>  (10) 
0

>  <NumSaturatedHeterocycles>  (10) 
0

>  <NumSaturatedRings>  (10) 
0

>  <RingCount>  (10) 
4

>  <MolLogP>  (10) 
4.90362

>  <MolMR>  (10) 
109.7205

>  <fr_Al_COO>  (10) 
0

>  <fr_Al_OH>  (10) 
0

>  <fr_Al_OH_noTert>  (10) 
0

>  <fr_ArN>  (10) 
1

>  <fr_Ar_COO>  (10) 
0

>  <fr_Ar_N>  (10) 
2

>  <fr_Ar_NH>  (10) 
1

>  <fr_Ar_OH>  (10) 
0

>  <fr_COO>  (10) 
0

>  <fr_COO2>  (10) 
0

>  <fr_C_O>  (10) 
1

>  <fr_C_O_noCOO>  (10) 
1

>  <fr_C_S>  (10) 
0

>  <fr_HOCCN>  (10) 
0

>  <fr_Imine>  (10) 
0

>  <fr_NH0>  (10) 
1

>  <fr_NH1>  (10) 
3

>  <fr_NH2>  (10) 
1

>  <fr_N_O>  (10) 
0

>  <fr_Ndealkylation1>  (10) 
0

>  <fr_Ndealkylation2>  (10) 
0

>  <fr_Nhpyrrole>  (10) 
1

>  <fr_SH>  (10) 
0

>  <fr_aldehyde>  (10) 
0

>  <fr_alkyl_carbamate>  (10) 
0

>  <fr_alkyl_halide>  (10) 
0

>  <fr_allylic_oxid>  (10) 
0

>  <fr_amide>  (10) 
2

>  <fr_amidine>  (10) 
0

>  <fr_aniline>  (10) 
3

>  <fr_aryl_methyl>  (10) 
1

>  <fr_azide>  (10) 
0

>  <fr_azo>  (10) 
0

>  <fr_barbitur>  (10) 
0

>  <fr_benzene>  (10) 
3

>  <fr_benzodiazepine>  (10) 
0

>  <fr_bicyclic>  (10) 
1

>  <fr_diazo>  (10) 
0

>  <fr_dihydropyridine>  (10) 
0

>  <fr_epoxide>  (10) 
0

>  <fr_ester>  (10) 
0

>  <fr_ether>  (10) 
0

>  <fr_furan>  (10) 
0

>  <fr_guanido>  (10) 
0

>  <fr_halogen>  (10) 
1

>  <fr_hdrzine>  (10) 
0

>  <fr_hdrzone>  (10) 
0

>  <fr_imidazole>  (10) 
0

>  <fr_imide>  (10) 
0

>  <fr_isocyan>  (10) 
0

>  <fr_isothiocyan>  (10) 
0

>  <fr_ketone>  (10) 
0

>  <fr_ketone_Topliss>  (10) 
0

>  <fr_lactam>  (10) 
0

>  <fr_lactone>  (10) 
0

>  <fr_methoxy>  (10) 
0

>  <fr_morpholine>  (10) 
0

>  <fr_nitrile>  (10) 
0

>  <fr_nitro>  (10) 
0

>  <fr_nitro_arom>  (10) 
0

>  <fr_nitro_arom_nonortho>  (10) 
0

>  <fr_nitroso>  (10) 
0

>  <fr_oxazole>  (10) 
0

>  <fr_oxime>  (10) 
0

>  <fr_para_hydroxylation>  (10) 
0

>  <fr_phenol>  (10) 
0

>  <fr_phenol_noOrthoHbond>  (10) 
0

>  <fr_phos_acid>  (10) 
0

>  <fr_phos_ester>  (10) 
0

>  <fr_piperdine>  (10) 
0

>  <fr_piperzine>  (10) 
0

>  <fr_priamide>  (10) 
0

>  <fr_prisulfonamd>  (10) 
0

>  <fr_pyridine>  (10) 
0

>  <fr_quatN>  (10) 
0

>  <fr_sulfide>  (10) 
0

>  <fr_sulfonamd>  (10) 
0

>  <fr_sulfone>  (10) 
0

>  <fr_term_acetylene>  (10) 
0

>  <fr_tetrazole>  (10) 
0

>  <fr_thiazole>  (10) 
0

>  <fr_thiocyan>  (10) 
0

>  <fr_thiophene>  (10) 
0

>  <fr_unbrch_alkane>  (10) 
0

>  <fr_urea>  (10) 
1

>  <NP_Likeness>  (10) 
-1.629787

$$$$
CHEMBL2325741
     RDKit          3D

  0  0  0  0  0  0  0  0  0  0999 V3000
M  V30 BEGIN CTAB
M  V30 COUNTS 55 58 0 0 0
M  V30 BEGIN ATOM
M  V30 1 N -1.317323 0.681889 -1.187219 0
M  V30 2 C -0.975441 -0.353027 -0.227779 0
M  V30 3 C 0.425258 -0.029693 0.218575 0
M  V30 4 O 0.796762 -0.881470 1.046997 0
M  V30 5 N 1.168161 1.080187 -0.255366 0
M  V30 6 C 2.478721 1.449401 0.111168 0 CFG=1
M  V30 7 C 3.513808 1.473045 -0.958870 0
M  V30 8 C 3.655310 0.077356 -1.581967 0
M  V30 9 O 4.033740 -0.847119 -0.609234 0
M  V30 10 C 2.446435 2.765057 0.801415 0
M  V30 11 C 3.183967 2.954839 1.975600 0
M  V30 12 C 3.143607 4.185099 2.606938 0
M  V30 13 C 2.408789 5.250113 2.140067 0
M  V30 14 Cl 2.449824 6.753999 3.043185 0
M  V30 15 C 1.677279 5.064088 0.976607 0
M  V30 16 C 1.709931 3.831774 0.333045 0
M  V30 17 C -1.948097 -0.300528 0.887936 0
M  V30 18 C -2.405117 -1.617095 1.442423 0
M  V30 19 N -2.623272 -2.597341 0.425630 0
M  V30 20 C -3.095877 -3.891509 0.675072 0
M  V30 21 N -4.285083 -4.241462 0.100865 0
M  V30 22 C -4.820089 -5.474973 0.290861 0
M  V30 23 N -4.252697 -6.442384 1.037332 0
M  V30 24 C -3.078844 -6.195962 1.645258 0
M  V30 25 N -2.207969 -6.841781 2.440031 0
M  V30 26 C -1.163054 -6.035675 2.735855 0
M  V30 27 C -1.332607 -4.827570 2.130797 0
M  V30 28 C -2.508618 -4.876558 1.440867 0
M  V30 29 C -2.357427 -2.298087 -0.981827 0
M  V30 30 C -0.982101 -1.644891 -0.996511 0
M  V30 31 H -2.077025 0.436605 -1.828942 0
M  V30 32 H -1.365468 1.610540 -0.742703 0
M  V30 33 H 0.673518 1.681749 -0.954715 0
M  V30 34 H 2.837357 0.686888 0.863765 0
M  V30 35 H 3.420774 2.248641 -1.715394 0
M  V30 36 H 4.492733 1.651510 -0.460515 0
M  V30 37 H 4.444116 0.088566 -2.348334 0
M  V30 38 H 2.677047 -0.299612 -1.966823 0
M  V30 39 H 4.635713 -0.369534 0.034801 0
M  V30 40 H 3.768511 2.123314 2.355756 0
M  V30 41 H 3.752054 4.238812 3.518244 0
M  V30 42 H 1.103826 5.908041 0.619221 0
M  V30 43 H 1.137615 3.687975 -0.576276 0
M  V30 44 H -2.806251 0.350213 0.626915 0
M  V30 45 H -1.437739 0.256787 1.728984 0
M  V30 46 H -3.426184 -1.410933 1.883450 0
M  V30 47 H -1.793808 -1.915230 2.291744 0
M  V30 48 H -5.768549 -5.708737 -0.185696 0
M  V30 49 H -4.677296 -7.377211 1.169368 0
M  V30 50 H -0.319807 -6.322503 3.364577 0
M  V30 51 H -0.655921 -4.014098 2.199985 0
M  V30 52 H -2.319268 -3.176645 -1.622599 0
M  V30 53 H -3.144207 -1.582403 -1.349130 0
M  V30 54 H -0.316825 -2.363795 -0.476591 0
M  V30 55 H -0.627812 -1.539596 -2.029597 0
M  V30 END ATOM
M  V30 BEGIN BOND
M  V30 1 1 1 2
M  V30 2 1 2 3
M  V30 3 2 3 4
M  V30 4 1 3 5
M  V30 5 1 5 6
M  V30 6 1 6 7
M  V30 7 1 7 8
M  V30 8 1 8 9
M  V30 9 1 6 10
M  V30 10 2 10 11
M  V30 11 1 11 12
M  V30 12 2 12 13
M  V30 13 1 13 14
M  V30 14 1 13 15
M  V30 15 2 15 16
M  V30 16 1 2 17
M  V30 17 1 17 18
M  V30 18 1 18 19
M  V30 19 1 19 20
M  V30 20 1 20 21
M  V30 21 2 21 22
M  V30 22 1 22 23
M  V30 23 1 23 24
M  V30 24 2 24 25
M  V30 25 1 25 26
M  V30 26 2 26 27
M  V30 27 1 27 28
M  V30 28 1 19 29
M  V30 29 1 29 30
M  V30 30 1 30 2
M  V30 31 1 16 10
M  V30 32 2 28 20
M  V30 33 1 28 24
M  V30 34 1 1 31
M  V30 35 1 1 32
M  V30 36 1 5 33
M  V30 37 1 6 34 CFG=1
M  V30 38 1 7 35
M  V30 39 1 7 36
M  V30 40 1 8 37
M  V30 41 1 8 38
M  V30 42 1 9 39
M  V30 43 1 11 40
M  V30 44 1 12 41
M  V30 45 1 15 42
M  V30 46 1 16 43
M  V30 47 1 17 44
M  V30 48 1 17 45
M  V30 49 1 18 46
M  V30 50 1 18 47
M  V30 51 1 22 48
M  V30 52 1 23 49
M  V30 53 1 26 50
M  V30 54 1 27 51
M  V30 55 1 29 52
M  V30 56 1 29 53
M  V30 57 1 30 54
M  V30 58 1 30 55
M  V30 END BOND
M  V30 END CTAB
M  END
>  <Dataset>  (11) 
ChEMBL_PKA

>  <Ligand_Instance>  (11) 
nan

>  <PDB_ID>  (11) 
nan

>  <Standardized_SMILES>  (11) 
NC1(C(=O)N[C@@H](CCO)c2ccc(Cl)cc2)CCN(c2nc[nH]c3nccc2-3)CC1

>  <Name>  (11) 
CAPIVASERTIB

>  <Pocket>  (11) 
nan

>  <ATP_Site>  (11) 
nan

>  <Peripheral>  (11) 
nan

>  <Num_H_Atoms_ProtBoundConf>  (11) 
nan

>  <Num_Resolved_Atoms>  (11) 
nan

>  <Num_Not_Resolved_Atoms>  (11) 
nan

>  <2D_Mol_H>  (11) 
<rdkit.Chem.rdchem.Mol object at 0x72a239101ee0>

>  <MW>  (11) 
428.924

>  <HBA>  (11) 
6

>  <HBD>  (11) 
4

>  <LogP>  (11) 
2.1005

>  <NRB>  (11) 
8

>  <TPSA>  (11) 
120.16

>  <Num_Heavy_Atoms>  (11) 
30

>  <Ro5>  (11) 
[True, True, True, True, True, True]

>  <Ro5_Fulfilled>  (11) 
True

>  <Ro3>  (11) 
[False, False, False, True]

>  <Ro3_Fulfilled>  (11) 
False

>  <Fsp3>  (11) 
0.380952

>  <Fsp3_0.42>  (11) 
False

>  <Fsp3_0.45>  (11) 
False

>  <Stereogenic_Carbons>  (11) 
1

>  <C_Atoms>  (11) 
21

>  <FCStereo>  (11) 
0.047619

>  <SPS>  (11) 
513

>  <nSPS>  (11) 
17.1

>  <PBF>  (11) 
1.256735

>  <PBF_0.6>  (11) 
True

>  <nPBF>  (11) 
0.041891

>  <nPBF_0.016>  (11) 
True

>  <PMI1>  (11) 
1731.839134

>  <PMI2>  (11) 
9682.009277

>  <PMI3>  (11) 
10006.02565

>  <NPR1>  (11) 
0.17308

>  <NPR2>  (11) 
0.967618

>  <Sum_NPR>  (11) 
1.140697

>  <Sum_NPR_1.07>  (11) 
True

>  <Sum_NPR_1.2>  (11) 
False

>  <MaxAbsEStateIndex>  (11) 
13.066632

>  <MaxEStateIndex>  (11) 
13.066632

>  <MinAbsEStateIndex>  (11) 
0.042363

>  <MinEStateIndex>  (11) 
-0.971306

>  <qed>  (11) 
0.476889

>  <MolWt>  (11) 
428.924

>  <HeavyAtomMolWt>  (11) 
403.724

>  <ExactMolWt>  (11) 
428.172752

>  <NumValenceElectrons>  (11) 
158

>  <NumRadicalElectrons>  (11) 
0

>  <MaxPartialCharge>  (11) 
0.240206

>  <MinPartialCharge>  (11) 
-0.396282

>  <MaxAbsPartialCharge>  (11) 
0.396282

>  <MinAbsPartialCharge>  (11) 
0.240206

>  <FpDensityMorgan1>  (11) 
1.266667

>  <FpDensityMorgan2>  (11) 
2.0

>  <FpDensityMorgan3>  (11) 
2.7

>  <BCUT2D_MWHI>  (11) 
35.495692

>  <BCUT2D_MWLOW>  (11) 
9.864887

>  <BCUT2D_CHGHI>  (11) 
2.390215

>  <BCUT2D_CHGLO>  (11) 
-2.392956

>  <BCUT2D_LOGPHI>  (11) 
2.314681

>  <BCUT2D_LOGPLOW>  (11) 
-2.597773

>  <BCUT2D_MRHI>  (11) 
6.300944

>  <BCUT2D_MRLOW>  (11) 
-0.127561

>  <AvgIpc>  (11) 
3.235263

>  <BalabanJ>  (11) 
1.431596

>  <BertzCT>  (11) 
967.718236

>  <Chi0>  (11) 
21.139617

>  <Chi0n>  (11) 
16.51386

>  <Chi0v>  (11) 
17.269789

>  <Chi1>  (11) 
14.49815

>  <Chi1n>  (11) 
9.992439

>  <Chi1v>  (11) 
10.370404

>  <Chi2n>  (11) 
7.666331

>  <Chi2v>  (11) 
8.102766

>  <Chi3n>  (11) 
5.731851

>  <Chi3v>  (11) 
5.983827

>  <Chi4n>  (11) 
3.899301

>  <Chi4v>  (11) 
4.025289

>  <HallKierAlpha>  (11) 
-2.68

>  <Ipc>  (11) 
9094713.264582

>  <Kappa1>  (11) 
20.587048

>  <Kappa2>  (11) 
8.590408

>  <Kappa3>  (11) 
4.115932

>  <LabuteASA>  (11) 
179.360329

>  <PEOE_VSA1>  (11) 
26.040872

>  <PEOE_VSA10>  (11) 
11.642267

>  <PEOE_VSA11>  (11) 
0.0

>  <PEOE_VSA12>  (11) 
5.90718

>  <PEOE_VSA13>  (11) 
0.0

>  <PEOE_VSA14>  (11) 
0.0

>  <PEOE_VSA2>  (11) 
4.794537

>  <PEOE_VSA3>  (11) 
9.967957

>  <PEOE_VSA4>  (11) 
0.0

>  <PEOE_VSA5>  (11) 
0.0

>  <PEOE_VSA6>  (11) 
23.733674

>  <PEOE_VSA7>  (11) 
43.025018

>  <PEOE_VSA8>  (11) 
30.915872

>  <PEOE_VSA9>  (11) 
23.471538

>  <SMR_VSA1>  (11) 
9.901065

>  <SMR_VSA10>  (11) 
23.325982

>  <SMR_VSA2>  (11) 
0.0

>  <SMR_VSA3>  (11) 
20.268724

>  <SMR_VSA4>  (11) 
5.733667

>  <SMR_VSA5>  (11) 
30.843231

>  <SMR_VSA6>  (11) 
24.596305

>  <SMR_VSA7>  (11) 
53.442084

>  <SMR_VSA8>  (11) 
0.0

>  <SMR_VSA9>  (11) 
11.387856

>  <SlogP_VSA1>  (11) 
15.950366

>  <SlogP_VSA10>  (11) 
5.817863

>  <SlogP_VSA11>  (11) 
0.0

>  <SlogP_VSA12>  (11) 
11.60094

>  <SlogP_VSA2>  (11) 
51.200963

>  <SlogP_VSA3>  (11) 
4.794537

>  <SlogP_VSA4>  (11) 
0.0

>  <SlogP_VSA5>  (11) 
30.867757

>  <SlogP_VSA6>  (11) 
42.855999

>  <SlogP_VSA7>  (11) 
5.022633

>  <SlogP_VSA8>  (11) 
11.387856

>  <SlogP_VSA9>  (11) 
0.0

>  <EState_VSA1>  (11) 
5.538925

>  <EState_VSA10>  (11) 
9.901065

>  <EState_VSA11>  (11) 
0.0

>  <EState_VSA2>  (11) 
18.555903

>  <EState_VSA3>  (11) 
37.374611

>  <EState_VSA4>  (11) 
22.76917

>  <EState_VSA5>  (11) 
0.0

>  <EState_VSA6>  (11) 
24.656898

>  <EState_VSA7>  (11) 
18.199101

>  <EState_VSA8>  (11) 
25.168634

>  <EState_VSA9>  (11) 
17.334607

>  <VSA_EState1>  (11) 
0.0

>  <VSA_EState10>  (11) 
5.963951

>  <VSA_EState2>  (11) 
26.978055

>  <VSA_EState3>  (11) 
13.089524

>  <VSA_EState4>  (11) 
7.393058

>  <VSA_EState5>  (11) 
1.435367

>  <VSA_EState6>  (11) 
8.856639

>  <VSA_EState7>  (11) 
4.784449

>  <VSA_EState8>  (11) 
1.1934

>  <VSA_EState9>  (11) 
0.0

>  <FractionCSP3>  (11) 
0.380952

>  <HeavyAtomCount>  (11) 
30

>  <NHOHCount>  (11) 
5

>  <NOCount>  (11) 
8

>  <NumAliphaticCarbocycles>  (11) 
0

>  <NumAliphaticHeterocycles>  (11) 
3

>  <NumAliphaticRings>  (11) 
3

>  <NumAromaticCarbocycles>  (11) 
1

>  <NumAromaticHeterocycles>  (11) 
0

>  <NumAromaticRings>  (11) 
1

>  <NumHAcceptors>  (11) 
6

>  <NumHDonors>  (11) 
4

>  <NumHeteroatoms>  (11) 
9

>  <NumRotatableBonds>  (11) 
6

>  <NumSaturatedCarbocycles>  (11) 
0

>  <NumSaturatedHeterocycles>  (11) 
1

>  <NumSaturatedRings>  (11) 
1

>  <RingCount>  (11) 
4

>  <MolLogP>  (11) 
2.1005

>  <MolMR>  (11) 
115.4086

>  <fr_Al_COO>  (11) 
0

>  <fr_Al_OH>  (11) 
1

>  <fr_Al_OH_noTert>  (11) 
1

>  <fr_ArN>  (11) 
0

>  <fr_Ar_COO>  (11) 
0

>  <fr_Ar_N>  (11) 
3

>  <fr_Ar_NH>  (11) 
1

>  <fr_Ar_OH>  (11) 
0

>  <fr_COO>  (11) 
0

>  <fr_COO2>  (11) 
0

>  <fr_C_O>  (11) 
1

>  <fr_C_O_noCOO>  (11) 
1

>  <fr_C_S>  (11) 
0

>  <fr_HOCCN>  (11) 
0

>  <fr_Imine>  (11) 
0

>  <fr_NH0>  (11) 
3

>  <fr_NH1>  (11) 
2

>  <fr_NH2>  (11) 
1

>  <fr_N_O>  (11) 
0

>  <fr_Ndealkylation1>  (11) 
0

>  <fr_Ndealkylation2>  (11) 
0

>  <fr_Nhpyrrole>  (11) 
1

>  <fr_SH>  (11) 
0

>  <fr_aldehyde>  (11) 
0

>  <fr_alkyl_carbamate>  (11) 
0

>  <fr_alkyl_halide>  (11) 
0

>  <fr_allylic_oxid>  (11) 
0

>  <fr_amide>  (11) 
1

>  <fr_amidine>  (11) 
0

>  <fr_aniline>  (11) 
1

>  <fr_aryl_methyl>  (11) 
0

>  <fr_azide>  (11) 
0

>  <fr_azo>  (11) 
0

>  <fr_barbitur>  (11) 
0

>  <fr_benzene>  (11) 
1

>  <fr_benzodiazepine>  (11) 
0

>  <fr_bicyclic>  (11) 
1

>  <fr_diazo>  (11) 
0

>  <fr_dihydropyridine>  (11) 
0

>  <fr_epoxide>  (11) 
0

>  <fr_ester>  (11) 
0

>  <fr_ether>  (11) 
0

>  <fr_furan>  (11) 
0

>  <fr_guanido>  (11) 
0

>  <fr_halogen>  (11) 
1

>  <fr_hdrzine>  (11) 
0

>  <fr_hdrzone>  (11) 
0

>  <fr_imidazole>  (11) 
0

>  <fr_imide>  (11) 
0

>  <fr_isocyan>  (11) 
0

>  <fr_isothiocyan>  (11) 
0

>  <fr_ketone>  (11) 
0

>  <fr_ketone_Topliss>  (11) 
0

>  <fr_lactam>  (11) 
0

>  <fr_lactone>  (11) 
0

>  <fr_methoxy>  (11) 
0

>  <fr_morpholine>  (11) 
0

>  <fr_nitrile>  (11) 
0

>  <fr_nitro>  (11) 
0

>  <fr_nitro_arom>  (11) 
0

>  <fr_nitro_arom_nonortho>  (11) 
0

>  <fr_nitroso>  (11) 
0

>  <fr_oxazole>  (11) 
0

>  <fr_oxime>  (11) 
0

>  <fr_para_hydroxylation>  (11) 
0

>  <fr_phenol>  (11) 
0

>  <fr_phenol_noOrthoHbond>  (11) 
0

>  <fr_phos_acid>  (11) 
0

>  <fr_phos_ester>  (11) 
0

>  <fr_piperdine>  (11) 
1

>  <fr_piperzine>  (11) 
0

>  <fr_priamide>  (11) 
0

>  <fr_prisulfonamd>  (11) 
0

>  <fr_pyridine>  (11) 
0

>  <fr_quatN>  (11) 
0

>  <fr_sulfide>  (11) 
0

>  <fr_sulfonamd>  (11) 
0

>  <fr_sulfone>  (11) 
0

>  <fr_term_acetylene>  (11) 
0

>  <fr_tetrazole>  (11) 
0

>  <fr_thiazole>  (11) 
0

>  <fr_thiocyan>  (11) 
0

>  <fr_thiophene>  (11) 
0

>  <fr_unbrch_alkane>  (11) 
0

>  <fr_urea>  (11) 
0

>  <NP_Likeness>  (11) 
-0.430998

$$$$
CHEMBL266487
     RDKit          3D

  0  0  0  0  0  0  0  0  0  0999 V3000
M  V30 BEGIN CTAB
M  V30 COUNTS 38 42 0 0 0
M  V30 BEGIN ATOM
M  V30 1 O -0.983770 -4.768993 0.546017 0
M  V30 2 C 0.085269 -4.144131 0.516222 0
M  V30 3 N 1.441193 -4.569026 0.395807 0
M  V30 4 C 2.242711 -3.382714 0.421468 0
M  V30 5 O 3.479588 -3.531426 0.328986 0
M  V30 6 C 1.331056 -2.248248 0.558033 0
M  V30 7 C 1.941410 -0.927392 0.539485 0
M  V30 8 C 2.979770 -0.355533 1.255838 0
M  V30 9 N 3.196303 0.902701 0.850301 0
M  V30 10 C 2.333515 1.230905 -0.137835 0
M  V30 11 C 2.151320 2.366874 -0.881907 0
M  V30 12 C 1.185126 2.439593 -1.862308 0
M  V30 13 C 0.395564 1.338610 -2.084839 0
M  V30 14 C 0.609100 0.215986 -1.316575 0
M  V30 15 C 1.562216 0.093525 -0.322920 0
M  V30 16 C 0.064006 -2.669279 0.617447 0
M  V30 17 C -1.094336 -1.793315 0.801981 0
M  V30 18 C -2.299158 -1.757368 0.088981 0
M  V30 19 N -3.095471 -0.795357 0.620134 0
M  V30 20 C -2.469261 -0.193903 1.654209 0
M  V30 21 C -2.914700 0.832646 2.486853 0
M  V30 22 C -2.054998 1.261456 3.497474 0
M  V30 23 C -0.797307 0.676263 3.659894 0
M  V30 24 C -0.453883 -0.331084 2.782599 0
M  V30 25 C -1.233860 -0.814961 1.761367 0
M  V30 26 H 1.676377 -5.572852 0.312193 0
M  V30 27 H 3.511866 -0.908437 2.035177 0
M  V30 28 H 3.914341 1.575589 1.210089 0
M  V30 29 H 2.742680 3.256577 -0.748405 0
M  V30 30 H 1.010794 3.322296 -2.473793 0
M  V30 31 H -0.365654 1.392218 -2.855152 0
M  V30 32 H -0.054937 -0.603660 -1.568325 0
M  V30 33 H -2.522574 -2.403310 -0.740412 0
M  V30 34 H -4.063609 -0.588219 0.239554 0
M  V30 35 H -3.892735 1.272989 2.345524 0
M  V30 36 H -2.440213 2.061081 4.119775 0
M  V30 37 H -0.167072 1.039618 4.453067 0
M  V30 38 H 0.524050 -0.740851 2.976176 0
M  V30 END ATOM
M  V30 BEGIN BOND
M  V30 1 2 1 2
M  V30 2 1 2 3
M  V30 3 1 3 4
M  V30 4 2 4 5
M  V30 5 1 4 6
M  V30 6 1 6 7
M  V30 7 2 7 8
M  V30 8 1 8 9
M  V30 9 1 9 10
M  V30 10 2 10 11
M  V30 11 1 11 12
M  V30 12 2 12 13
M  V30 13 1 13 14
M  V30 14 2 14 15
M  V30 15 2 6 16
M  V30 16 1 16 17
M  V30 17 2 17 18
M  V30 18 1 18 19
M  V30 19 1 19 20
M  V30 20 2 20 21
M  V30 21 1 21 22
M  V30 22 2 22 23
M  V30 23 1 23 24
M  V30 24 2 24 25
M  V30 25 1 16 2
M  V30 26 1 25 17
M  V30 27 1 15 7
M  V30 28 1 25 20
M  V30 29 1 15 10
M  V30 30 1 3 26
M  V30 31 1 8 27
M  V30 32 1 9 28
M  V30 33 1 11 29
M  V30 34 1 12 30
M  V30 35 1 13 31
M  V30 36 1 14 32
M  V30 37 1 18 33
M  V30 38 1 19 34
M  V30 39 1 21 35
M  V30 40 1 22 36
M  V30 41 1 23 37
M  V30 42 1 24 38
M  V30 END BOND
M  V30 END CTAB
M  END
>  <Dataset>  (12) 
ChEMBL_PKA

>  <Ligand_Instance>  (12) 
nan

>  <PDB_ID>  (12) 
nan

>  <Standardized_SMILES>  (12) 
O=C1NC(=O)C(c2c[nH]c3ccccc23)=C1c1c[nH]c2ccccc12

>  <Name>  (12) 
RO-316233

>  <Pocket>  (12) 
nan

>  <ATP_Site>  (12) 
nan

>  <Peripheral>  (12) 
nan

>  <Num_H_Atoms_ProtBoundConf>  (12) 
nan

>  <Num_Resolved_Atoms>  (12) 
nan

>  <Num_Not_Resolved_Atoms>  (12) 
nan

>  <2D_Mol_H>  (12) 
<rdkit.Chem.rdchem.Mol object at 0x72a239101fc0>

>  <MW>  (12) 
327.343

>  <HBA>  (12) 
2

>  <HBD>  (12) 
3

>  <LogP>  (12) 
3.2164

>  <NRB>  (12) 
2

>  <TPSA>  (12) 
77.75

>  <Num_Heavy_Atoms>  (12) 
25

>  <Ro5>  (12) 
[True, True, True, True, True, True]

>  <Ro5_Fulfilled>  (12) 
True

>  <Ro3>  (12) 
[False, True, True, False]

>  <Ro3_Fulfilled>  (12) 
False

>  <Fsp3>  (12) 
0.0

>  <Fsp3_0.42>  (12) 
False

>  <Fsp3_0.45>  (12) 
False

>  <Stereogenic_Carbons>  (12) 
0

>  <C_Atoms>  (12) 
20

>  <FCStereo>  (12) 
0.0

>  <SPS>  (12) 
368

>  <nSPS>  (12) 
14.72

>  <PBF>  (12) 
1.292263

>  <PBF_0.6>  (12) 
True

>  <nPBF>  (12) 
0.051691

>  <nPBF_0.016>  (12) 
True

>  <PMI1>  (12) 
1956.185497

>  <PMI2>  (12) 
2012.526848

>  <PMI3>  (12) 
2962.617734

>  <NPR1>  (12) 
0.66029

>  <NPR2>  (12) 
0.679307

>  <Sum_NPR>  (12) 
1.339596

>  <Sum_NPR_1.07>  (12) 
True

>  <Sum_NPR_1.2>  (12) 
True

>  <MaxAbsEStateIndex>  (12) 
12.554573

>  <MaxEStateIndex>  (12) 
12.554573

>  <MinAbsEStateIndex>  (12) 
0.365709

>  <MinEStateIndex>  (12) 
-0.365709

>  <qed>  (12) 
0.494386

>  <MolWt>  (12) 
327.343

>  <HeavyAtomMolWt>  (12) 
314.239

>  <ExactMolWt>  (12) 
327.100777

>  <NumValenceElectrons>  (12) 
120

>  <NumRadicalElectrons>  (12) 
0

>  <MaxPartialCharge>  (12) 
0.259139

>  <MinPartialCharge>  (12) 
-0.360539

>  <MaxAbsPartialCharge>  (12) 
0.360539

>  <MinAbsPartialCharge>  (12) 
0.259139

>  <FpDensityMorgan1>  (12) 
0.6

>  <FpDensityMorgan2>  (12) 
1.04

>  <FpDensityMorgan3>  (12) 
1.52

>  <BCUT2D_MWHI>  (12) 
16.172559

>  <BCUT2D_MWLOW>  (12) 
9.95482

>  <BCUT2D_CHGHI>  (12) 
2.339632

>  <BCUT2D_CHGLO>  (12) 
-2.025488

>  <BCUT2D_LOGPHI>  (12) 
2.367757

>  <BCUT2D_LOGPLOW>  (12) 
-2.222796

>  <BCUT2D_MRHI>  (12) 
6.503679

>  <BCUT2D_MRLOW>  (12) 
-0.122337

>  <AvgIpc>  (12) 
3.29573

>  <BalabanJ>  (12) 
1.850163

>  <BertzCT>  (12) 
1115.878149

>  <Chi0>  (12) 
16.965891

>  <Chi0n>  (12) 
13.089999

>  <Chi0v>  (12) 
13.089999

>  <Chi1>  (12) 
12.237183

>  <Chi1n>  (12) 
7.967649

>  <Chi1v>  (12) 
7.967649

>  <Chi2n>  (12) 
6.029116

>  <Chi2v>  (12) 
6.029116

>  <Chi3n>  (12) 
4.648351

>  <Chi3v>  (12) 
4.648351

>  <Chi4n>  (12) 
3.525852

>  <Chi4v>  (12) 
3.525852

>  <HallKierAlpha>  (12) 
-3.6

>  <Ipc>  (12) 
1364593.891455

>  <Kappa1>  (12) 
13.804055

>  <Kappa2>  (12) 
4.945853

>  <Kappa3>  (12) 
1.89318

>  <LabuteASA>  (12) 
141.907388

>  <PEOE_VSA1>  (12) 
9.967957

>  <PEOE_VSA10>  (12) 
0.0

>  <PEOE_VSA11>  (12) 
0.0

>  <PEOE_VSA12>  (12) 
0.0

>  <PEOE_VSA13>  (12) 
11.814359

>  <PEOE_VSA14>  (12) 
0.0

>  <PEOE_VSA2>  (12) 
14.905863

>  <PEOE_VSA3>  (12) 
0.0

>  <PEOE_VSA4>  (12) 
0.0

>  <PEOE_VSA5>  (12) 
0.0

>  <PEOE_VSA6>  (12) 
36.398202

>  <PEOE_VSA7>  (12) 
12.132734

>  <PEOE_VSA8>  (12) 
45.32644

>  <PEOE_VSA9>  (12) 
11.146209

>  <SMR_VSA1>  (12) 
9.589074

>  <SMR_VSA10>  (12) 
44.766418

>  <SMR_VSA2>  (12) 
0.0

>  <SMR_VSA3>  (12) 
15.284746

>  <SMR_VSA4>  (12) 
0.0

>  <SMR_VSA5>  (12) 
0.0

>  <SMR_VSA6>  (12) 
0.0

>  <SMR_VSA7>  (12) 
72.051527

>  <SMR_VSA8>  (12) 
0.0

>  <SMR_VSA9>  (12) 
0.0

>  <SlogP_VSA1>  (12) 
5.316789

>  <SlogP_VSA10>  (12) 
0.0

>  <SlogP_VSA11>  (12) 
0.0

>  <SlogP_VSA12>  (12) 
0.0

>  <SlogP_VSA2>  (12) 
21.782317

>  <SlogP_VSA3>  (12) 
9.589074

>  <SlogP_VSA4>  (12) 
0.0

>  <SlogP_VSA5>  (12) 
11.126903

>  <SlogP_VSA6>  (12) 
60.924624

>  <SlogP_VSA7>  (12) 
0.0

>  <SlogP_VSA8>  (12) 
32.952059

>  <SlogP_VSA9>  (12) 
0.0

>  <EState_VSA1>  (12) 
0.0

>  <EState_VSA10>  (12) 
9.589074

>  <EState_VSA11>  (12) 
0.0

>  <EState_VSA2>  (12) 
11.814359

>  <EState_VSA3>  (12) 
11.146209

>  <EState_VSA4>  (12) 
32.932753

>  <EState_VSA5>  (12) 
0.0

>  <EState_VSA6>  (12) 
12.393687

>  <EState_VSA7>  (12) 
48.530937

>  <EState_VSA8>  (12) 
15.284746

>  <EState_VSA9>  (12) 
0.0

>  <VSA_EState1>  (12) 
0.0

>  <VSA_EState10>  (12) 
0.0

>  <VSA_EState2>  (12) 
31.449493

>  <VSA_EState3>  (12) 
4.275962

>  <VSA_EState4>  (12) 
4.142333

>  <VSA_EState5>  (12) 
-0.731418

>  <VSA_EState6>  (12) 
15.460803

>  <VSA_EState7>  (12) 
3.569494

>  <VSA_EState8>  (12) 
0.0

>  <VSA_EState9>  (12) 
0.0

>  <FractionCSP3>  (12) 
0.0

>  <HeavyAtomCount>  (12) 
25

>  <NHOHCount>  (12) 
3

>  <NOCount>  (12) 
5

>  <NumAliphaticCarbocycles>  (12) 
0

>  <NumAliphaticHeterocycles>  (12) 
1

>  <NumAliphaticRings>  (12) 
1

>  <NumAromaticCarbocycles>  (12) 
2

>  <NumAromaticHeterocycles>  (12) 
2

>  <NumAromaticRings>  (12) 
4

>  <NumHAcceptors>  (12) 
2

>  <NumHDonors>  (12) 
3

>  <NumHeteroatoms>  (12) 
5

>  <NumRotatableBonds>  (12) 
2

>  <NumSaturatedCarbocycles>  (12) 
0

>  <NumSaturatedHeterocycles>  (12) 
0

>  <NumSaturatedRings>  (12) 
0

>  <RingCount>  (12) 
5

>  <MolLogP>  (12) 
3.2164

>  <MolMR>  (12) 
96.5611

>  <fr_Al_COO>  (12) 
0

>  <fr_Al_OH>  (12) 
0

>  <fr_Al_OH_noTert>  (12) 
0

>  <fr_ArN>  (12) 
0

>  <fr_Ar_COO>  (12) 
0

>  <fr_Ar_N>  (12) 
2

>  <fr_Ar_NH>  (12) 
2

>  <fr_Ar_OH>  (12) 
0

>  <fr_COO>  (12) 
0

>  <fr_COO2>  (12) 
0

>  <fr_C_O>  (12) 
2

>  <fr_C_O_noCOO>  (12) 
2

>  <fr_C_S>  (12) 
0

>  <fr_HOCCN>  (12) 
0

>  <fr_Imine>  (12) 
0

>  <fr_NH0>  (12) 
0

>  <fr_NH1>  (12) 
3

>  <fr_NH2>  (12) 
0

>  <fr_N_O>  (12) 
0

>  <fr_Ndealkylation1>  (12) 
0

>  <fr_Ndealkylation2>  (12) 
0

>  <fr_Nhpyrrole>  (12) 
2

>  <fr_SH>  (12) 
0

>  <fr_aldehyde>  (12) 
0

>  <fr_alkyl_carbamate>  (12) 
0

>  <fr_alkyl_halide>  (12) 
0

>  <fr_allylic_oxid>  (12) 
0

>  <fr_amide>  (12) 
2

>  <fr_amidine>  (12) 
0

>  <fr_aniline>  (12) 
0

>  <fr_aryl_methyl>  (12) 
0

>  <fr_azide>  (12) 
0

>  <fr_azo>  (12) 
0

>  <fr_barbitur>  (12) 
0

>  <fr_benzene>  (12) 
2

>  <fr_benzodiazepine>  (12) 
0

>  <fr_bicyclic>  (12) 
2

>  <fr_diazo>  (12) 
0

>  <fr_dihydropyridine>  (12) 
0

>  <fr_epoxide>  (12) 
0

>  <fr_ester>  (12) 
0

>  <fr_ether>  (12) 
0

>  <fr_furan>  (12) 
0

>  <fr_guanido>  (12) 
0

>  <fr_halogen>  (12) 
0

>  <fr_hdrzine>  (12) 
0

>  <fr_hdrzone>  (12) 
0

>  <fr_imidazole>  (12) 
0

>  <fr_imide>  (12) 
1

>  <fr_isocyan>  (12) 
0

>  <fr_isothiocyan>  (12) 
0

>  <fr_ketone>  (12) 
0

>  <fr_ketone_Topliss>  (12) 
0

>  <fr_lactam>  (12) 
0

>  <fr_lactone>  (12) 
0

>  <fr_methoxy>  (12) 
0

>  <fr_morpholine>  (12) 
0

>  <fr_nitrile>  (12) 
0

>  <fr_nitro>  (12) 
0

>  <fr_nitro_arom>  (12) 
0

>  <fr_nitro_arom_nonortho>  (12) 
0

>  <fr_nitroso>  (12) 
0

>  <fr_oxazole>  (12) 
0

>  <fr_oxime>  (12) 
0

>  <fr_para_hydroxylation>  (12) 
2

>  <fr_phenol>  (12) 
0

>  <fr_phenol_noOrthoHbond>  (12) 
0

>  <fr_phos_acid>  (12) 
0

>  <fr_phos_ester>  (12) 
0

>  <fr_piperdine>  (12) 
0

>  <fr_piperzine>  (12) 
0

>  <fr_priamide>  (12) 
0

>  <fr_prisulfonamd>  (12) 
0

>  <fr_pyridine>  (12) 
0

>  <fr_quatN>  (12) 
0

>  <fr_sulfide>  (12) 
0

>  <fr_sulfonamd>  (12) 
0

>  <fr_sulfone>  (12) 
0

>  <fr_term_acetylene>  (12) 
0

>  <fr_tetrazole>  (12) 
0

>  <fr_thiazole>  (12) 
0

>  <fr_thiocyan>  (12) 
0

>  <fr_thiophene>  (12) 
0

>  <fr_unbrch_alkane>  (12) 
0

>  <fr_urea>  (12) 
0

>  <NP_Likeness>  (12) 
0.122752

$$$$
CHEMBL278041
     RDKit          3D

  0  0  0  0  0  0  0  0  0  0999 V3000
M  V30 BEGIN CTAB
M  V30 COUNTS 39 42 0 0 0
M  V30 BEGIN ATOM
M  V30 1 O 2.283708 -4.770793 6.069531 0
M  V30 2 C 1.885645 -3.912349 5.034775 0
M  V30 3 C 1.049509 -4.417208 4.063628 0
M  V30 4 C 0.652683 -3.558819 3.030598 0
M  V30 5 C 1.136308 -2.258195 3.066826 0
M  V30 6 C 0.715860 -1.368813 1.982928 0
M  V30 7 N 1.034645 -0.076671 1.778615 0
M  V30 8 C 0.443696 0.391625 0.662329 0
M  V30 9 C 0.535136 1.734125 0.095678 0
M  V30 10 C 1.124299 1.714450 -1.156991 0
M  V30 11 C 1.317287 2.878956 -1.891653 0
M  V30 12 C 0.901413 4.095036 -1.340342 0
M  V30 13 F 1.057384 5.287402 -2.003716 0
M  V30 14 C 0.320332 4.096262 -0.099748 0
M  V30 15 C 0.129243 2.940865 0.628267 0
M  V30 16 C -0.287274 -0.649739 0.127676 0
M  V30 17 C -1.114960 -0.677842 -1.078353 0
M  V30 18 C -0.943921 -1.470107 -2.195727 0
M  V30 19 C -1.847376 -1.345359 -3.246006 0
M  V30 20 N -2.880167 -0.484399 -3.216490 0
M  V30 21 C -3.032077 0.278220 -2.123158 0
M  V30 22 C -2.183483 0.219795 -1.036084 0
M  V30 23 N -0.098025 -1.708912 0.959864 0
M  V30 24 C 1.974091 -1.769045 4.048673 0
M  V30 25 C 2.372614 -2.623553 5.082094 0
M  V30 26 H 1.606213 -5.403385 6.511915 0
M  V30 27 H 0.705589 -5.448673 4.093642 0
M  V30 28 H 0.005565 -3.949118 2.278711 0
M  V30 29 H 1.484371 0.853633 -1.687051 0
M  V30 30 H 1.758955 2.961217 -2.857667 0
M  V30 31 H -0.032509 4.990413 0.406410 0
M  V30 32 H -0.315965 2.835880 1.607710 0
M  V30 33 H -0.103316 -2.133439 -2.155706 0
M  V30 34 H -1.594842 -2.030113 -4.065639 0
M  V30 35 H -3.880715 0.974684 -2.117635 0
M  V30 36 H -2.402937 0.871485 -0.227494 0
M  V30 37 H -0.539160 -2.644640 0.797548 0
M  V30 38 H 2.325818 -0.749029 4.036448 0
M  V30 39 H 3.023329 -2.314651 5.881707 0
M  V30 END ATOM
M  V30 BEGIN BOND
M  V30 1 1 1 2
M  V30 2 2 2 3
M  V30 3 1 3 4
M  V30 4 2 4 5
M  V30 5 1 5 6
M  V30 6 2 6 7
M  V30 7 1 7 8
M  V30 8 1 8 9
M  V30 9 2 9 10
M  V30 10 1 10 11
M  V30 11 2 11 12
M  V30 12 1 12 13
M  V30 13 1 12 14
M  V30 14 2 14 15
M  V30 15 2 8 16
M  V30 16 1 16 17
M  V30 17 2 17 18
M  V30 18 1 18 19
M  V30 19 2 19 20
M  V30 20 1 20 21
M  V30 21 2 21 22
M  V30 22 1 16 23
M  V30 23 1 5 24
M  V30 24 2 24 25
M  V30 25 1 25 2
M  V30 26 1 23 6
M  V30 27 1 15 9
M  V30 28 1 22 17
M  V30 29 1 1 26
M  V30 30 1 3 27
M  V30 31 1 4 28
M  V30 32 1 10 29
M  V30 33 1 11 30
M  V30 34 1 14 31
M  V30 35 1 15 32
M  V30 36 1 18 33
M  V30 37 1 19 34
M  V30 38 1 21 35
M  V30 39 1 22 36
M  V30 40 1 23 37
M  V30 41 1 24 38
M  V30 42 1 25 39
M  V30 END BOND
M  V30 END CTAB
M  END
>  <Dataset>  (13) 
ChEMBL_PKA

>  <Ligand_Instance>  (13) 
nan

>  <PDB_ID>  (13) 
nan

>  <Standardized_SMILES>  (13) 
Oc1ccc(-c2nc(-c3ccc(F)cc3)c(-c3ccncc3)[nH]2)cc1

>  <Name>  (13) 
SB-202190

>  <Pocket>  (13) 
nan

>  <ATP_Site>  (13) 
nan

>  <Peripheral>  (13) 
nan

>  <Num_H_Atoms_ProtBoundConf>  (13) 
nan

>  <Num_Resolved_Atoms>  (13) 
nan

>  <Num_Not_Resolved_Atoms>  (13) 
nan

>  <2D_Mol_H>  (13) 
<rdkit.Chem.rdchem.Mol object at 0x72a2391020a0>

>  <MW>  (13) 
331.35

>  <HBA>  (13) 
3

>  <HBD>  (13) 
2

>  <LogP>  (13) 
4.6504

>  <NRB>  (13) 
4

>  <TPSA>  (13) 
61.8

>  <Num_Heavy_Atoms>  (13) 
25

>  <Ro5>  (13) 
[True, True, True, True, True, True]

>  <Ro5_Fulfilled>  (13) 
True

>  <Ro3>  (13) 
[False, True, True, False]

>  <Ro3_Fulfilled>  (13) 
False

>  <Fsp3>  (13) 
0.0

>  <Fsp3_0.42>  (13) 
False

>  <Fsp3_0.45>  (13) 
False

>  <Stereogenic_Carbons>  (13) 
0

>  <C_Atoms>  (13) 
20

>  <FCStereo>  (13) 
0.0

>  <SPS>  (13) 
269

>  <nSPS>  (13) 
10.76

>  <PBF>  (13) 
0.670134

>  <PBF_0.6>  (13) 
True

>  <nPBF>  (13) 
0.026805

>  <nPBF_0.016>  (13) 
True

>  <PMI1>  (13) 
1422.974752

>  <PMI2>  (13) 
4535.930155

>  <PMI3>  (13) 
5675.083114

>  <NPR1>  (13) 
0.250741

>  <NPR2>  (13) 
0.799271

>  <Sum_NPR>  (13) 
1.050012

>  <Sum_NPR_1.07>  (13) 
False

>  <Sum_NPR_1.2>  (13) 
False

>  <MaxAbsEStateIndex>  (13) 
13.273722

>  <MaxEStateIndex>  (13) 
13.273722

>  <MinAbsEStateIndex>  (13) 
0.197612

>  <MinEStateIndex>  (13) 
-0.288421

>  <qed>  (13) 
0.574239

>  <MolWt>  (13) 
331.35

>  <HeavyAtomMolWt>  (13) 
317.238

>  <ExactMolWt>  (13) 
331.11209

>  <NumValenceElectrons>  (13) 
122

>  <NumRadicalElectrons>  (13) 
0

>  <MaxPartialCharge>  (13) 
0.138032

>  <MinPartialCharge>  (13) 
-0.507966

>  <MaxAbsPartialCharge>  (13) 
0.507966

>  <MinAbsPartialCharge>  (13) 
0.138032

>  <FpDensityMorgan1>  (13) 
0.76

>  <FpDensityMorgan2>  (13) 
1.4

>  <FpDensityMorgan3>  (13) 
2.08

>  <BCUT2D_MWHI>  (13) 
19.142143

>  <BCUT2D_MWLOW>  (13) 
10.063103

>  <BCUT2D_CHGHI>  (13) 
2.149753

>  <BCUT2D_CHGLO>  (13) 
-2.023359

>  <BCUT2D_LOGPHI>  (13) 
2.327025

>  <BCUT2D_LOGPLOW>  (13) 
-1.844596

>  <BCUT2D_MRHI>  (13) 
5.806287

>  <BCUT2D_MRLOW>  (13) 
0.47517

>  <AvgIpc>  (13) 
3.089121

>  <BalabanJ>  (13) 
1.885294

>  <BertzCT>  (13) 
993.562933

>  <Chi0>  (13) 
17.225404

>  <Chi0n>  (13) 
13.147808

>  <Chi0v>  (13) 
13.147808

>  <Chi1>  (13) 
12.20351

>  <Chi1n>  (13) 
7.762952

>  <Chi1v>  (13) 
7.762952

>  <Chi2n>  (13) 
5.598673

>  <Chi2v>  (13) 
5.598673

>  <Chi3n>  (13) 
3.931208

>  <Chi3v>  (13) 
3.931208

>  <Chi4n>  (13) 
2.673389

>  <Chi4v>  (13) 
2.673389

>  <HallKierAlpha>  (13) 
-3.47

>  <Ipc>  (13) 
997020.073446

>  <Kappa1>  (13) 
15.080885

>  <Kappa2>  (13) 
6.203018

>  <Kappa3>  (13) 
2.993086

>  <LabuteASA>  (13) 
143.210911

>  <PEOE_VSA1>  (13) 
10.090506

>  <PEOE_VSA10>  (13) 
17.391137

>  <PEOE_VSA11>  (13) 
0.0

>  <PEOE_VSA12>  (13) 
0.0

>  <PEOE_VSA13>  (13) 
0.0

>  <PEOE_VSA14>  (13) 
0.0

>  <PEOE_VSA2>  (13) 
4.983979

>  <PEOE_VSA3>  (13) 
9.374394

>  <PEOE_VSA4>  (13) 
0.0

>  <PEOE_VSA5>  (13) 
0.0

>  <PEOE_VSA6>  (13) 
0.0

>  <PEOE_VSA7>  (13) 
60.663671

>  <PEOE_VSA8>  (13) 
29.084042

>  <PEOE_VSA9>  (13) 
11.387856

>  <SMR_VSA1>  (13) 
9.496942

>  <SMR_VSA10>  (13) 
0.0

>  <SMR_VSA2>  (13) 
0.0

>  <SMR_VSA3>  (13) 
14.951936

>  <SMR_VSA4>  (13) 
0.0

>  <SMR_VSA5>  (13) 
0.0

>  <SMR_VSA6>  (13) 
0.0

>  <SMR_VSA7>  (13) 
78.874579

>  <SMR_VSA8>  (13) 
0.0

>  <SMR_VSA9>  (13) 
39.652127

>  <SlogP_VSA1>  (13) 
0.0

>  <SlogP_VSA10>  (13) 
4.390415

>  <SlogP_VSA11>  (13) 
5.749512

>  <SlogP_VSA12>  (13) 
0.0

>  <SlogP_VSA2>  (13) 
20.058463

>  <SlogP_VSA3>  (13) 
0.0

>  <SlogP_VSA4>  (13) 
5.817221

>  <SlogP_VSA5>  (13) 
0.0

>  <SlogP_VSA6>  (13) 
73.057358

>  <SlogP_VSA7>  (13) 
0.0

>  <SlogP_VSA8>  (13) 
33.902615

>  <SlogP_VSA9>  (13) 
0.0

>  <EState_VSA1>  (13) 
0.0

>  <EState_VSA10>  (13) 
9.496942

>  <EState_VSA11>  (13) 
0.0

>  <EState_VSA2>  (13) 
11.566733

>  <EState_VSA3>  (13) 
5.824404

>  <EState_VSA4>  (13) 
28.07821

>  <EState_VSA5>  (13) 
12.132734

>  <EState_VSA6>  (13) 
48.79189

>  <EState_VSA7>  (13) 
12.132734

>  <EState_VSA8>  (13) 
9.967957

>  <EState_VSA9>  (13) 
4.983979

>  <VSA_EState1>  (13) 
13.273722

>  <VSA_EState10>  (13) 
0.0

>  <VSA_EState2>  (13) 
12.086914

>  <VSA_EState3>  (13) 
9.472315

>  <VSA_EState4>  (13) 
4.161268

>  <VSA_EState5>  (13) 
0.58154

>  <VSA_EState6>  (13) 
16.831299

>  <VSA_EState7>  (13) 
3.426276

>  <VSA_EState8>  (13) 
0.0

>  <VSA_EState9>  (13) 
0.0

>  <FractionCSP3>  (13) 
0.0

>  <HeavyAtomCount>  (13) 
25

>  <NHOHCount>  (13) 
2

>  <NOCount>  (13) 
4

>  <NumAliphaticCarbocycles>  (13) 
0

>  <NumAliphaticHeterocycles>  (13) 
0

>  <NumAliphaticRings>  (13) 
0

>  <NumAromaticCarbocycles>  (13) 
2

>  <NumAromaticHeterocycles>  (13) 
2

>  <NumAromaticRings>  (13) 
4

>  <NumHAcceptors>  (13) 
3

>  <NumHDonors>  (13) 
2

>  <NumHeteroatoms>  (13) 
5

>  <NumRotatableBonds>  (13) 
3

>  <NumSaturatedCarbocycles>  (13) 
0

>  <NumSaturatedHeterocycles>  (13) 
0

>  <NumSaturatedRings>  (13) 
0

>  <RingCount>  (13) 
4

>  <MolLogP>  (13) 
4.6504

>  <MolMR>  (13) 
94.3135

>  <fr_Al_COO>  (13) 
0

>  <fr_Al_OH>  (13) 
0

>  <fr_Al_OH_noTert>  (13) 
0

>  <fr_ArN>  (13) 
0

>  <fr_Ar_COO>  (13) 
0

>  <fr_Ar_N>  (13) 
3

>  <fr_Ar_NH>  (13) 
1

>  <fr_Ar_OH>  (13) 
1

>  <fr_COO>  (13) 
0

>  <fr_COO2>  (13) 
0

>  <fr_C_O>  (13) 
0

>  <fr_C_O_noCOO>  (13) 
0

>  <fr_C_S>  (13) 
0

>  <fr_HOCCN>  (13) 
0

>  <fr_Imine>  (13) 
0

>  <fr_NH0>  (13) 
2

>  <fr_NH1>  (13) 
1

>  <fr_NH2>  (13) 
0

>  <fr_N_O>  (13) 
0

>  <fr_Ndealkylation1>  (13) 
0

>  <fr_Ndealkylation2>  (13) 
0

>  <fr_Nhpyrrole>  (13) 
1

>  <fr_SH>  (13) 
0

>  <fr_aldehyde>  (13) 
0

>  <fr_alkyl_carbamate>  (13) 
0

>  <fr_alkyl_halide>  (13) 
0

>  <fr_allylic_oxid>  (13) 
0

>  <fr_amide>  (13) 
0

>  <fr_amidine>  (13) 
0

>  <fr_aniline>  (13) 
0

>  <fr_aryl_methyl>  (13) 
0

>  <fr_azide>  (13) 
0

>  <fr_azo>  (13) 
0

>  <fr_barbitur>  (13) 
0

>  <fr_benzene>  (13) 
2

>  <fr_benzodiazepine>  (13) 
0

>  <fr_bicyclic>  (13) 
0

>  <fr_diazo>  (13) 
0

>  <fr_dihydropyridine>  (13) 
0

>  <fr_epoxide>  (13) 
0

>  <fr_ester>  (13) 
0

>  <fr_ether>  (13) 
0

>  <fr_furan>  (13) 
0

>  <fr_guanido>  (13) 
0

>  <fr_halogen>  (13) 
1

>  <fr_hdrzine>  (13) 
0

>  <fr_hdrzone>  (13) 
0

>  <fr_imidazole>  (13) 
1

>  <fr_imide>  (13) 
0

>  <fr_isocyan>  (13) 
0

>  <fr_isothiocyan>  (13) 
0

>  <fr_ketone>  (13) 
0

>  <fr_ketone_Topliss>  (13) 
0

>  <fr_lactam>  (13) 
0

>  <fr_lactone>  (13) 
0

>  <fr_methoxy>  (13) 
0

>  <fr_morpholine>  (13) 
0

>  <fr_nitrile>  (13) 
0

>  <fr_nitro>  (13) 
0

>  <fr_nitro_arom>  (13) 
0

>  <fr_nitro_arom_nonortho>  (13) 
0

>  <fr_nitroso>  (13) 
0

>  <fr_oxazole>  (13) 
0

>  <fr_oxime>  (13) 
0

>  <fr_para_hydroxylation>  (13) 
0

>  <fr_phenol>  (13) 
1

>  <fr_phenol_noOrthoHbond>  (13) 
1

>  <fr_phos_acid>  (13) 
0

>  <fr_phos_ester>  (13) 
0

>  <fr_piperdine>  (13) 
0

>  <fr_piperzine>  (13) 
0

>  <fr_priamide>  (13) 
0

>  <fr_prisulfonamd>  (13) 
0

>  <fr_pyridine>  (13) 
1

>  <fr_quatN>  (13) 
0

>  <fr_sulfide>  (13) 
0

>  <fr_sulfonamd>  (13) 
0

>  <fr_sulfone>  (13) 
0

>  <fr_term_acetylene>  (13) 
0

>  <fr_tetrazole>  (13) 
0

>  <fr_thiazole>  (13) 
0

>  <fr_thiocyan>  (13) 
0

>  <fr_thiophene>  (13) 
0

>  <fr_unbrch_alkane>  (13) 
0

>  <fr_urea>  (13) 
0

>  <NP_Likeness>  (13) 
-0.845507

$$$$
CHEMBL279185
     RDKit          3D

  0  0  0  0  0  0  0  0  0  0999 V3000
M  V30 BEGIN CTAB
M  V30 COUNTS 189 191 0 0 0
M  V30 BEGIN ATOM
M  V30 1 N 1.087104 2.901299 4.803577 0
M  V30 2 C 0.013666 3.533089 5.388915 0
M  V30 3 N 1.216259 4.256523 5.497082 0
M  V30 4 N -1.268914 2.956393 5.377310 0
M  V30 5 C -1.713490 2.396212 4.087154 0
M  V30 6 C -3.036785 1.732764 4.244451 0
M  V30 7 C -3.534083 1.143986 2.992181 0
M  V30 8 C -3.873644 1.983599 1.829368 0 CFG=1
M  V30 9 N -2.782765 2.758806 1.324655 0
M  V30 10 C -2.854039 4.134767 0.980676 0
M  V30 11 O -4.036322 4.540915 1.189293 0
M  V30 12 C -1.795897 4.962273 0.488581 0 CFG=1
M  V30 13 C -1.372789 5.960005 1.604644 0
M  V30 14 C -2.517956 6.840568 2.024231 0
M  V30 15 C -1.979821 7.801424 3.063171 0
M  V30 16 N -1.444802 7.149251 4.216216 0
M  V30 17 C -2.177457 6.455067 5.190374 0
M  V30 18 N -3.347876 6.010025 4.857454 0
M  V30 19 N -1.640279 6.273957 6.468834 0
M  V30 20 N -0.534279 4.275931 0.162921 0
M  V30 21 C 0.553189 4.907626 -0.521688 0
M  V30 22 O 0.447266 6.136244 -0.855764 0
M  V30 23 C 1.800562 4.036440 -0.802299 0 CFG=1
M  V30 24 C 2.624761 4.105830 0.441605 0
M  V30 25 C 3.920995 3.457700 0.490359 0
M  V30 26 C 4.191261 2.026877 0.408594 0
M  V30 27 N 5.689064 1.909915 0.531844 0
M  V30 28 C 6.363056 2.428367 -0.626388 0
M  V30 29 N 5.760986 2.409691 -1.746063 0
M  V30 30 N 7.708894 2.933349 -0.454597 0
M  V30 31 N 1.381807 2.744453 -1.157936 0
M  V30 32 C 1.673348 1.640503 -1.946324 0
M  V30 33 O 2.731189 1.859962 -2.685390 0
M  V30 34 C 1.186971 0.300086 -2.229659 0 CFG=1
M  V30 35 C 1.569666 -0.257682 -3.523058 0
M  V30 36 C 0.971372 -1.585690 -3.787611 0
M  V30 37 C 1.408595 -2.154918 -5.131984 0
M  V30 38 N 0.776949 -3.458964 -5.239796 0
M  V30 39 C 0.951175 -4.108332 -6.519724 0
M  V30 40 N 1.712445 -3.609533 -7.443546 0
M  V30 41 N 0.238442 -5.324045 -6.689736 0
M  V30 42 N 1.258925 -0.491394 -1.031768 0
M  V30 43 C 2.290594 -1.417787 -0.935723 0
M  V30 44 O 3.023455 -1.314278 -1.990771 0
M  V30 45 C 3.060401 -2.482169 -0.316887 0 CFG=1
M  V30 46 C 4.569707 -2.397981 -0.534810 0
M  V30 47 C 5.272440 -3.584354 0.007355 0
M  V30 48 C 6.776911 -3.495778 -0.203312 0
M  V30 49 N 7.339200 -2.343611 0.407482 0
M  V30 50 C 8.740951 -2.137124 0.223833 0
M  V30 51 N 9.367725 -2.527047 -0.866703 0
M  V30 52 N 9.651210 -1.497717 1.094857 0
M  V30 53 N 2.724318 -2.820509 1.030460 0
M  V30 54 C 3.334248 -2.580743 2.281102 0
M  V30 55 O 4.408524 -1.837109 2.241100 0
M  V30 56 C 3.318153 -2.822765 3.775663 0 CFG=1
M  V30 57 C 3.100765 -1.521495 4.440745 0
M  V30 58 C 3.117092 -1.433476 5.925226 0
M  V30 59 C 2.078594 -2.236667 6.612163 0
M  V30 60 N 0.761081 -1.813529 6.200172 0
M  V30 61 C -0.180087 -2.702054 6.761176 0
M  V30 62 N -0.262891 -3.474674 7.806896 0
M  V30 63 N -1.512498 -2.971329 6.228332 0
M  V30 64 N 2.230456 -3.739840 4.034757 0
M  V30 65 C 2.245607 -5.090424 3.576480 0
M  V30 66 O 3.169004 -5.599702 2.840282 0
M  V30 67 C 1.365047 -6.243844 3.744650 0
M  V30 68 C 1.016241 -6.965710 2.445014 0
M  V30 69 C 0.189543 -6.041047 1.621203 0
M  V30 70 C -0.284774 -6.482287 0.285000 0
M  V30 71 C -1.111055 -5.284099 -0.261436 0
M  V30 72 N -1.671790 -5.647763 -1.510855 0
M  V30 73 C -2.444022 -4.527674 -1.904740 0
M  V30 74 O -2.730423 -3.362603 -1.483245 0
M  V30 75 C -3.300368 -4.157256 -2.985632 0 CFG=1
M  V30 76 O -3.861194 -2.862760 -2.965696 0
M  V30 77 C -4.765958 -2.959202 -4.041765 0 CFG=1
M  V30 78 N -5.227373 -1.686735 -4.407412 0
M  V30 79 C -6.459455 -1.634009 -5.047528 0
M  V30 80 N -6.728683 -0.370576 -5.320816 0
M  V30 81 C -5.704950 0.399656 -4.874395 0
M  V30 82 C -5.734335 1.813812 -5.042242 0
M  V30 83 N -6.773943 2.528081 -5.654882 0
M  V30 84 N -4.531488 2.201862 -4.465410 0
M  V30 85 C -3.642646 1.458223 -3.930976 0
M  V30 86 N -3.690238 0.088055 -3.806010 0
M  V30 87 C -4.799724 -0.445651 -4.318897 0
M  V30 88 C -4.134660 -3.797672 -5.079851 0 CFG=2
M  V30 89 O -4.912020 -4.955936 -5.286250 0
M  V30 90 C -2.846036 -4.309840 -4.407498 0 CFG=2
M  V30 91 O -2.520104 -5.586319 -4.775080 0
M  V30 92 C -4.365883 1.040952 0.737104 0
M  V30 93 N -4.612158 0.308579 -0.438671 0
M  V30 94 O -5.294863 0.376678 1.360598 0
M  V30 95 H 1.976008 3.506238 4.919512 0
M  V30 96 H 1.017016 5.072715 6.182310 0
M  V30 97 H 0.954783 5.017275 6.172012 0
M  V30 98 H -1.372543 3.206279 6.405442 0
M  V30 99 H -1.767951 3.230498 3.388849 0
M  V30 100 H -0.935775 1.665337 3.768723 0
M  V30 101 H -3.751109 2.488824 4.673357 0
M  V30 102 H -2.951597 0.895745 4.991794 0
M  V30 103 H -2.813564 0.313848 2.698522 0
M  V30 104 H -4.464706 0.538417 3.274854 0
M  V30 105 H -4.754151 2.636632 2.071297 0
M  V30 106 H -1.935772 2.166260 1.246716 0
M  V30 107 H -2.114341 5.623034 -0.338020 0
M  V30 108 H -0.585762 6.600030 1.166991 0
M  V30 109 H -1.045959 5.381781 2.470620 0
M  V30 110 H -3.332271 6.294224 2.528409 0
M  V30 111 H -2.881523 7.468727 1.172699 0
M  V30 112 H -2.778699 8.509100 3.407367 0
M  V30 113 H -1.205501 8.472819 2.579314 0
M  V30 114 H -0.398674 7.188624 4.348310 0
M  V30 115 H -3.886386 5.490179 5.604491 0
M  V30 116 H -0.739557 6.735044 6.751650 0
M  V30 117 H -2.036811 5.701987 7.235194 0
M  V30 118 H -0.560426 3.326422 0.503741 0
M  V30 119 H 2.325814 4.505701 -1.634455 0
M  V30 120 H 2.006169 3.673024 1.322564 0
M  V30 121 H 2.731942 5.193448 0.765190 0
M  V30 122 H 4.482568 3.797318 1.450095 0
M  V30 123 H 4.602239 3.934348 -0.331665 0
M  V30 124 H 3.816902 1.444158 1.294692 0
M  V30 125 H 3.987090 1.446384 -0.469569 0
M  V30 126 H 6.151450 1.519143 1.349368 0
M  V30 127 H 6.183677 2.775469 -2.658381 0
M  V30 128 H 8.689229 3.243272 -0.347398 0
M  V30 129 H 8.040606 3.884413 -0.114932 0
M  V30 130 H 0.492634 2.337606 -0.724154 0
M  V30 131 H 0.030410 0.404070 -2.349809 0
M  V30 132 H 1.062784 0.427940 -4.302170 0
M  V30 133 H 2.627832 -0.157100 -3.857465 0
M  V30 134 H 0.999465 -2.303709 -2.987057 0
M  V30 135 H -0.171168 -1.445245 -3.960948 0
M  V30 136 H 2.516330 -2.234683 -5.203528 0
M  V30 137 H 1.078375 -1.543552 -5.996626 0
M  V30 138 H 0.240358 -3.932052 -4.477537 0
M  V30 139 H 1.768795 -4.158126 -8.341417 0
M  V30 140 H 0.512201 -6.049346 -5.992728 0
M  V30 141 H -0.455470 -5.990338 -7.134219 0
M  V30 142 H 0.825381 -0.699335 -0.098668 0
M  V30 143 H 2.851836 -3.455523 -0.897392 0
M  V30 144 H 5.008376 -1.474393 -0.135532 0
M  V30 145 H 4.699475 -2.318170 -1.640566 0
M  V30 146 H 4.970276 -4.517469 -0.645414 0
M  V30 147 H 5.045966 -3.912100 0.996726 0
M  V30 148 H 7.275527 -4.400743 0.233750 0
M  V30 149 H 6.965848 -3.548703 -1.285635 0
M  V30 150 H 6.956563 -1.539940 1.000856 0
M  V30 151 H 8.886693 -3.001376 -1.640278 0
M  V30 152 H 9.756347 -0.477738 0.858933 0
M  V30 153 H 10.132235 -1.985651 1.865252 0
M  V30 154 H 1.896326 -3.331357 1.382612 0
M  V30 155 H 4.297394 -3.338440 4.033136 0
M  V30 156 H 2.129228 -1.048983 4.095302 0
M  V30 157 H 3.847555 -0.747842 4.083355 0
M  V30 158 H 2.893158 -0.339313 6.164285 0
M  V30 159 H 4.148630 -1.612372 6.337143 0
M  V30 160 H 2.208030 -2.025058 7.724651 0
M  V30 161 H 2.271237 -3.297600 6.423029 0
M  V30 162 H 0.303407 -1.067457 5.659069 0
M  V30 163 H 0.616836 -3.435928 8.436708 0
M  V30 164 H -2.398994 -3.249905 5.770887 0
M  V30 165 H -2.324173 -2.413718 6.652527 0
M  V30 166 H 1.279159 -3.805793 4.486098 0
M  V30 167 H 0.390340 -5.897356 4.168525 0
M  V30 168 H 1.746935 -6.984074 4.491403 0
M  V30 169 H 1.922714 -7.348606 1.972533 0
M  V30 170 H 0.417445 -7.844188 2.757903 0
M  V30 171 H -0.802874 -5.913609 2.220852 0
M  V30 172 H 0.597916 -5.040925 1.632275 0
M  V30 173 H -0.927156 -7.346069 0.333598 0
M  V30 174 H 0.502432 -6.627691 -0.462011 0
M  V30 175 H -0.455631 -4.392171 -0.299828 0
M  V30 176 H -1.888647 -5.085671 0.517865 0
M  V30 177 H -1.771693 -6.361721 -2.263086 0
M  V30 178 H -4.253121 -4.807636 -2.942500 0
M  V30 179 H -5.616075 -3.596386 -3.605470 0
M  V30 180 H -7.197115 -2.371063 -5.350275 0
M  V30 181 H -7.062518 1.966779 -6.495426 0
M  V30 182 H -6.836384 3.353789 -5.003021 0
M  V30 183 H -2.755257 1.964757 -3.536416 0
M  V30 184 H -3.925397 -3.291475 -6.036835 0
M  V30 185 H -4.651677 -5.459103 -6.096816 0
M  V30 186 H -2.069579 -3.571495 -4.696008 0
M  V30 187 H -2.637907 -5.677930 -5.751905 0
M  V30 188 H -5.329563 0.700334 -1.121459 0
M  V30 189 H -4.025429 -0.581698 -0.544200 0
M  V30 END ATOM
M  V30 BEGIN BOND
M  V30 1 2 1 2 CFG=2
M  V30 2 1 2 3
M  V30 3 1 2 4
M  V30 4 1 4 5
M  V30 5 1 5 6
M  V30 6 1 6 7
M  V30 7 1 7 8
M  V30 8 1 8 9
M  V30 9 1 9 10
M  V30 10 2 10 11
M  V30 11 1 10 12
M  V30 12 1 12 13
M  V30 13 1 13 14
M  V30 14 1 14 15
M  V30 15 1 15 16
M  V30 16 1 16 17
M  V30 17 2 17 18 CFG=2
M  V30 18 1 17 19
M  V30 19 1 12 20
M  V30 20 1 20 21
M  V30 21 2 21 22
M  V30 22 1 21 23
M  V30 23 1 23 24
M  V30 24 1 24 25
M  V30 25 1 25 26
M  V30 26 1 26 27
M  V30 27 1 27 28
M  V30 28 2 28 29 CFG=2
M  V30 29 1 28 30
M  V30 30 1 23 31
M  V30 31 1 31 32
M  V30 32 2 32 33
M  V30 33 1 32 34
M  V30 34 1 34 35
M  V30 35 1 35 36
M  V30 36 1 36 37
M  V30 37 1 37 38
M  V30 38 1 38 39
M  V30 39 2 39 40 CFG=2
M  V30 40 1 39 41
M  V30 41 1 34 42
M  V30 42 1 42 43
M  V30 43 2 43 44
M  V30 44 1 43 45
M  V30 45 1 45 46
M  V30 46 1 46 47
M  V30 47 1 47 48
M  V30 48 1 48 49
M  V30 49 1 49 50
M  V30 50 2 50 51 CFG=2
M  V30 51 1 50 52
M  V30 52 1 45 53
M  V30 53 1 53 54
M  V30 54 2 54 55
M  V30 55 1 54 56
M  V30 56 1 56 57
M  V30 57 1 57 58
M  V30 58 1 58 59
M  V30 59 1 59 60
M  V30 60 1 60 61
M  V30 61 2 61 62 CFG=2
M  V30 62 1 61 63
M  V30 63 1 56 64
M  V30 64 1 64 65
M  V30 65 2 65 66
M  V30 66 1 65 67
M  V30 67 1 67 68
M  V30 68 1 68 69
M  V30 69 1 69 70
M  V30 70 1 70 71
M  V30 71 1 71 72
M  V30 72 1 72 73
M  V30 73 2 73 74
M  V30 74 1 73 75
M  V30 75 1 75 76
M  V30 76 1 76 77
M  V30 77 1 77 78
M  V30 78 1 78 79
M  V30 79 2 79 80
M  V30 80 1 80 81
M  V30 81 2 81 82
M  V30 82 1 82 83
M  V30 83 1 82 84
M  V30 84 2 84 85
M  V30 85 1 85 86
M  V30 86 2 86 87
M  V30 87 1 77 88
M  V30 88 1 88 89
M  V30 89 1 88 90
M  V30 90 1 90 91
M  V30 91 1 8 92
M  V30 92 1 92 93
M  V30 93 2 92 94
M  V30 94 1 90 75
M  V30 95 1 87 78
M  V30 96 1 87 81
M  V30 97 1 1 95
M  V30 98 1 3 96
M  V30 99 1 3 97
M  V30 100 1 4 98
M  V30 101 1 5 99
M  V30 102 1 5 100
M  V30 103 1 6 101
M  V30 104 1 6 102
M  V30 105 1 7 103
M  V30 106 1 7 104
M  V30 107 1 8 105 CFG=1
M  V30 108 1 9 106
M  V30 109 1 12 107 CFG=3
M  V30 110 1 13 108
M  V30 111 1 13 109
M  V30 112 1 14 110
M  V30 113 1 14 111
M  V30 114 1 15 112
M  V30 115 1 15 113
M  V30 116 1 16 114
M  V30 117 1 18 115
M  V30 118 1 19 116
M  V30 119 1 19 117
M  V30 120 1 20 118
M  V30 121 1 23 119 CFG=3
M  V30 122 1 24 120
M  V30 123 1 24 121
M  V30 124 1 25 122
M  V30 125 1 25 123
M  V30 126 1 26 124
M  V30 127 1 26 125
M  V30 128 1 27 126
M  V30 129 1 29 127
M  V30 130 1 30 128
M  V30 131 1 30 129
M  V30 132 1 31 130
M  V30 133 1 34 131 CFG=3
M  V30 134 1 35 132
M  V30 135 1 35 133
M  V30 136 1 36 134
M  V30 137 1 36 135
M  V30 138 1 37 136
M  V30 139 1 37 137
M  V30 140 1 38 138
M  V30 141 1 40 139
M  V30 142 1 41 140
M  V30 143 1 41 141
M  V30 144 1 42 142
M  V30 145 1 45 143 CFG=3
M  V30 146 1 46 144
M  V30 147 1 46 145
M  V30 148 1 47 146
M  V30 149 1 47 147
M  V30 150 1 48 148
M  V30 151 1 48 149
M  V30 152 1 49 150
M  V30 153 1 51 151
M  V30 154 1 52 152
M  V30 155 1 52 153
M  V30 156 1 53 154
M  V30 157 1 56 155 CFG=1
M  V30 158 1 57 156
M  V30 159 1 57 157
M  V30 160 1 58 158
M  V30 161 1 58 159
M  V30 162 1 59 160
M  V30 163 1 59 161
M  V30 164 1 60 162
M  V30 165 1 62 163
M  V30 166 1 63 164
M  V30 167 1 63 165
M  V30 168 1 64 166
M  V30 169 1 67 167
M  V30 170 1 67 168
M  V30 171 1 68 169
M  V30 172 1 68 170
M  V30 173 1 69 171
M  V30 174 1 69 172
M  V30 175 1 70 173
M  V30 176 1 70 174
M  V30 177 1 71 175
M  V30 178 1 71 176
M  V30 179 1 72 177
M  V30 180 1 75 178 CFG=3
M  V30 181 1 77 179 CFG=1
M  V30 182 1 79 180
M  V30 183 1 83 181
M  V30 184 1 83 182
M  V30 185 1 85 183
M  V30 186 1 88 184 CFG=3
M  V30 187 1 89 185
M  V30 188 1 90 186 CFG=1
M  V30 189 1 91 187
M  V30 190 1 93 188
M  V30 191 1 93 189
M  V30 END BOND
M  V30 END CTAB
M  END
>  <Dataset>  (14) 
ChEMBL_PKA

>  <Ligand_Instance>  (14) 
nan

>  <PDB_ID>  (14) 
nan

>  <Standardized_SMILES>  (14) 
N=C(N)NCCC[C@@H](NC(=O)[C@@H](CCCNC(=N)N)NC(=O)[C@@H](CCCNC(=N)N)NC(=O)[C@@H](CCCNC(=N)N)NC(=O)[C@@H](CCCNC(=N)N)NC(=O)[C@@H](CCCNC(=N)N)NC(=O)CCCCCNC(=O)[C@H]1O[C@@H](n2cnc3c(N)ncnc32)[C@H](O)[C@@H]1O)C(N)=O

>  <Name>  (14) 
nan

>  <Pocket>  (14) 
nan

>  <ATP_Site>  (14) 
nan

>  <Peripheral>  (14) 
nan

>  <Num_H_Atoms_ProtBoundConf>  (14) 
nan

>  <Num_Resolved_Atoms>  (14) 
nan

>  <Num_Not_Resolved_Atoms>  (14) 
nan

>  <2D_Mol_H>  (14) 
<rdkit.Chem.rdchem.Mol object at 0x72a239102180>

>  <MW>  (14) 
1330.538

>  <HBA>  (14) 
22

>  <HBD>  (14) 
29

>  <LogP>  (14) 
-9.32198

>  <NRB>  (14) 
47

>  <TPSA>  (14) 
737.5

>  <Num_Heavy_Atoms>  (14) 
94

>  <Ro5>  (14) 
[False, False, False, True, False, False]

>  <Ro5_Fulfilled>  (14) 
False

>  <Ro3>  (14) 
[False, False, False, True]

>  <Ro3_Fulfilled>  (14) 
False

>  <Fsp3>  (14) 
0.634615

>  <Fsp3_0.42>  (14) 
True

>  <Fsp3_0.45>  (14) 
True

>  <Stereogenic_Carbons>  (14) 
10

>  <C_Atoms>  (14) 
52

>  <FCStereo>  (14) 
0.192308

>  <SPS>  (14) 
1574

>  <nSPS>  (14) 
16.744681

>  <PBF>  (14) 
2.584713

>  <PBF_0.6>  (14) 
True

>  <nPBF>  (14) 
0.027497

>  <nPBF_0.016>  (14) 
True

>  <PMI1>  (14) 
32773.25479

>  <PMI2>  (14) 
34840.534584

>  <PMI3>  (14) 
45093.989913

>  <NPR1>  (14) 
0.726777

>  <NPR2>  (14) 
0.77262

>  <Sum_NPR>  (14) 
1.499397

>  <Sum_NPR_1.07>  (14) 
True

>  <Sum_NPR_1.2>  (14) 
True

>  <MaxAbsEStateIndex>  (14) 
14.567317

>  <MaxEStateIndex>  (14) 
14.567317

>  <MinAbsEStateIndex>  (14) 
0.013492

>  <MinEStateIndex>  (14) 
-1.614793

>  <qed>  (14) 
0.01664

>  <MolWt>  (14) 
1330.538

>  <HeavyAtomMolWt>  (14) 
1234.778

>  <ExactMolWt>  (14) 
1329.782733

>  <NumValenceElectrons>  (14) 
524

>  <NumRadicalElectrons>  (14) 
0

>  <MaxPartialCharge>  (14) 
0.251567

>  <MinPartialCharge>  (14) 
-0.386941

>  <MaxAbsPartialCharge>  (14) 
0.386941

>  <MinAbsPartialCharge>  (14) 
0.251567

>  <FpDensityMorgan1>  (14) 
0.446809

>  <FpDensityMorgan2>  (14) 
0.787234

>  <FpDensityMorgan3>  (14) 
1.148936

>  <BCUT2D_MWHI>  (14) 
16.560138

>  <BCUT2D_MWLOW>  (14) 
10.035135

>  <BCUT2D_CHGHI>  (14) 
2.47615

>  <BCUT2D_CHGLO>  (14) 
-2.277538

>  <BCUT2D_LOGPHI>  (14) 
2.318833

>  <BCUT2D_LOGPLOW>  (14) 
-2.594735

>  <BCUT2D_MRHI>  (14) 
5.970229

>  <BCUT2D_MRLOW>  (14) 
-0.137298

>  <AvgIpc>  (14) 
1.622245

>  <BalabanJ>  (14) 
1.825594

>  <BertzCT>  (14) 
2916.196094

>  <Chi0>  (14) 
69.864292

>  <Chi0n>  (14) 
52.167978

>  <Chi0v>  (14) 
52.167978

>  <Chi1>  (14) 
44.587018

>  <Chi1n>  (14) 
30.396312

>  <Chi1v>  (14) 
30.396312

>  <Chi2n>  (14) 
21.837503

>  <Chi2v>  (14) 
21.837503

>  <Chi3n>  (14) 
14.2915

>  <Chi3v>  (14) 
14.2915

>  <Chi4n>  (14) 
9.494889

>  <Chi4v>  (14) 
9.494889

>  <HallKierAlpha>  (14) 
-10.39

>  <Ipc>  (14) 
64264080050179031433216.0

>  <Kappa1>  (14) 
77.852842

>  <Kappa2>  (14) 
41.165043

>  <Kappa3>  (14) 
28.836184

>  <LabuteASA>  (14) 
540.311221

>  <PEOE_VSA1>  (14) 
129.937509

>  <PEOE_VSA10>  (14) 
60.302999

>  <PEOE_VSA11>  (14) 
59.554235

>  <PEOE_VSA12>  (14) 
41.350258

>  <PEOE_VSA13>  (14) 
5.90718

>  <PEOE_VSA14>  (14) 
0.0

>  <PEOE_VSA2>  (14) 
75.379099

>  <PEOE_VSA3>  (14) 
14.951936

>  <PEOE_VSA4>  (14) 
0.0

>  <PEOE_VSA5>  (14) 
0.0

>  <PEOE_VSA6>  (14) 
6.420822

>  <PEOE_VSA7>  (14) 
89.891503

>  <PEOE_VSA8>  (14) 
52.234116

>  <PEOE_VSA9>  (14) 
6.32732

>  <SMR_VSA1>  (14) 
53.306215

>  <SMR_VSA10>  (14) 
99.996506

>  <SMR_VSA2>  (14) 
32.455702

>  <SMR_VSA3>  (14) 
88.637287

>  <SMR_VSA4>  (14) 
40.135672

>  <SMR_VSA5>  (14) 
163.523991

>  <SMR_VSA6>  (14) 
51.546962

>  <SMR_VSA7>  (14) 
12.65464

>  <SMR_VSA8>  (14) 
0.0

>  <SMR_VSA9>  (14) 
0.0

>  <SlogP_VSA1>  (14) 
114.987592

>  <SlogP_VSA10>  (14) 
5.817863

>  <SlogP_VSA11>  (14) 
0.0

>  <SlogP_VSA12>  (14) 
0.0

>  <SlogP_VSA2>  (14) 
213.123094

>  <SlogP_VSA3>  (14) 
43.09316

>  <SlogP_VSA4>  (14) 
32.455702

>  <SlogP_VSA5>  (14) 
108.961047

>  <SlogP_VSA6>  (14) 
12.65464

>  <SlogP_VSA7>  (14) 
0.0

>  <SlogP_VSA8>  (14) 
11.163878

>  <SlogP_VSA9>  (14) 
0.0

>  <EState_VSA1>  (14) 
119.967392

>  <EState_VSA10>  (14) 
48.569352

>  <EState_VSA11>  (14) 
0.0

>  <EState_VSA2>  (14) 
176.524757

>  <EState_VSA3>  (14) 
12.841643

>  <EState_VSA4>  (14) 
0.0

>  <EState_VSA5>  (14) 
17.22174

>  <EState_VSA6>  (14) 
0.0

>  <EState_VSA7>  (14) 
0.0

>  <EState_VSA8>  (14) 
84.070187

>  <EState_VSA9>  (14) 
83.061904

>  <VSA_EState1>  (14) 
7.078828

>  <VSA_EState10>  (14) 
0.0

>  <VSA_EState2>  (14) 
122.982089

>  <VSA_EState3>  (14) 
100.986508

>  <VSA_EState4>  (14) 
44.710843

>  <VSA_EState5>  (14) 
-8.734664

>  <VSA_EState6>  (14) 
-8.289429

>  <VSA_EState7>  (14) 
-2.146066

>  <VSA_EState8>  (14) 
0.57856

>  <VSA_EState9>  (14) 
0.0

>  <FractionCSP3>  (14) 
0.634615

>  <HeavyAtomCount>  (14) 
94

>  <NHOHCount>  (14) 
37

>  <NOCount>  (14) 
42

>  <NumAliphaticCarbocycles>  (14) 
0

>  <NumAliphaticHeterocycles>  (14) 
1

>  <NumAliphaticRings>  (14) 
1

>  <NumAromaticCarbocycles>  (14) 
0

>  <NumAromaticHeterocycles>  (14) 
2

>  <NumAromaticRings>  (14) 
2

>  <NumHAcceptors>  (14) 
22

>  <NumHDonors>  (14) 
29

>  <NumHeteroatoms>  (14) 
42

>  <NumRotatableBonds>  (14) 
44

>  <NumSaturatedCarbocycles>  (14) 
0

>  <NumSaturatedHeterocycles>  (14) 
1

>  <NumSaturatedRings>  (14) 
1

>  <RingCount>  (14) 
3

>  <MolLogP>  (14) 
-9.32198

>  <MolMR>  (14) 
342.8201

>  <fr_Al_COO>  (14) 
0

>  <fr_Al_OH>  (14) 
2

>  <fr_Al_OH_noTert>  (14) 
2

>  <fr_ArN>  (14) 
1

>  <fr_Ar_COO>  (14) 
0

>  <fr_Ar_N>  (14) 
4

>  <fr_Ar_NH>  (14) 
0

>  <fr_Ar_OH>  (14) 
0

>  <fr_COO>  (14) 
0

>  <fr_COO2>  (14) 
0

>  <fr_C_O>  (14) 
8

>  <fr_C_O_noCOO>  (14) 
8

>  <fr_C_S>  (14) 
0

>  <fr_HOCCN>  (14) 
0

>  <fr_Imine>  (14) 
0

>  <fr_NH0>  (14) 
4

>  <fr_NH1>  (14) 
19

>  <fr_NH2>  (14) 
8

>  <fr_N_O>  (14) 
0

>  <fr_Ndealkylation1>  (14) 
0

>  <fr_Ndealkylation2>  (14) 
0

>  <fr_Nhpyrrole>  (14) 
0

>  <fr_SH>  (14) 
0

>  <fr_aldehyde>  (14) 
0

>  <fr_alkyl_carbamate>  (14) 
0

>  <fr_alkyl_halide>  (14) 
0

>  <fr_allylic_oxid>  (14) 
0

>  <fr_amide>  (14) 
8

>  <fr_amidine>  (14) 
0

>  <fr_aniline>  (14) 
1

>  <fr_aryl_methyl>  (14) 
0

>  <fr_azide>  (14) 
0

>  <fr_azo>  (14) 
0

>  <fr_barbitur>  (14) 
0

>  <fr_benzene>  (14) 
0

>  <fr_benzodiazepine>  (14) 
0

>  <fr_bicyclic>  (14) 
1

>  <fr_diazo>  (14) 
0

>  <fr_dihydropyridine>  (14) 
0

>  <fr_epoxide>  (14) 
0

>  <fr_ester>  (14) 
0

>  <fr_ether>  (14) 
1

>  <fr_furan>  (14) 
0

>  <fr_guanido>  (14) 
6

>  <fr_halogen>  (14) 
0

>  <fr_hdrzine>  (14) 
0

>  <fr_hdrzone>  (14) 
0

>  <fr_imidazole>  (14) 
1

>  <fr_imide>  (14) 
0

>  <fr_isocyan>  (14) 
0

>  <fr_isothiocyan>  (14) 
0

>  <fr_ketone>  (14) 
0

>  <fr_ketone_Topliss>  (14) 
0

>  <fr_lactam>  (14) 
0

>  <fr_lactone>  (14) 
0

>  <fr_methoxy>  (14) 
0

>  <fr_morpholine>  (14) 
0

>  <fr_nitrile>  (14) 
0

>  <fr_nitro>  (14) 
0

>  <fr_nitro_arom>  (14) 
0

>  <fr_nitro_arom_nonortho>  (14) 
0

>  <fr_nitroso>  (14) 
0

>  <fr_oxazole>  (14) 
0

>  <fr_oxime>  (14) 
0

>  <fr_para_hydroxylation>  (14) 
0

>  <fr_phenol>  (14) 
0

>  <fr_phenol_noOrthoHbond>  (14) 
0

>  <fr_phos_acid>  (14) 
0

>  <fr_phos_ester>  (14) 
0

>  <fr_piperdine>  (14) 
0

>  <fr_piperzine>  (14) 
0

>  <fr_priamide>  (14) 
1

>  <fr_prisulfonamd>  (14) 
0

>  <fr_pyridine>  (14) 
0

>  <fr_quatN>  (14) 
0

>  <fr_sulfide>  (14) 
0

>  <fr_sulfonamd>  (14) 
0

>  <fr_sulfone>  (14) 
0

>  <fr_term_acetylene>  (14) 
0

>  <fr_tetrazole>  (14) 
0

>  <fr_thiazole>  (14) 
0

>  <fr_thiocyan>  (14) 
0

>  <fr_thiophene>  (14) 
0

>  <fr_unbrch_alkane>  (14) 
2

>  <fr_urea>  (14) 
0

>  <NP_Likeness>  (14) 
0.187929

$$$$
CHEMBL281948
     RDKit          3D

  0  0  0  0  0  0  0  0  0  0999 V3000
M  V30 BEGIN CTAB
M  V30 COUNTS 56 63 0 0 0
M  V30 BEGIN ATOM
M  V30 1 C 3.527261 -2.085875 4.491359 0
M  V30 2 O 2.776681 -1.618369 3.400545 0
M  V30 3 C 2.975156 -0.398188 2.770956 0
M  V30 4 O 3.930256 0.237702 3.318176 0
M  V30 5 C 2.079488 -0.048575 1.610791 0 CFG=1
M  V30 6 O 2.413517 1.183090 1.075966 0
M  V30 7 C 2.225946 -1.209241 0.691699 0
M  V30 8 C 1.157237 -2.134676 1.247335 0 CFG=1
M  V30 9 O 0.466513 -1.481454 2.214373 0
M  V30 10 C 0.656172 -0.090795 2.115305 0 CFG=1
M  V30 11 C 0.703396 0.506814 3.503376 0
M  V30 12 N -0.312758 0.501163 1.233926 0
M  V30 13 C -0.953170 1.676010 1.189183 0
M  V30 14 C -0.806444 2.756551 2.024529 0
M  V30 15 C -1.554827 3.890135 1.811496 0
M  V30 16 C -2.466314 4.011397 0.783751 0
M  V30 17 C -2.606006 2.923011 -0.049538 0
M  V30 18 C -1.858368 1.790614 0.163498 0
M  V30 19 C -1.786933 0.591382 -0.503127 0
M  V30 20 C -2.432944 0.085556 -1.612419 0
M  V30 21 C -2.163913 -1.175077 -2.089599 0
M  V30 22 C -1.239095 -1.927469 -1.446002 0
M  V30 23 C -0.766003 -3.177492 -1.699267 0
M  V30 24 C -0.939400 -4.201122 -2.579371 0
M  V30 25 C -0.275828 -5.406135 -2.575439 0
M  V30 26 C 0.676559 -5.613835 -1.570340 0
M  V30 27 C 0.895534 -4.610769 -0.649095 0
M  V30 28 C 0.179297 -3.427352 -0.730331 0
M  V30 29 N 0.285578 -2.389404 0.078943 0
M  V30 30 C -0.594946 -1.427348 -0.341619 0
M  V30 31 C -0.849978 -0.160831 0.161132 0
M  V30 32 C -2.994087 -1.381695 -3.229206 0
M  V30 33 O -3.170345 -2.306245 -4.032611 0
M  V30 34 N -3.781977 -0.240511 -3.458153 0
M  V30 35 C -3.481439 0.772120 -2.450479 0
M  V30 36 H 3.354317 -3.200941 4.522534 0
M  V30 37 H 4.617239 -1.966595 4.319519 0
M  V30 38 H 3.180341 -1.708031 5.468791 0
M  V30 39 H 3.375889 1.185344 0.924089 0
M  V30 40 H 2.068142 -0.874275 -0.327460 0
M  V30 41 H 3.238950 -1.655028 0.733744 0
M  V30 42 H 1.665987 -3.044890 1.551638 0
M  V30 43 H 1.063050 -0.295258 4.249630 0
M  V30 44 H 1.484697 1.263008 3.655046 0
M  V30 45 H -0.291618 0.719032 3.936193 0
M  V30 46 H -0.099622 2.714630 2.828431 0
M  V30 47 H -1.396108 4.720854 2.510120 0
M  V30 48 H -3.022596 4.926213 0.669808 0
M  V30 49 H -3.304991 2.960555 -0.872016 0
M  V30 50 H -1.646065 -4.106459 -3.364043 0
M  V30 51 H -0.441986 -6.194786 -3.292557 0
M  V30 52 H 1.249002 -6.526512 -1.483637 0
M  V30 53 H 1.628435 -4.765552 0.127599 0
M  V30 54 H -4.492361 0.043997 -4.137777 0
M  V30 55 H -3.112616 1.689690 -2.916417 0
M  V30 56 H -4.408396 0.896054 -1.850136 0
M  V30 END ATOM
M  V30 BEGIN BOND
M  V30 1 1 1 2
M  V30 2 1 2 3
M  V30 3 2 3 4
M  V30 4 1 3 5
M  V30 5 1 5 6 CFG=3
M  V30 6 1 5 7
M  V30 7 1 7 8
M  V30 8 1 8 9
M  V30 9 1 9 10
M  V30 10 1 10 11 CFG=1
M  V30 11 1 10 12
M  V30 12 1 12 13
M  V30 13 2 13 14
M  V30 14 1 14 15
M  V30 15 2 15 16
M  V30 16 1 16 17
M  V30 17 2 17 18
M  V30 18 1 18 19
M  V30 19 2 19 20
M  V30 20 1 20 21
M  V30 21 2 21 22
M  V30 22 1 22 23
M  V30 23 2 23 24
M  V30 24 1 24 25
M  V30 25 2 25 26
M  V30 26 1 26 27
M  V30 27 2 27 28
M  V30 28 1 28 29
M  V30 29 1 29 30
M  V30 30 2 30 31
M  V30 31 1 21 32
M  V30 32 2 32 33
M  V30 33 1 32 34
M  V30 34 1 34 35
M  V30 35 1 10 5
M  V30 36 1 31 12
M  V30 37 1 29 8
M  V30 38 1 18 13
M  V30 39 1 31 19
M  V30 40 1 35 20
M  V30 41 1 30 22
M  V30 42 1 28 23
M  V30 43 1 1 36
M  V30 44 1 1 37
M  V30 45 1 1 38
M  V30 46 1 6 39
M  V30 47 1 7 40
M  V30 48 1 7 41
M  V30 49 1 8 42 CFG=1
M  V30 50 1 11 43
M  V30 51 1 11 44
M  V30 52 1 11 45
M  V30 53 1 14 46
M  V30 54 1 15 47
M  V30 55 1 16 48
M  V30 56 1 17 49
M  V30 57 1 24 50
M  V30 58 1 25 51
M  V30 59 1 26 52
M  V30 60 1 27 53
M  V30 61 1 34 54
M  V30 62 1 35 55
M  V30 63 1 35 56
M  V30 END BOND
M  V30 END CTAB
M  END
>  <Dataset>  (15) 
ChEMBL_PKA

>  <Ligand_Instance>  (15) 
nan

>  <PDB_ID>  (15) 
nan

>  <Standardized_SMILES>  (15) 
COC(=O)[C@@]1(O)C[C@H]2O[C@]1(C)n1c3ccccc3c3c4c(c5c6ccccc6n2c5c31)C(=O)NC4

>  <Name>  (15) 
K-252A

>  <Pocket>  (15) 
nan

>  <ATP_Site>  (15) 
nan

>  <Peripheral>  (15) 
nan

>  <Num_H_Atoms_ProtBoundConf>  (15) 
nan

>  <Num_Resolved_Atoms>  (15) 
nan

>  <Num_Not_Resolved_Atoms>  (15) 
nan

>  <2D_Mol_H>  (15) 
<rdkit.Chem.rdchem.Mol object at 0x72a239102260>

>  <MW>  (15) 
467.481

>  <HBA>  (15) 
7

>  <HBD>  (15) 
2

>  <LogP>  (15) 
3.6551

>  <NRB>  (15) 
4

>  <TPSA>  (15) 
94.72

>  <Num_Heavy_Atoms>  (15) 
35

>  <Ro5>  (15) 
[True, True, True, True, True, True]

>  <Ro5_Fulfilled>  (15) 
True

>  <Ro3>  (15) 
[False, False, True, False]

>  <Ro3_Fulfilled>  (15) 
False

>  <Fsp3>  (15) 
0.259259

>  <Fsp3_0.42>  (15) 
False

>  <Fsp3_0.45>  (15) 
False

>  <Stereogenic_Carbons>  (15) 
3

>  <C_Atoms>  (15) 
27

>  <FCStereo>  (15) 
0.111111

>  <SPS>  (15) 
935

>  <nSPS>  (15) 
26.714286

>  <PBF>  (15) 
0.498005

>  <PBF_0.6>  (15) 
False

>  <nPBF>  (15) 
0.014229

>  <nPBF_0.016>  (15) 
False

>  <PMI1>  (15) 
3096.871822

>  <PMI2>  (15) 
4098.679055

>  <PMI3>  (15) 
6824.872728

>  <NPR1>  (15) 
0.453763

>  <NPR2>  (15) 
0.60055

>  <Sum_NPR>  (15) 
1.054313

>  <Sum_NPR_1.07>  (15) 
False

>  <Sum_NPR_1.2>  (15) 
False

>  <MaxAbsEStateIndex>  (15) 
13.217487

>  <MaxEStateIndex>  (15) 
13.217487

>  <MinAbsEStateIndex>  (15) 
0.014553

>  <MinEStateIndex>  (15) 
-1.926976

>  <qed>  (15) 
0.367167

>  <MolWt>  (15) 
467.481

>  <HeavyAtomMolWt>  (15) 
446.313

>  <ExactMolWt>  (15) 
467.148121

>  <NumValenceElectrons>  (15) 
174

>  <NumRadicalElectrons>  (15) 
0

>  <MaxPartialCharge>  (15) 
0.342689

>  <MinPartialCharge>  (15) 
-0.46674

>  <MaxAbsPartialCharge>  (15) 
0.46674

>  <MinAbsPartialCharge>  (15) 
0.342689

>  <FpDensityMorgan1>  (15) 
1.085714

>  <FpDensityMorgan2>  (15) 
1.771429

>  <FpDensityMorgan3>  (15) 
2.514286

>  <BCUT2D_MWHI>  (15) 
16.589413

>  <BCUT2D_MWLOW>  (15) 
9.884651

>  <BCUT2D_CHGHI>  (15) 
2.654072

>  <BCUT2D_CHGLO>  (15) 
-2.371408

>  <BCUT2D_LOGPHI>  (15) 
2.572334

>  <BCUT2D_LOGPLOW>  (15) 
-2.558185

>  <BCUT2D_MRHI>  (15) 
6.306146

>  <BCUT2D_MRLOW>  (15) 
-0.20221

>  <AvgIpc>  (15) 
3.554546

>  <BalabanJ>  (15) 
1.733526

>  <BertzCT>  (15) 
1831.44218

>  <Chi0>  (15) 
23.852642

>  <Chi0n>  (15) 
19.085

>  <Chi0v>  (15) 
19.085

>  <Chi1>  (15) 
16.903832

>  <Chi1n>  (15) 
11.683896

>  <Chi1v>  (15) 
11.683896

>  <Chi2n>  (15) 
9.83452

>  <Chi2v>  (15) 
9.83452

>  <Chi3n>  (15) 
8.356669

>  <Chi3v>  (15) 
8.356669

>  <Chi4n>  (15) 
6.890726

>  <Chi4v>  (15) 
6.890726

>  <HallKierAlpha>  (15) 
-3.88

>  <Ipc>  (15) 
242872642.895797

>  <Kappa1>  (15) 
19.4287

>  <Kappa2>  (15) 
5.842141

>  <Kappa3>  (15) 
1.894608

>  <LabuteASA>  (15) 
198.157541

>  <PEOE_VSA1>  (15) 
29.031241

>  <PEOE_VSA10>  (15) 
6.227901

>  <PEOE_VSA11>  (15) 
5.724986

>  <PEOE_VSA12>  (15) 
5.601051

>  <PEOE_VSA13>  (15) 
5.90718

>  <PEOE_VSA14>  (15) 
5.969305

>  <PEOE_VSA2>  (15) 
4.794537

>  <PEOE_VSA3>  (15) 
4.794537

>  <PEOE_VSA4>  (15) 
0.0

>  <PEOE_VSA5>  (15) 
0.0

>  <PEOE_VSA6>  (15) 
36.398202

>  <PEOE_VSA7>  (15) 
24.619923

>  <PEOE_VSA8>  (15) 
34.510475

>  <PEOE_VSA9>  (15) 
34.740052

>  <SMR_VSA1>  (15) 
24.169328

>  <SMR_VSA10>  (15) 
55.488185

>  <SMR_VSA2>  (15) 
0.0

>  <SMR_VSA3>  (15) 
14.450988

>  <SMR_VSA4>  (15) 
0.0

>  <SMR_VSA5>  (15) 
37.443253

>  <SMR_VSA6>  (15) 
7.109798

>  <SMR_VSA7>  (15) 
59.65784

>  <SMR_VSA8>  (15) 
0.0

>  <SMR_VSA9>  (15) 
0.0

>  <SlogP_VSA1>  (15) 
5.316789

>  <SlogP_VSA10>  (15) 
0.0

>  <SlogP_VSA11>  (15) 
0.0

>  <SlogP_VSA12>  (15) 
0.0

>  <SlogP_VSA2>  (15) 
38.82806

>  <SlogP_VSA3>  (15) 
26.538005

>  <SlogP_VSA4>  (15) 
0.0

>  <SlogP_VSA5>  (15) 
35.4939

>  <SlogP_VSA6>  (15) 
48.530937

>  <SlogP_VSA7>  (15) 
0.0

>  <SlogP_VSA8>  (15) 
43.6117

>  <SlogP_VSA9>  (15) 
0.0

>  <EState_VSA1>  (15) 
23.523243

>  <EState_VSA10>  (15) 
14.695602

>  <EState_VSA11>  (15) 
0.0

>  <EState_VSA2>  (15) 
12.328001

>  <EState_VSA3>  (15) 
12.108208

>  <EState_VSA4>  (15) 
49.175151

>  <EState_VSA5>  (15) 
7.109798

>  <EState_VSA6>  (15) 
6.923737

>  <EState_VSA7>  (15) 
53.098036

>  <EState_VSA8>  (15) 
9.883888

>  <EState_VSA9>  (15) 
9.473726

>  <VSA_EState1>  (15) 
15.801445

>  <VSA_EState10>  (15) 
0.0

>  <VSA_EState2>  (15) 
26.347629

>  <VSA_EState3>  (15) 
18.700922

>  <VSA_EState4>  (15) 
1.688635

>  <VSA_EState5>  (15) 
-0.822382

>  <VSA_EState6>  (15) 
15.793032

>  <VSA_EState7>  (15) 
-0.628154

>  <VSA_EState8>  (15) 
2.169924

>  <VSA_EState9>  (15) 
1.282282

>  <FractionCSP3>  (15) 
0.259259

>  <HeavyAtomCount>  (15) 
35

>  <NHOHCount>  (15) 
2

>  <NOCount>  (15) 
8

>  <NumAliphaticCarbocycles>  (15) 
0

>  <NumAliphaticHeterocycles>  (15) 
3

>  <NumAliphaticRings>  (15) 
3

>  <NumAromaticCarbocycles>  (15) 
3

>  <NumAromaticHeterocycles>  (15) 
2

>  <NumAromaticRings>  (15) 
5

>  <NumHAcceptors>  (15) 
7

>  <NumHDonors>  (15) 
2

>  <NumHeteroatoms>  (15) 
8

>  <NumRotatableBonds>  (15) 
1

>  <NumSaturatedCarbocycles>  (15) 
0

>  <NumSaturatedHeterocycles>  (15) 
1

>  <NumSaturatedRings>  (15) 
1

>  <RingCount>  (15) 
8

>  <MolLogP>  (15) 
3.6551

>  <MolMR>  (15) 
128.969

>  <fr_Al_COO>  (15) 
0

>  <fr_Al_OH>  (15) 
1

>  <fr_Al_OH_noTert>  (15) 
0

>  <fr_ArN>  (15) 
0

>  <fr_Ar_COO>  (15) 
0

>  <fr_Ar_N>  (15) 
2

>  <fr_Ar_NH>  (15) 
0

>  <fr_Ar_OH>  (15) 
0

>  <fr_COO>  (15) 
0

>  <fr_COO2>  (15) 
0

>  <fr_C_O>  (15) 
2

>  <fr_C_O_noCOO>  (15) 
2

>  <fr_C_S>  (15) 
0

>  <fr_HOCCN>  (15) 
0

>  <fr_Imine>  (15) 
0

>  <fr_NH0>  (15) 
2

>  <fr_NH1>  (15) 
1

>  <fr_NH2>  (15) 
0

>  <fr_N_O>  (15) 
0

>  <fr_Ndealkylation1>  (15) 
0

>  <fr_Ndealkylation2>  (15) 
0

>  <fr_Nhpyrrole>  (15) 
0

>  <fr_SH>  (15) 
0

>  <fr_aldehyde>  (15) 
0

>  <fr_alkyl_carbamate>  (15) 
0

>  <fr_alkyl_halide>  (15) 
0

>  <fr_allylic_oxid>  (15) 
0

>  <fr_amide>  (15) 
1

>  <fr_amidine>  (15) 
0

>  <fr_aniline>  (15) 
0

>  <fr_aryl_methyl>  (15) 
0

>  <fr_azide>  (15) 
0

>  <fr_azo>  (15) 
0

>  <fr_barbitur>  (15) 
0

>  <fr_benzene>  (15) 
3

>  <fr_benzodiazepine>  (15) 
0

>  <fr_bicyclic>  (15) 
13

>  <fr_diazo>  (15) 
0

>  <fr_dihydropyridine>  (15) 
0

>  <fr_epoxide>  (15) 
0

>  <fr_ester>  (15) 
1

>  <fr_ether>  (15) 
2

>  <fr_furan>  (15) 
0

>  <fr_guanido>  (15) 
0

>  <fr_halogen>  (15) 
0

>  <fr_hdrzine>  (15) 
0

>  <fr_hdrzone>  (15) 
0

>  <fr_imidazole>  (15) 
0

>  <fr_imide>  (15) 
0

>  <fr_isocyan>  (15) 
0

>  <fr_isothiocyan>  (15) 
0

>  <fr_ketone>  (15) 
0

>  <fr_ketone_Topliss>  (15) 
0

>  <fr_lactam>  (15) 
0

>  <fr_lactone>  (15) 
0

>  <fr_methoxy>  (15) 
1

>  <fr_morpholine>  (15) 
0

>  <fr_nitrile>  (15) 
0

>  <fr_nitro>  (15) 
0

>  <fr_nitro_arom>  (15) 
0

>  <fr_nitro_arom_nonortho>  (15) 
0

>  <fr_nitroso>  (15) 
0

>  <fr_oxazole>  (15) 
0

>  <fr_oxime>  (15) 
0

>  <fr_para_hydroxylation>  (15) 
2

>  <fr_phenol>  (15) 
0

>  <fr_phenol_noOrthoHbond>  (15) 
0

>  <fr_phos_acid>  (15) 
0

>  <fr_phos_ester>  (15) 
0

>  <fr_piperdine>  (15) 
0

>  <fr_piperzine>  (15) 
0

>  <fr_priamide>  (15) 
0

>  <fr_prisulfonamd>  (15) 
0

>  <fr_pyridine>  (15) 
0

>  <fr_quatN>  (15) 
0

>  <fr_sulfide>  (15) 
0

>  <fr_sulfonamd>  (15) 
0

>  <fr_sulfone>  (15) 
0

>  <fr_term_acetylene>  (15) 
0

>  <fr_tetrazole>  (15) 
0

>  <fr_thiazole>  (15) 
0

>  <fr_thiocyan>  (15) 
0

>  <fr_thiophene>  (15) 
0

>  <fr_unbrch_alkane>  (15) 
0

>  <fr_urea>  (15) 
0

>  <NP_Likeness>  (15) 
1.034118

$$$$
CHEMBL3099612
     RDKit          3D

  0  0  0  0  0  0  0  0  0  0999 V3000
M  V30 BEGIN CTAB
M  V30 COUNTS 29 31 0 0 0
M  V30 BEGIN ATOM
M  V30 1 O 1.429662 -2.251952 4.751375 0
M  V30 2 C 0.661771 -2.461934 3.776991 0
M  V30 3 C -0.814748 -2.372896 3.790375 0
M  V30 4 C -1.241332 -2.557051 2.368840 0 CFG=1
M  V30 5 O -1.979253 -1.479310 1.860983 0
M  V30 6 C 0.021115 -2.818720 1.575994 0 CFG=1
M  V30 7 C 0.304279 -1.729609 0.590603 0
M  V30 8 C 0.378664 -1.970659 -0.717083 0
M  V30 9 C 0.651314 -0.943952 -1.709582 0
M  V30 10 O 0.707048 -1.244996 -2.929051 0
M  V30 11 C 0.851764 0.426476 -1.214385 0
M  V30 12 C 1.114597 1.432582 -2.138707 0
M  V30 13 C 1.307088 2.731031 -1.698211 0
M  V30 14 C 1.234023 2.996404 -0.356790 0
M  V30 15 C 0.976205 2.032543 0.595745 0
M  V30 16 C 0.783270 0.727553 0.147193 0
M  V30 17 C 0.502438 -0.377277 1.075303 0
M  V30 18 O 0.440770 -0.101566 2.310363 0
M  V30 19 O 1.083213 -2.814531 2.520349 0
M  V30 20 H -1.208303 -3.178895 4.465725 0
M  V30 21 H -1.121957 -1.374652 4.181007 0
M  V30 22 H -1.872898 -3.470921 2.315347 0
M  V30 23 H -1.729395 -1.409846 0.884894 0
M  V30 24 H 0.046147 -3.812905 1.102998 0
M  V30 25 H 0.222403 -2.994909 -1.015535 0
M  V30 26 H 1.167394 1.199742 -3.189751 0
M  V30 27 H 1.512760 3.530810 -2.396677 0
M  V30 28 H 1.378977 4.007856 0.041838 0
M  V30 29 H 0.915881 2.229184 1.658544 0
M  V30 END ATOM
M  V30 BEGIN BOND
M  V30 1 2 1 2
M  V30 2 1 2 3
M  V30 3 1 3 4
M  V30 4 1 4 5
M  V30 5 1 4 6
M  V30 6 1 6 7
M  V30 7 2 7 8
M  V30 8 1 8 9
M  V30 9 2 9 10
M  V30 10 1 9 11
M  V30 11 2 11 12
M  V30 12 1 12 13
M  V30 13 2 13 14
M  V30 14 1 14 15
M  V30 15 2 15 16
M  V30 16 1 16 17
M  V30 17 2 17 18
M  V30 18 1 6 19
M  V30 19 1 19 2
M  V30 20 1 17 7
M  V30 21 1 16 11
M  V30 22 1 3 20
M  V30 23 1 3 21
M  V30 24 1 4 22 CFG=1
M  V30 25 1 5 23
M  V30 26 1 6 24 CFG=3
M  V30 27 1 8 25
M  V30 28 1 12 26
M  V30 29 1 13 27
M  V30 30 1 14 28
M  V30 31 1 15 29
M  V30 END BOND
M  V30 END CTAB
M  END
>  <Dataset>  (16) 
ChEMBL_PKA

>  <Ligand_Instance>  (16) 
nan

>  <PDB_ID>  (16) 
nan

>  <Standardized_SMILES>  (16) 
O=C1C[C@@H](O)[C@@H](C2=CC(=O)c3ccccc3C2=O)O1

>  <Name>  (16) 
nan

>  <Pocket>  (16) 
nan

>  <ATP_Site>  (16) 
nan

>  <Peripheral>  (16) 
nan

>  <Num_H_Atoms_ProtBoundConf>  (16) 
nan

>  <Num_Resolved_Atoms>  (16) 
nan

>  <Num_Not_Resolved_Atoms>  (16) 
nan

>  <2D_Mol_H>  (16) 
<rdkit.Chem.rdchem.Mol object at 0x72a239102340>

>  <MW>  (16) 
258.229

>  <HBA>  (16) 
5

>  <HBD>  (16) 
1

>  <LogP>  (16) 
0.6684

>  <NRB>  (16) 
2

>  <TPSA>  (16) 
80.67

>  <Num_Heavy_Atoms>  (16) 
19

>  <Ro5>  (16) 
[True, True, True, True, True, True]

>  <Ro5_Fulfilled>  (16) 
True

>  <Ro3>  (16) 
[True, False, True, True]

>  <Ro3_Fulfilled>  (16) 
True

>  <Fsp3>  (16) 
0.214286

>  <Fsp3_0.42>  (16) 
False

>  <Fsp3_0.45>  (16) 
False

>  <Stereogenic_Carbons>  (16) 
2

>  <C_Atoms>  (16) 
14

>  <FCStereo>  (16) 
0.142857

>  <SPS>  (16) 
493

>  <nSPS>  (16) 
25.947368

>  <PBF>  (16) 
0.52447

>  <PBF_0.6>  (16) 
False

>  <nPBF>  (16) 
0.027604

>  <nPBF_0.016>  (16) 
True

>  <PMI1>  (16) 
652.794415

>  <PMI2>  (16) 
1875.067659

>  <PMI3>  (16) 
2191.554423

>  <NPR1>  (16) 
0.297868

>  <NPR2>  (16) 
0.855588

>  <Sum_NPR>  (16) 
1.153456

>  <Sum_NPR_1.07>  (16) 
True

>  <Sum_NPR_1.2>  (16) 
False

>  <MaxAbsEStateIndex>  (16) 
12.278611

>  <MaxEStateIndex>  (16) 
12.278611

>  <MinAbsEStateIndex>  (16) 
0.043565

>  <MinEStateIndex>  (16) 
-1.082628

>  <qed>  (16) 
0.748615

>  <MolWt>  (16) 
258.229

>  <HeavyAtomMolWt>  (16) 
248.149

>  <ExactMolWt>  (16) 
258.052823

>  <NumValenceElectrons>  (16) 
96

>  <NumRadicalElectrons>  (16) 
0

>  <MaxPartialCharge>  (16) 
0.30879

>  <MinPartialCharge>  (16) 
-0.454444

>  <MaxAbsPartialCharge>  (16) 
0.454444

>  <MinAbsPartialCharge>  (16) 
0.30879

>  <FpDensityMorgan1>  (16) 
1.105263

>  <FpDensityMorgan2>  (16) 
1.789474

>  <FpDensityMorgan3>  (16) 
2.421053

>  <BCUT2D_MWHI>  (16) 
16.562616

>  <BCUT2D_MWLOW>  (16) 
9.857329

>  <BCUT2D_CHGHI>  (16) 
2.406599

>  <BCUT2D_CHGLO>  (16) 
-2.199917

>  <BCUT2D_LOGPHI>  (16) 
2.288802

>  <BCUT2D_LOGPLOW>  (16) 
-2.308855

>  <BCUT2D_MRHI>  (16) 
6.246079

>  <BCUT2D_MRLOW>  (16) 
-0.139882

>  <AvgIpc>  (16) 
2.728002

>  <BalabanJ>  (16) 
2.03716

>  <BertzCT>  (16) 
628.478424

>  <Chi0>  (16) 
13.56855

>  <Chi0n>  (16) 
9.828765

>  <Chi0v>  (16) 
9.828765

>  <Chi1>  (16) 
9.075387

>  <Chi1n>  (16) 
5.848908

>  <Chi1v>  (16) 
5.848908

>  <Chi2n>  (16) 
4.52057

>  <Chi2v>  (16) 
4.52057

>  <Chi3n>  (16) 
3.276148

>  <Chi3v>  (16) 
3.276148

>  <Chi4n>  (16) 
2.364174

>  <Chi4v>  (16) 
2.364174

>  <HallKierAlpha>  (16) 
-2.27

>  <Ipc>  (16) 
29639.745268

>  <Kappa1>  (16) 
11.799887

>  <Kappa2>  (16) 
4.134881

>  <Kappa3>  (16) 
1.787479

>  <LabuteASA>  (16) 
108.04202

>  <PEOE_VSA1>  (16) 
9.84339

>  <PEOE_VSA10>  (16) 
6.103966

>  <PEOE_VSA11>  (16) 
17.670456

>  <PEOE_VSA12>  (16) 
0.0

>  <PEOE_VSA13>  (16) 
0.0

>  <PEOE_VSA14>  (16) 
5.969305

>  <PEOE_VSA2>  (16) 
14.383612

>  <PEOE_VSA3>  (16) 
0.0

>  <PEOE_VSA4>  (16) 
0.0

>  <PEOE_VSA5>  (16) 
0.0

>  <PEOE_VSA6>  (16) 
24.265468

>  <PEOE_VSA7>  (16) 
6.07602

>  <PEOE_VSA8>  (16) 
16.700008

>  <PEOE_VSA9>  (16) 
6.420822

>  <SMR_VSA1>  (16) 
24.227002

>  <SMR_VSA10>  (16) 
17.535795

>  <SMR_VSA2>  (16) 
0.0

>  <SMR_VSA3>  (16) 
0.0

>  <SMR_VSA4>  (16) 
0.0

>  <SMR_VSA5>  (16) 
18.628754

>  <SMR_VSA6>  (16) 
0.0

>  <SMR_VSA7>  (16) 
47.041496

>  <SMR_VSA8>  (16) 
0.0

>  <SMR_VSA9>  (16) 
0.0

>  <SlogP_VSA1>  (16) 
0.0

>  <SlogP_VSA10>  (16) 
0.0

>  <SlogP_VSA11>  (16) 
0.0

>  <SlogP_VSA12>  (16) 
0.0

>  <SlogP_VSA2>  (16) 
34.850255

>  <SlogP_VSA3>  (16) 
9.5314

>  <SlogP_VSA4>  (16) 
0.0

>  <SlogP_VSA5>  (16) 
27.136799

>  <SlogP_VSA6>  (16) 
35.914593

>  <SlogP_VSA7>  (16) 
0.0

>  <SlogP_VSA8>  (16) 
0.0

>  <SlogP_VSA9>  (16) 
0.0

>  <EState_VSA1>  (16) 
18.177238

>  <EState_VSA10>  (16) 
19.490139

>  <EState_VSA11>  (16) 
0.0

>  <EState_VSA2>  (16) 
29.123868

>  <EState_VSA3>  (16) 
5.563451

>  <EState_VSA4>  (16) 
6.07602

>  <EState_VSA5>  (16) 
0.0

>  <EState_VSA6>  (16) 
24.265468

>  <EState_VSA7>  (16) 
0.0

>  <EState_VSA8>  (16) 
0.0

>  <EState_VSA9>  (16) 
4.736863

>  <VSA_EState1>  (16) 
4.91656

>  <VSA_EState10>  (16) 
0.0

>  <VSA_EState2>  (16) 
35.348914

>  <VSA_EState3>  (16) 
9.713441

>  <VSA_EState4>  (16) 
0.650243

>  <VSA_EState5>  (16) 
-1.271475

>  <VSA_EState6>  (16) 
6.447403

>  <VSA_EState7>  (16) 
-1.138418

>  <VSA_EState8>  (16) 
0.0

>  <VSA_EState9>  (16) 
0.0

>  <FractionCSP3>  (16) 
0.214286

>  <HeavyAtomCount>  (16) 
19

>  <NHOHCount>  (16) 
1

>  <NOCount>  (16) 
5

>  <NumAliphaticCarbocycles>  (16) 
1

>  <NumAliphaticHeterocycles>  (16) 
1

>  <NumAliphaticRings>  (16) 
2

>  <NumAromaticCarbocycles>  (16) 
1

>  <NumAromaticHeterocycles>  (16) 
0

>  <NumAromaticRings>  (16) 
1

>  <NumHAcceptors>  (16) 
5

>  <NumHDonors>  (16) 
1

>  <NumHeteroatoms>  (16) 
5

>  <NumRotatableBonds>  (16) 
1

>  <NumSaturatedCarbocycles>  (16) 
0

>  <NumSaturatedHeterocycles>  (16) 
1

>  <NumSaturatedRings>  (16) 
1

>  <RingCount>  (16) 
3

>  <MolLogP>  (16) 
0.6684

>  <MolMR>  (16) 
63.6898

>  <fr_Al_COO>  (16) 
0

>  <fr_Al_OH>  (16) 
1

>  <fr_Al_OH_noTert>  (16) 
1

>  <fr_ArN>  (16) 
0

>  <fr_Ar_COO>  (16) 
0

>  <fr_Ar_N>  (16) 
0

>  <fr_Ar_NH>  (16) 
0

>  <fr_Ar_OH>  (16) 
0

>  <fr_COO>  (16) 
0

>  <fr_COO2>  (16) 
0

>  <fr_C_O>  (16) 
3

>  <fr_C_O_noCOO>  (16) 
3

>  <fr_C_S>  (16) 
0

>  <fr_HOCCN>  (16) 
0

>  <fr_Imine>  (16) 
0

>  <fr_NH0>  (16) 
0

>  <fr_NH1>  (16) 
0

>  <fr_NH2>  (16) 
0

>  <fr_N_O>  (16) 
0

>  <fr_Ndealkylation1>  (16) 
0

>  <fr_Ndealkylation2>  (16) 
0

>  <fr_Nhpyrrole>  (16) 
0

>  <fr_SH>  (16) 
0

>  <fr_aldehyde>  (16) 
0

>  <fr_alkyl_carbamate>  (16) 
0

>  <fr_alkyl_halide>  (16) 
0

>  <fr_allylic_oxid>  (16) 
1

>  <fr_amide>  (16) 
0

>  <fr_amidine>  (16) 
0

>  <fr_aniline>  (16) 
0

>  <fr_aryl_methyl>  (16) 
0

>  <fr_azide>  (16) 
0

>  <fr_azo>  (16) 
0

>  <fr_barbitur>  (16) 
0

>  <fr_benzene>  (16) 
1

>  <fr_benzodiazepine>  (16) 
0

>  <fr_bicyclic>  (16) 
1

>  <fr_diazo>  (16) 
0

>  <fr_dihydropyridine>  (16) 
0

>  <fr_epoxide>  (16) 
0

>  <fr_ester>  (16) 
1

>  <fr_ether>  (16) 
1

>  <fr_furan>  (16) 
0

>  <fr_guanido>  (16) 
0

>  <fr_halogen>  (16) 
0

>  <fr_hdrzine>  (16) 
0

>  <fr_hdrzone>  (16) 
0

>  <fr_imidazole>  (16) 
0

>  <fr_imide>  (16) 
0

>  <fr_isocyan>  (16) 
0

>  <fr_isothiocyan>  (16) 
0

>  <fr_ketone>  (16) 
2

>  <fr_ketone_Topliss>  (16) 
1

>  <fr_lactam>  (16) 
0

>  <fr_lactone>  (16) 
1

>  <fr_methoxy>  (16) 
0

>  <fr_morpholine>  (16) 
0

>  <fr_nitrile>  (16) 
0

>  <fr_nitro>  (16) 
0

>  <fr_nitro_arom>  (16) 
0

>  <fr_nitro_arom_nonortho>  (16) 
0

>  <fr_nitroso>  (16) 
0

>  <fr_oxazole>  (16) 
0

>  <fr_oxime>  (16) 
0

>  <fr_para_hydroxylation>  (16) 
0

>  <fr_phenol>  (16) 
0

>  <fr_phenol_noOrthoHbond>  (16) 
0

>  <fr_phos_acid>  (16) 
0

>  <fr_phos_ester>  (16) 
0

>  <fr_piperdine>  (16) 
0

>  <fr_piperzine>  (16) 
0

>  <fr_priamide>  (16) 
0

>  <fr_prisulfonamd>  (16) 
0

>  <fr_pyridine>  (16) 
0

>  <fr_quatN>  (16) 
0

>  <fr_sulfide>  (16) 
0

>  <fr_sulfonamd>  (16) 
0

>  <fr_sulfone>  (16) 
0

>  <fr_term_acetylene>  (16) 
0

>  <fr_tetrazole>  (16) 
0

>  <fr_thiazole>  (16) 
0

>  <fr_thiocyan>  (16) 
0

>  <fr_thiophene>  (16) 
0

>  <fr_unbrch_alkane>  (16) 
0

>  <fr_urea>  (16) 
0

>  <NP_Likeness>  (16) 
1.837259

$$$$
CHEMBL3128043
     RDKit          3D

  0  0  0  0  0  0  0  0  0  0999 V3000
M  V30 BEGIN CTAB
M  V30 COUNTS 65 69 0 0 0
M  V30 BEGIN ATOM
M  V30 1 C 0.460926 3.573924 5.990151 0
M  V30 2 C 1.345655 3.551666 4.776087 0
M  V30 3 N 2.165181 2.478981 4.735880 0
M  V30 4 C 2.977193 2.444620 3.634720 0
M  V30 5 N 3.926336 1.422844 3.368317 0
M  V30 6 C 3.722309 0.215903 2.687002 0
M  V30 7 N 4.705054 -0.688626 2.479829 0
M  V30 8 N 4.196429 -1.699134 1.823580 0
M  V30 9 C 2.894363 -1.473409 1.595834 0
M  V30 10 C 2.547464 -0.243084 2.139143 0
M  V30 11 C 1.119090 0.019771 1.896461 0
M  V30 12 N 0.675342 -1.088947 1.056009 0
M  V30 13 C -0.611971 -1.087950 0.452564 0
M  V30 14 O -0.846349 0.019025 0.966245 0
M  V30 15 N -1.098080 -2.144078 -0.370645 0
M  V30 16 C -2.426133 -2.105267 -0.974026 0 CFG=2
M  V30 17 C -3.348982 -3.108034 -0.397955 0
M  V30 18 N -4.661331 -3.152344 -0.908226 0
M  V30 19 C -4.868729 -3.626951 -2.230025 0
M  V30 20 C -5.491191 -2.001679 -0.656341 0
M  V30 21 C -2.348766 -2.032014 -2.443043 0
M  V30 22 C -3.036193 -1.229524 -3.333262 0
M  V30 23 C -2.809814 -1.303730 -4.682568 0
M  V30 24 C -1.881372 -2.189501 -5.193381 0
M  V30 25 C -1.182703 -3.001062 -4.326004 0
M  V30 26 C -1.419575 -2.919313 -2.948413 0
M  V30 27 C 1.720807 -2.116219 0.956503 0
M  V30 28 C 1.299216 -3.352042 1.689731 0
M  V30 29 C 2.097218 -2.383072 -0.491888 0
M  V30 30 C 2.912810 3.445114 2.692333 0
M  V30 31 S 3.823510 3.652184 1.204615 0
M  V30 32 C 2.943991 5.269437 0.767533 0
M  V30 33 C 2.021969 5.490103 1.829786 0
M  V30 34 C 2.076959 4.513471 2.759941 0
M  V30 35 N 1.274349 4.529798 3.866374 0
M  V30 36 H -0.468205 2.985675 5.828846 0
M  V30 37 H 0.963451 3.139095 6.859996 0
M  V30 38 H 0.226149 4.638817 6.215312 0
M  V30 39 H 4.817611 1.723691 3.770680 0
M  V30 40 H 4.773207 -2.535349 1.543548 0
M  V30 41 H 0.954647 0.957307 1.293910 0
M  V30 42 H 0.560342 0.068407 2.846705 0
M  V30 43 H -0.408576 -2.926899 -0.485743 0
M  V30 44 H -2.830038 -1.096899 -0.648216 0
M  V30 45 H -3.423488 -2.888990 0.697205 0
M  V30 46 H -2.952246 -4.158455 -0.449710 0
M  V30 47 H -4.012303 -4.106304 -2.710045 0
M  V30 48 H -5.634610 -4.470559 -2.137761 0
M  V30 49 H -5.337254 -2.859710 -2.910105 0
M  V30 50 H -6.468248 -2.407952 -0.279771 0
M  V30 51 H -5.114163 -1.379760 0.178838 0
M  V30 52 H -5.744400 -1.421284 -1.568348 0
M  V30 53 H -3.743602 -0.569369 -2.814187 0
M  V30 54 H -3.417486 -0.617276 -5.265211 0
M  V30 55 H -1.753753 -2.193583 -6.280541 0
M  V30 56 H -0.464074 -3.679496 -4.786574 0
M  V30 57 H -0.801995 -3.610443 -2.408885 0
M  V30 58 H 1.646818 -4.227309 1.072454 0
M  V30 59 H 0.207485 -3.399049 1.860217 0
M  V30 60 H 1.821562 -3.374822 2.656229 0
M  V30 61 H 3.173035 -2.214498 -0.677602 0
M  V30 62 H 1.541614 -1.674217 -1.103802 0
M  V30 63 H 1.916754 -3.452760 -0.716440 0
M  V30 64 H 3.003475 6.089565 -0.160588 0
M  V30 65 H 1.412243 6.373754 1.771516 0
M  V30 END ATOM
M  V30 BEGIN BOND
M  V30 1 1 1 2
M  V30 2 2 2 3
M  V30 3 1 3 4
M  V30 4 1 4 5
M  V30 5 1 5 6
M  V30 6 2 6 7
M  V30 7 1 7 8
M  V30 8 1 8 9
M  V30 9 2 9 10
M  V30 10 1 10 11
M  V30 11 1 11 12
M  V30 12 1 12 13
M  V30 13 2 13 14
M  V30 14 1 13 15
M  V30 15 1 15 16
M  V30 16 1 16 17
M  V30 17 1 17 18
M  V30 18 1 18 19
M  V30 19 1 18 20
M  V30 20 1 16 21
M  V30 21 2 21 22
M  V30 22 1 22 23
M  V30 23 2 23 24
M  V30 24 1 24 25
M  V30 25 2 25 26
M  V30 26 1 12 27
M  V30 27 1 27 28
M  V30 28 1 27 29
M  V30 29 2 4 30
M  V30 30 1 30 31
M  V30 31 1 31 32
M  V30 32 2 32 33
M  V30 33 1 33 34
M  V30 34 2 34 35
M  V30 35 1 35 2
M  V30 36 1 10 6
M  V30 37 1 26 21
M  V30 38 1 34 30
M  V30 39 1 27 9
M  V30 40 1 1 36
M  V30 41 1 1 37
M  V30 42 1 1 38
M  V30 43 1 5 39
M  V30 44 1 8 40
M  V30 45 1 11 41
M  V30 46 1 11 42
M  V30 47 1 15 43
M  V30 48 1 16 44 CFG=1
M  V30 49 1 17 45
M  V30 50 1 17 46
M  V30 51 1 19 47
M  V30 52 1 19 48
M  V30 53 1 19 49
M  V30 54 1 20 50
M  V30 55 1 20 51
M  V30 56 1 20 52
M  V30 57 1 22 53
M  V30 58 1 23 54
M  V30 59 1 24 55
M  V30 60 1 25 56
M  V30 61 1 26 57
M  V30 62 1 28 58
M  V30 63 1 28 59
M  V30 64 1 28 60
M  V30 65 1 29 61
M  V30 66 1 29 62
M  V30 67 1 29 63
M  V30 68 1 32 64
M  V30 69 1 33 65
M  V30 END BOND
M  V30 END CTAB
M  END
>  <Dataset>  (17) 
ChEMBL_PKA

>  <Ligand_Instance>  (17) 
nan

>  <PDB_ID>  (17) 
nan

>  <Standardized_SMILES>  (17) 
Cc1nc(Nc2n[nH]c3c2CN(C(=O)N[C@H](CN(C)C)c2ccccc2)C3(C)C)c2sccc2n1

>  <Name>  (17) 
PF-03758309

>  <Pocket>  (17) 
nan

>  <ATP_Site>  (17) 
nan

>  <Peripheral>  (17) 
nan

>  <Num_H_Atoms_ProtBoundConf>  (17) 
nan

>  <Num_Resolved_Atoms>  (17) 
nan

>  <Num_Not_Resolved_Atoms>  (17) 
nan

>  <2D_Mol_H>  (17) 
<rdkit.Chem.rdchem.Mol object at 0x72a239102420>

>  <MW>  (17) 
490.637

>  <HBA>  (17) 
7

>  <HBD>  (17) 
3

>  <LogP>  (17) 
4.52962

>  <NRB>  (17) 
11

>  <TPSA>  (17) 
102.07

>  <Num_Heavy_Atoms>  (17) 
35

>  <Ro5>  (17) 
[True, True, True, True, False, True]

>  <Ro5_Fulfilled>  (17) 
True

>  <Ro3>  (17) 
[False, False, True, False]

>  <Ro3_Fulfilled>  (17) 
False

>  <Fsp3>  (17) 
0.36

>  <Fsp3_0.42>  (17) 
False

>  <Fsp3_0.45>  (17) 
False

>  <Stereogenic_Carbons>  (17) 
1

>  <C_Atoms>  (17) 
25

>  <FCStereo>  (17) 
0.04

>  <SPS>  (17) 
540

>  <nSPS>  (17) 
15.428571

>  <PBF>  (17) 
1.426557

>  <PBF_0.6>  (17) 
True

>  <nPBF>  (17) 
0.040759

>  <nPBF_0.016>  (17) 
True

>  <PMI1>  (17) 
2940.614585

>  <PMI2>  (17) 
9662.828454

>  <PMI3>  (17) 
10155.838778

>  <NPR1>  (17) 
0.289549

>  <NPR2>  (17) 
0.951455

>  <Sum_NPR>  (17) 
1.241005

>  <Sum_NPR_1.07>  (17) 
True

>  <Sum_NPR_1.2>  (17) 
True

>  <MaxAbsEStateIndex>  (17) 
13.569671

>  <MaxEStateIndex>  (17) 
13.569671

>  <MinAbsEStateIndex>  (17) 
0.111314

>  <MinEStateIndex>  (17) 
-0.550057

>  <qed>  (17) 
0.36706

>  <MolWt>  (17) 
490.637

>  <HeavyAtomMolWt>  (17) 
460.397

>  <ExactMolWt>  (17) 
490.226329

>  <NumValenceElectrons>  (17) 
182

>  <NumRadicalElectrons>  (17) 
0

>  <MaxPartialCharge>  (17) 
0.318501

>  <MinPartialCharge>  (17) 
-0.329853

>  <MaxAbsPartialCharge>  (17) 
0.329853

>  <MinAbsPartialCharge>  (17) 
0.318501

>  <FpDensityMorgan1>  (17) 
1.2

>  <FpDensityMorgan2>  (17) 
1.971429

>  <FpDensityMorgan3>  (17) 
2.714286

>  <BCUT2D_MWHI>  (17) 
32.133447

>  <BCUT2D_MWLOW>  (17) 
10.007134

>  <BCUT2D_CHGHI>  (17) 
2.439085

>  <BCUT2D_CHGLO>  (17) 
-2.336747

>  <BCUT2D_LOGPHI>  (17) 
2.414468

>  <BCUT2D_LOGPLOW>  (17) 
-2.482356

>  <BCUT2D_MRHI>  (17) 
7.173048

>  <BCUT2D_MRLOW>  (17) 
0.137522

>  <AvgIpc>  (17) 
3.497444

>  <BalabanJ>  (17) 
1.396024

>  <BertzCT>  (17) 
1360.569184

>  <Chi0>  (17) 
24.741912

>  <Chi0n>  (17) 
20.58558

>  <Chi0v>  (17) 
21.402077

>  <Chi1>  (17) 
16.735221

>  <Chi1n>  (17) 
11.581532

>  <Chi1v>  (17) 
12.461184

>  <Chi2n>  (17) 
9.625324

>  <Chi2v>  (17) 
10.54144

>  <Chi3n>  (17) 
6.414662

>  <Chi3v>  (17) 
7.325017

>  <Chi4n>  (17) 
4.633289

>  <Chi4v>  (17) 
5.409048

>  <HallKierAlpha>  (17) 
-3.5

>  <Ipc>  (17) 
100167979.789602

>  <Kappa1>  (17) 
23.251637

>  <Kappa2>  (17) 
8.936159

>  <Kappa3>  (17) 
4.346059

>  <LabuteASA>  (17) 
208.128681

>  <PEOE_VSA1>  (17) 
20.433397

>  <PEOE_VSA10>  (17) 
5.824404

>  <PEOE_VSA11>  (17) 
11.635726

>  <PEOE_VSA12>  (17) 
0.0

>  <PEOE_VSA13>  (17) 
0.0

>  <PEOE_VSA14>  (17) 
6.031115

>  <PEOE_VSA2>  (17) 
5.098682

>  <PEOE_VSA3>  (17) 
14.762494

>  <PEOE_VSA4>  (17) 
5.098682

>  <PEOE_VSA5>  (17) 
11.336786

>  <PEOE_VSA6>  (17) 
30.331835

>  <PEOE_VSA7>  (17) 
51.876437

>  <PEOE_VSA8>  (17) 
12.108208

>  <PEOE_VSA9>  (17) 
34.036071

>  <SMR_VSA1>  (17) 
4.794537

>  <SMR_VSA10>  (17) 
39.220247

>  <SMR_VSA2>  (17) 
0.0

>  <SMR_VSA3>  (17) 
35.281929

>  <SMR_VSA4>  (17) 
0.0

>  <SMR_VSA5>  (17) 
38.896734

>  <SMR_VSA6>  (17) 
25.956889

>  <SMR_VSA7>  (17) 
64.423501

>  <SMR_VSA8>  (17) 
0.0

>  <SMR_VSA9>  (17) 
0.0

>  <SlogP_VSA1>  (17) 
10.633577

>  <SlogP_VSA10>  (17) 
16.430263

>  <SlogP_VSA11>  (17) 
0.0

>  <SlogP_VSA12>  (17) 
11.336786

>  <SlogP_VSA2>  (17) 
56.636355

>  <SlogP_VSA3>  (17) 
12.083682

>  <SlogP_VSA4>  (17) 
6.923737

>  <SlogP_VSA5>  (17) 
42.534551

>  <SlogP_VSA6>  (17) 
41.778265

>  <SlogP_VSA7>  (17) 
0.0

>  <SlogP_VSA8>  (17) 
10.216621

>  <SlogP_VSA9>  (17) 
0.0

>  <EState_VSA1>  (17) 
5.538925

>  <EState_VSA10>  (17) 
4.794537

>  <EState_VSA11>  (17) 
0.0

>  <EState_VSA2>  (17) 
12.072955

>  <EState_VSA3>  (17) 
24.73178

>  <EState_VSA4>  (17) 
32.855314

>  <EState_VSA5>  (17) 
0.0

>  <EState_VSA6>  (17) 
11.336786

>  <EState_VSA7>  (17) 
81.54473

>  <EState_VSA8>  (17) 
35.698808

>  <EState_VSA9>  (17) 
0.0

>  <VSA_EState1>  (17) 
0.98018

>  <VSA_EState10>  (17) 
1.5885

>  <VSA_EState2>  (17) 
26.606784

>  <VSA_EState3>  (17) 
16.364195

>  <VSA_EState4>  (17) 
3.32658

>  <VSA_EState5>  (17) 
2.107842

>  <VSA_EState6>  (17) 
11.828737

>  <VSA_EState7>  (17) 
0.0

>  <VSA_EState8>  (17) 
7.09455

>  <VSA_EState9>  (17) 
4.019299

>  <FractionCSP3>  (17) 
0.36

>  <HeavyAtomCount>  (17) 
35

>  <NHOHCount>  (17) 
3

>  <NOCount>  (17) 
9

>  <NumAliphaticCarbocycles>  (17) 
0

>  <NumAliphaticHeterocycles>  (17) 
1

>  <NumAliphaticRings>  (17) 
1

>  <NumAromaticCarbocycles>  (17) 
1

>  <NumAromaticHeterocycles>  (17) 
3

>  <NumAromaticRings>  (17) 
4

>  <NumHAcceptors>  (17) 
7

>  <NumHDonors>  (17) 
3

>  <NumHeteroatoms>  (17) 
10

>  <NumRotatableBonds>  (17) 
6

>  <NumSaturatedCarbocycles>  (17) 
0

>  <NumSaturatedHeterocycles>  (17) 
0

>  <NumSaturatedRings>  (17) 
0

>  <RingCount>  (17) 
5

>  <MolLogP>  (17) 
4.52962

>  <MolMR>  (17) 
138.8601

>  <fr_Al_COO>  (17) 
0

>  <fr_Al_OH>  (17) 
0

>  <fr_Al_OH_noTert>  (17) 
0

>  <fr_ArN>  (17) 
0

>  <fr_Ar_COO>  (17) 
0

>  <fr_Ar_N>  (17) 
4

>  <fr_Ar_NH>  (17) 
1

>  <fr_Ar_OH>  (17) 
0

>  <fr_COO>  (17) 
0

>  <fr_COO2>  (17) 
0

>  <fr_C_O>  (17) 
1

>  <fr_C_O_noCOO>  (17) 
1

>  <fr_C_S>  (17) 
0

>  <fr_HOCCN>  (17) 
0

>  <fr_Imine>  (17) 
0

>  <fr_NH0>  (17) 
5

>  <fr_NH1>  (17) 
3

>  <fr_NH2>  (17) 
0

>  <fr_N_O>  (17) 
0

>  <fr_Ndealkylation1>  (17) 
1

>  <fr_Ndealkylation2>  (17) 
0

>  <fr_Nhpyrrole>  (17) 
1

>  <fr_SH>  (17) 
0

>  <fr_aldehyde>  (17) 
0

>  <fr_alkyl_carbamate>  (17) 
0

>  <fr_alkyl_halide>  (17) 
0

>  <fr_allylic_oxid>  (17) 
0

>  <fr_amide>  (17) 
2

>  <fr_amidine>  (17) 
0

>  <fr_aniline>  (17) 
2

>  <fr_aryl_methyl>  (17) 
1

>  <fr_azide>  (17) 
0

>  <fr_azo>  (17) 
0

>  <fr_barbitur>  (17) 
0

>  <fr_benzene>  (17) 
1

>  <fr_benzodiazepine>  (17) 
0

>  <fr_bicyclic>  (17) 
2

>  <fr_diazo>  (17) 
0

>  <fr_dihydropyridine>  (17) 
0

>  <fr_epoxide>  (17) 
0

>  <fr_ester>  (17) 
0

>  <fr_ether>  (17) 
0

>  <fr_furan>  (17) 
0

>  <fr_guanido>  (17) 
0

>  <fr_halogen>  (17) 
0

>  <fr_hdrzine>  (17) 
0

>  <fr_hdrzone>  (17) 
0

>  <fr_imidazole>  (17) 
0

>  <fr_imide>  (17) 
0

>  <fr_isocyan>  (17) 
0

>  <fr_isothiocyan>  (17) 
0

>  <fr_ketone>  (17) 
0

>  <fr_ketone_Topliss>  (17) 
0

>  <fr_lactam>  (17) 
0

>  <fr_lactone>  (17) 
0

>  <fr_methoxy>  (17) 
0

>  <fr_morpholine>  (17) 
0

>  <fr_nitrile>  (17) 
0

>  <fr_nitro>  (17) 
0

>  <fr_nitro_arom>  (17) 
0

>  <fr_nitro_arom_nonortho>  (17) 
0

>  <fr_nitroso>  (17) 
0

>  <fr_oxazole>  (17) 
0

>  <fr_oxime>  (17) 
0

>  <fr_para_hydroxylation>  (17) 
0

>  <fr_phenol>  (17) 
0

>  <fr_phenol_noOrthoHbond>  (17) 
0

>  <fr_phos_acid>  (17) 
0

>  <fr_phos_ester>  (17) 
0

>  <fr_piperdine>  (17) 
0

>  <fr_piperzine>  (17) 
0

>  <fr_priamide>  (17) 
0

>  <fr_prisulfonamd>  (17) 
0

>  <fr_pyridine>  (17) 
0

>  <fr_quatN>  (17) 
0

>  <fr_sulfide>  (17) 
0

>  <fr_sulfonamd>  (17) 
0

>  <fr_sulfone>  (17) 
0

>  <fr_term_acetylene>  (17) 
0

>  <fr_tetrazole>  (17) 
0

>  <fr_thiazole>  (17) 
0

>  <fr_thiocyan>  (17) 
0

>  <fr_thiophene>  (17) 
1

>  <fr_unbrch_alkane>  (17) 
0

>  <fr_urea>  (17) 
1

>  <NP_Likeness>  (17) 
-1.373465

$$$$
CHEMBL3137336
     RDKit          3D

  0  0  0  0  0  0  0  0  0  0999 V3000
M  V30 BEGIN CTAB
M  V30 COUNTS 44 46 0 0 0
M  V30 BEGIN ATOM
M  V30 1 C -0.036993 -3.883561 0.862006 0
M  V30 2 N 0.830216 -4.668758 -0.012203 0
M  V30 3 N 0.687038 -5.983812 -0.098157 0
M  V30 4 C 1.588033 -6.479016 -0.954318 0
M  V30 5 C 2.275016 -5.366510 -1.369799 0
M  V30 6 Cl 3.539081 -5.703434 -2.514291 0
M  V30 7 C 1.820964 -4.212496 -0.794316 0
M  V30 8 C 2.291987 -2.865966 -0.985313 0
M  V30 9 C 1.751498 -1.776901 -0.347413 0
M  V30 10 C 2.386317 -0.579500 -0.701703 0
M  V30 11 C 2.205908 0.822061 -0.323234 0
M  V30 12 O 2.921081 1.746072 -0.789932 0
M  V30 13 N 1.159727 1.116990 0.622094 0
M  V30 14 C 0.982812 2.526502 0.998750 0 CFG=2
M  V30 15 C 1.051596 2.643035 2.501541 0
M  V30 16 N 0.898131 3.967520 3.005953 0
M  V30 17 C -0.450417 2.871300 0.588692 0
M  V30 18 C -1.451875 2.022888 1.275562 0
M  V30 19 C -2.068238 2.279305 2.482293 0
M  V30 20 C -2.993726 1.422436 3.039160 0
M  V30 21 C -3.352648 0.255544 2.411566 0
M  V30 22 F -4.265067 -0.558876 2.991279 0
M  V30 23 C -2.765801 -0.048406 1.202026 0
M  V30 24 F -3.136185 -1.192826 0.614680 0
M  V30 25 C -1.843457 0.827115 0.668873 0
M  V30 26 O 3.327671 -0.958416 -1.570663 0
M  V30 27 C 3.263297 -2.257564 -1.722546 0
M  V30 28 Cl 4.379632 -3.024319 -2.803559 0
M  V30 29 H 0.522660 -3.412793 1.704470 0
M  V30 30 H -0.716439 -4.622960 1.383065 0
M  V30 31 H -0.681309 -3.213277 0.289873 0
M  V30 32 H 1.593622 -7.542507 -1.128531 0
M  V30 33 H 0.967817 -1.586397 0.355552 0
M  V30 34 H 0.544934 0.383537 1.035217 0
M  V30 35 H 1.709572 3.162511 0.499453 0
M  V30 36 H 0.327178 1.928985 2.948079 0
M  V30 37 H 2.053947 2.268628 2.858802 0
M  V30 38 H 0.163160 4.540906 2.578805 0
M  V30 39 H 1.818467 4.415751 3.091500 0
M  V30 40 H -0.675766 3.928416 0.830815 0
M  V30 41 H -0.558079 2.771351 -0.513930 0
M  V30 42 H -1.785166 3.199419 2.974650 0
M  V30 43 H -3.436996 1.688130 3.989264 0
M  V30 44 H -1.445314 0.479075 -0.296525 0
M  V30 END ATOM
M  V30 BEGIN BOND
M  V30 1 1 1 2
M  V30 2 1 2 3
M  V30 3 2 3 4
M  V30 4 1 4 5
M  V30 5 1 5 6
M  V30 6 2 5 7
M  V30 7 1 7 8
M  V30 8 1 8 9
M  V30 9 2 9 10
M  V30 10 1 10 11
M  V30 11 2 11 12
M  V30 12 1 11 13
M  V30 13 1 13 14
M  V30 14 1 14 15
M  V30 15 1 15 16
M  V30 16 1 14 17
M  V30 17 1 17 18
M  V30 18 2 18 19
M  V30 19 1 19 20
M  V30 20 2 20 21
M  V30 21 1 21 22
M  V30 22 1 21 23
M  V30 23 1 23 24
M  V30 24 2 23 25
M  V30 25 1 10 26
M  V30 26 1 26 27
M  V30 27 1 27 28
M  V30 28 1 7 2
M  V30 29 2 27 8
M  V30 30 1 25 18
M  V30 31 1 1 29
M  V30 32 1 1 30
M  V30 33 1 1 31
M  V30 34 1 4 32
M  V30 35 1 9 33
M  V30 36 1 13 34
M  V30 37 1 14 35 CFG=3
M  V30 38 1 15 36
M  V30 39 1 15 37
M  V30 40 1 16 38
M  V30 41 1 16 39
M  V30 42 1 17 40
M  V30 43 1 17 41
M  V30 44 1 19 42
M  V30 45 1 20 43
M  V30 46 1 25 44
M  V30 END BOND
M  V30 END CTAB
M  END
>  <Dataset>  (18) 
ChEMBL_PKA

>  <Ligand_Instance>  (18) 
nan

>  <PDB_ID>  (18) 
nan

>  <Standardized_SMILES>  (18) 
Cn1ncc(Cl)c1-c1cc(C(=O)N[C@H](CN)Cc2ccc(F)c(F)c2)oc1Cl

>  <Name>  (18) 
UPROSERTIB

>  <Pocket>  (18) 
nan

>  <ATP_Site>  (18) 
nan

>  <Peripheral>  (18) 
nan

>  <Num_H_Atoms_ProtBoundConf>  (18) 
nan

>  <Num_Resolved_Atoms>  (18) 
nan

>  <Num_Not_Resolved_Atoms>  (18) 
nan

>  <2D_Mol_H>  (18) 
<rdkit.Chem.rdchem.Mol object at 0x72a239102500>

>  <MW>  (18) 
429.254

>  <HBA>  (18) 
5

>  <HBD>  (18) 
2

>  <LogP>  (18) 
3.5649

>  <NRB>  (18) 
8

>  <TPSA>  (18) 
86.08

>  <Num_Heavy_Atoms>  (18) 
28

>  <Ro5>  (18) 
[True, True, True, True, True, True]

>  <Ro5_Fulfilled>  (18) 
True

>  <Ro3>  (18) 
[False, False, True, False]

>  <Ro3_Fulfilled>  (18) 
False

>  <Fsp3>  (18) 
0.222222

>  <Fsp3_0.42>  (18) 
False

>  <Fsp3_0.45>  (18) 
False

>  <Stereogenic_Carbons>  (18) 
1

>  <C_Atoms>  (18) 
18

>  <FCStereo>  (18) 
0.055556

>  <SPS>  (18) 
342

>  <nSPS>  (18) 
12.214286

>  <PBF>  (18) 
0.693729

>  <PBF_0.6>  (18) 
True

>  <nPBF>  (18) 
0.024776

>  <nPBF_0.016>  (18) 
True

>  <PMI1>  (18) 
2216.881956

>  <PMI2>  (18) 
6138.430051

>  <PMI3>  (18) 
7951.912509

>  <NPR1>  (18) 
0.278786

>  <NPR2>  (18) 
0.771944

>  <Sum_NPR>  (18) 
1.05073

>  <Sum_NPR_1.07>  (18) 
False

>  <Sum_NPR_1.2>  (18) 
False

>  <MaxAbsEStateIndex>  (18) 
13.366839

>  <MaxEStateIndex>  (18) 
13.366839

>  <MinAbsEStateIndex>  (18) 
0.013376

>  <MinEStateIndex>  (18) 
-0.962859

>  <qed>  (18) 
0.627668

>  <MolWt>  (18) 
429.254

>  <HeavyAtomMolWt>  (18) 
413.126

>  <ExactMolWt>  (18) 
428.061838

>  <NumValenceElectrons>  (18) 
148

>  <NumRadicalElectrons>  (18) 
0

>  <MaxPartialCharge>  (18) 
0.286859

>  <MinPartialCharge>  (18) 
-0.4388

>  <MaxAbsPartialCharge>  (18) 
0.4388

>  <MinAbsPartialCharge>  (18) 
0.286859

>  <FpDensityMorgan1>  (18) 
1.321429

>  <FpDensityMorgan2>  (18) 
2.071429

>  <FpDensityMorgan3>  (18) 
2.678571

>  <BCUT2D_MWHI>  (18) 
35.496793

>  <BCUT2D_MWLOW>  (18) 
10.054477

>  <BCUT2D_CHGHI>  (18) 
2.223848

>  <BCUT2D_CHGLO>  (18) 
-2.158767

>  <BCUT2D_LOGPHI>  (18) 
2.347659

>  <BCUT2D_LOGPLOW>  (18) 
-2.411738

>  <BCUT2D_MRHI>  (18) 
6.351034

>  <BCUT2D_MRLOW>  (18) 
0.090985

>  <AvgIpc>  (18) 
3.188666

>  <BalabanJ>  (18) 
1.761226

>  <BertzCT>  (18) 
999.681926

>  <Chi0>  (18) 
20.421921

>  <Chi0n>  (18) 
14.678447

>  <Chi0v>  (18) 
16.190305

>  <Chi1>  (18) 
13.294933

>  <Chi1n>  (18) 
8.218353

>  <Chi1v>  (18) 
8.974282

>  <Chi2n>  (18) 
6.121424

>  <Chi2v>  (18) 
6.87191

>  <Chi3n>  (18) 
4.145628

>  <Chi3v>  (18) 
4.702976

>  <Chi4n>  (18) 
2.756808

>  <Chi4v>  (18) 
3.251741

>  <HallKierAlpha>  (18) 
-2.42

>  <Ipc>  (18) 
1994854.82068

>  <Kappa1>  (18) 
20.317758

>  <Kappa2>  (18) 
8.299375

>  <Kappa3>  (18) 
4.187803

>  <LabuteASA>  (18) 
168.760743

>  <PEOE_VSA1>  (18) 
15.467607

>  <PEOE_VSA10>  (18) 
0.0

>  <PEOE_VSA11>  (18) 
17.394689

>  <PEOE_VSA12>  (18) 
5.219429

>  <PEOE_VSA13>  (18) 
5.90718

>  <PEOE_VSA14>  (18) 
0.0

>  <PEOE_VSA2>  (18) 
9.47634

>  <PEOE_VSA3>  (18) 
8.78083

>  <PEOE_VSA4>  (18) 
5.098682

>  <PEOE_VSA5>  (18) 
0.0

>  <PEOE_VSA6>  (18) 
17.667307

>  <PEOE_VSA7>  (18) 
35.717947

>  <PEOE_VSA8>  (18) 
25.700636

>  <PEOE_VSA9>  (18) 
22.476856

>  <SMR_VSA1>  (18) 
17.992518

>  <SMR_VSA10>  (18) 
29.10906

>  <SMR_VSA2>  (18) 
0.0

>  <SMR_VSA3>  (18) 
15.097273

>  <SMR_VSA4>  (18) 
12.781339

>  <SMR_VSA5>  (18) 
12.462662

>  <SMR_VSA6>  (18) 
6.544756

>  <SMR_VSA7>  (18) 
63.662515

>  <SMR_VSA8>  (18) 
0.0

>  <SMR_VSA9>  (18) 
11.257379

>  <SlogP_VSA1>  (18) 
11.050456

>  <SlogP_VSA10>  (18) 
8.78083

>  <SlogP_VSA11>  (18) 
0.0

>  <SlogP_VSA12>  (18) 
23.20188

>  <SlogP_VSA2>  (18) 
28.274262

>  <SlogP_VSA3>  (18) 
13.468494

>  <SlogP_VSA4>  (18) 
11.634442

>  <SlogP_VSA5>  (18) 
16.118236

>  <SlogP_VSA6>  (18) 
34.879463

>  <SlogP_VSA7>  (18) 
10.242063

>  <SlogP_VSA8>  (18) 
11.257379

>  <SlogP_VSA9>  (18) 
0.0

>  <EState_VSA1>  (18) 
23.583462

>  <EState_VSA10>  (18) 
13.575367

>  <EState_VSA11>  (18) 
0.0

>  <EState_VSA2>  (18) 
23.945255

>  <EState_VSA3>  (18) 
21.843464

>  <EState_VSA4>  (18) 
12.132734

>  <EState_VSA5>  (18) 
23.011381

>  <EState_VSA6>  (18) 
7.047672

>  <EState_VSA7>  (18) 
0.0

>  <EState_VSA8>  (18) 
10.41547

>  <EState_VSA9>  (18) 
33.352698

>  <VSA_EState1>  (18) 
33.270261

>  <VSA_EState10>  (18) 
12.211834

>  <VSA_EState2>  (18) 
12.521697

>  <VSA_EState3>  (18) 
7.055616

>  <VSA_EState4>  (18) 
7.117965

>  <VSA_EState5>  (18) 
-2.496059

>  <VSA_EState6>  (18) 
4.446965

>  <VSA_EState7>  (18) 
1.6672

>  <VSA_EState8>  (18) 
0.082929

>  <VSA_EState9>  (18) 
1.677148

>  <FractionCSP3>  (18) 
0.222222

>  <HeavyAtomCount>  (18) 
28

>  <NHOHCount>  (18) 
3

>  <NOCount>  (18) 
6

>  <NumAliphaticCarbocycles>  (18) 
0

>  <NumAliphaticHeterocycles>  (18) 
0

>  <NumAliphaticRings>  (18) 
0

>  <NumAromaticCarbocycles>  (18) 
1

>  <NumAromaticHeterocycles>  (18) 
2

>  <NumAromaticRings>  (18) 
3

>  <NumHAcceptors>  (18) 
5

>  <NumHDonors>  (18) 
2

>  <NumHeteroatoms>  (18) 
10

>  <NumRotatableBonds>  (18) 
6

>  <NumSaturatedCarbocycles>  (18) 
0

>  <NumSaturatedHeterocycles>  (18) 
0

>  <NumSaturatedRings>  (18) 
0

>  <RingCount>  (18) 
3

>  <MolLogP>  (18) 
3.5649

>  <MolMR>  (18) 
101.3006

>  <fr_Al_COO>  (18) 
0

>  <fr_Al_OH>  (18) 
0

>  <fr_Al_OH_noTert>  (18) 
0

>  <fr_ArN>  (18) 
0

>  <fr_Ar_COO>  (18) 
0

>  <fr_Ar_N>  (18) 
2

>  <fr_Ar_NH>  (18) 
0

>  <fr_Ar_OH>  (18) 
0

>  <fr_COO>  (18) 
0

>  <fr_COO2>  (18) 
0

>  <fr_C_O>  (18) 
1

>  <fr_C_O_noCOO>  (18) 
1

>  <fr_C_S>  (18) 
0

>  <fr_HOCCN>  (18) 
0

>  <fr_Imine>  (18) 
0

>  <fr_NH0>  (18) 
2

>  <fr_NH1>  (18) 
1

>  <fr_NH2>  (18) 
1

>  <fr_N_O>  (18) 
0

>  <fr_Ndealkylation1>  (18) 
0

>  <fr_Ndealkylation2>  (18) 
0

>  <fr_Nhpyrrole>  (18) 
0

>  <fr_SH>  (18) 
0

>  <fr_aldehyde>  (18) 
0

>  <fr_alkyl_carbamate>  (18) 
0

>  <fr_alkyl_halide>  (18) 
0

>  <fr_allylic_oxid>  (18) 
0

>  <fr_amide>  (18) 
1

>  <fr_amidine>  (18) 
0

>  <fr_aniline>  (18) 
0

>  <fr_aryl_methyl>  (18) 
1

>  <fr_azide>  (18) 
0

>  <fr_azo>  (18) 
0

>  <fr_barbitur>  (18) 
0

>  <fr_benzene>  (18) 
1

>  <fr_benzodiazepine>  (18) 
0

>  <fr_bicyclic>  (18) 
0

>  <fr_diazo>  (18) 
0

>  <fr_dihydropyridine>  (18) 
0

>  <fr_epoxide>  (18) 
0

>  <fr_ester>  (18) 
0

>  <fr_ether>  (18) 
0

>  <fr_furan>  (18) 
1

>  <fr_guanido>  (18) 
0

>  <fr_halogen>  (18) 
4

>  <fr_hdrzine>  (18) 
0

>  <fr_hdrzone>  (18) 
0

>  <fr_imidazole>  (18) 
0

>  <fr_imide>  (18) 
0

>  <fr_isocyan>  (18) 
0

>  <fr_isothiocyan>  (18) 
0

>  <fr_ketone>  (18) 
0

>  <fr_ketone_Topliss>  (18) 
0

>  <fr_lactam>  (18) 
0

>  <fr_lactone>  (18) 
0

>  <fr_methoxy>  (18) 
0

>  <fr_morpholine>  (18) 
0

>  <fr_nitrile>  (18) 
0

>  <fr_nitro>  (18) 
0

>  <fr_nitro_arom>  (18) 
0

>  <fr_nitro_arom_nonortho>  (18) 
0

>  <fr_nitroso>  (18) 
0

>  <fr_oxazole>  (18) 
0

>  <fr_oxime>  (18) 
0

>  <fr_para_hydroxylation>  (18) 
0

>  <fr_phenol>  (18) 
0

>  <fr_phenol_noOrthoHbond>  (18) 
0

>  <fr_phos_acid>  (18) 
0

>  <fr_phos_ester>  (18) 
0

>  <fr_piperdine>  (18) 
0

>  <fr_piperzine>  (18) 
0

>  <fr_priamide>  (18) 
0

>  <fr_prisulfonamd>  (18) 
0

>  <fr_pyridine>  (18) 
0

>  <fr_quatN>  (18) 
0

>  <fr_sulfide>  (18) 
0

>  <fr_sulfonamd>  (18) 
0

>  <fr_sulfone>  (18) 
0

>  <fr_term_acetylene>  (18) 
0

>  <fr_tetrazole>  (18) 
0

>  <fr_thiazole>  (18) 
0

>  <fr_thiocyan>  (18) 
0

>  <fr_thiophene>  (18) 
0

>  <fr_unbrch_alkane>  (18) 
0

>  <fr_urea>  (18) 
0

>  <NP_Likeness>  (18) 
-1.332225

$$$$
CHEMBL3401979
     RDKit          3D

  0  0  0  0  0  0  0  0  0  0999 V3000
M  V30 BEGIN CTAB
M  V30 COUNTS 52 57 0 0 0
M  V30 BEGIN ATOM
M  V30 1 O -2.130271 2.355343 5.711182 0
M  V30 2 C -1.087051 2.055433 4.875220 0
M  V30 3 C -0.945554 2.037164 3.506511 0
M  V30 4 C 0.344137 1.653365 3.205705 0
M  V30 5 C 0.866628 1.519773 1.845358 0 CFG=1
M  V30 6 C 1.945770 2.575944 1.660924 0 CFG=1
M  V30 7 C 3.221169 2.020842 2.243735 0
M  V30 8 C 3.726679 0.955344 1.288837 0
M  V30 9 C 2.535613 0.382099 0.531123 0 CFG=2
M  V30 10 C 2.108428 1.461837 -0.467274 0
M  V30 11 C 2.197826 2.834868 0.188411 0
M  V30 12 C 1.410113 0.111634 1.553100 0 CFG=2
M  V30 13 N 0.412954 -0.587151 0.845087 0
M  V30 14 C 0.370879 -1.954499 0.500988 0
M  V30 15 N -0.594389 -2.566637 -0.223324 0
M  V30 16 C -0.622105 -3.868324 -0.523103 0
M  V30 17 C -1.739606 -4.373071 -1.317487 0
M  V30 18 C -1.928957 -5.678947 -1.719820 0
M  V30 19 N -3.078922 -5.745071 -2.438241 0
M  V30 20 C -3.642108 -4.515804 -2.513292 0
M  V30 21 N -4.789306 -4.094771 -3.123190 0
M  V30 22 C -5.128589 -2.785935 -3.043836 0
M  V30 23 C -4.343210 -1.879534 -2.364299 0
M  V30 24 F -4.632038 -0.549384 -2.249232 0
M  V30 25 C -3.167071 -2.307094 -1.738112 0
M  V30 26 C -2.810454 -3.657815 -1.816035 0
M  V30 27 N 0.338900 -4.716769 -0.118629 0
M  V30 28 C 1.355429 -4.180720 0.620936 0
M  V30 29 C 1.343174 -2.830509 0.907057 0
M  V30 30 F 2.397436 -2.471550 1.650792 0
M  V30 31 N 0.930214 1.454908 4.413734 0
M  V30 32 O 0.064766 1.699635 5.336627 0
M  V30 33 H -2.627246 1.586821 6.186319 0
M  V30 34 H -1.788420 2.303106 2.853374 0
M  V30 35 H 0.049230 1.779736 1.142320 0
M  V30 36 H 1.603074 3.494651 2.126661 0
M  V30 37 H 3.000258 1.616162 3.251263 0
M  V30 38 H 3.924815 2.884892 2.335329 0
M  V30 39 H 4.120419 0.120140 1.920722 0
M  V30 40 H 4.474353 1.325934 0.584416 0
M  V30 41 H 2.789367 -0.496304 -0.049264 0
M  V30 42 H 2.905502 1.455777 -1.238386 0
M  V30 43 H 1.144227 1.264353 -0.932776 0
M  V30 44 H 1.487619 3.559557 -0.243897 0
M  V30 45 H 3.208053 3.285140 0.116243 0
M  V30 46 H 1.882111 -0.342631 2.409711 0
M  V30 47 H -0.459327 -0.087432 0.486069 0
M  V30 48 H -1.304042 -6.540358 -1.526121 0
M  V30 49 H -3.522686 -6.596523 -2.896517 0
M  V30 50 H -6.019025 -2.359188 -3.495464 0
M  V30 51 H -2.540206 -1.611985 -1.201686 0
M  V30 52 H 2.105781 -4.892993 0.925917 0
M  V30 END ATOM
M  V30 BEGIN BOND
M  V30 1 1 1 2
M  V30 2 2 2 3
M  V30 3 1 3 4
M  V30 4 1 4 5
M  V30 5 1 5 6
M  V30 6 1 6 7
M  V30 7 1 7 8
M  V30 8 1 8 9
M  V30 9 1 9 10
M  V30 10 1 10 11
M  V30 11 1 9 12
M  V30 12 1 12 13
M  V30 13 1 13 14
M  V30 14 2 14 15
M  V30 15 1 15 16
M  V30 16 1 16 17
M  V30 17 2 17 18
M  V30 18 1 18 19
M  V30 19 1 19 20
M  V30 20 2 20 21
M  V30 21 1 21 22
M  V30 22 2 22 23
M  V30 23 1 23 24
M  V30 24 1 23 25
M  V30 25 2 25 26
M  V30 26 2 16 27
M  V30 27 1 27 28
M  V30 28 2 28 29
M  V30 29 1 29 30
M  V30 30 2 4 31
M  V30 31 1 31 32
M  V30 32 1 32 2
M  V30 33 1 12 5
M  V30 34 1 29 14
M  V30 35 1 11 6
M  V30 36 1 26 17
M  V30 37 1 26 20
M  V30 38 1 1 33
M  V30 39 1 3 34
M  V30 40 1 5 35 CFG=3
M  V30 41 1 6 36 CFG=1
M  V30 42 1 7 37
M  V30 43 1 7 38
M  V30 44 1 8 39
M  V30 45 1 8 40
M  V30 46 1 9 41 CFG=3
M  V30 47 1 10 42
M  V30 48 1 10 43
M  V30 49 1 11 44
M  V30 50 1 11 45
M  V30 51 1 12 46 CFG=1
M  V30 52 1 13 47
M  V30 53 1 18 48
M  V30 54 1 19 49
M  V30 55 1 22 50
M  V30 56 1 25 51
M  V30 57 1 28 52
M  V30 END BOND
M  V30 END CTAB
M  END
>  <Dataset>  (19) 
ChEMBL_PKA

>  <Ligand_Instance>  (19) 
nan

>  <PDB_ID>  (19) 
nan

>  <Standardized_SMILES>  (19) 
Oc1cc([C@H]2C3CCC(CC3)[C@@H]2Nc2nc(-c3c[nH]c4ncc(F)cc34)ncc2F)no1

>  <Name>  (19) 
nan

>  <Pocket>  (19) 
nan

>  <ATP_Site>  (19) 
nan

>  <Peripheral>  (19) 
nan

>  <Num_H_Atoms_ProtBoundConf>  (19) 
nan

>  <Num_Resolved_Atoms>  (19) 
nan

>  <Num_Not_Resolved_Atoms>  (19) 
nan

>  <2D_Mol_H>  (19) 
<rdkit.Chem.rdchem.Mol object at 0x72a2391025e0>

>  <MW>  (19) 
438.438

>  <HBA>  (19) 
7

>  <HBD>  (19) 
3

>  <LogP>  (19) 
4.376

>  <NRB>  (19) 
5

>  <TPSA>  (19) 
112.75

>  <Num_Heavy_Atoms>  (19) 
32

>  <Ro5>  (19) 
[True, True, True, True, True, True]

>  <Ro5_Fulfilled>  (19) 
True

>  <Ro3>  (19) 
[False, False, True, False]

>  <Ro3_Fulfilled>  (19) 
False

>  <Fsp3>  (19) 
0.363636

>  <Fsp3_0.42>  (19) 
False

>  <Fsp3_0.45>  (19) 
False

>  <Stereogenic_Carbons>  (19) 
4

>  <C_Atoms>  (19) 
22

>  <FCStereo>  (19) 
0.181818

>  <SPS>  (19) 
794

>  <nSPS>  (19) 
24.8125

>  <PBF>  (19) 
1.303787

>  <PBF_0.6>  (19) 
True

>  <nPBF>  (19) 
0.040743

>  <nPBF_0.016>  (19) 
True

>  <PMI1>  (19) 
2545.33665

>  <PMI2>  (19) 
7076.070847

>  <PMI3>  (19) 
7928.482614

>  <NPR1>  (19) 
0.321037

>  <NPR2>  (19) 
0.892487

>  <Sum_NPR>  (19) 
1.213524

>  <Sum_NPR_1.07>  (19) 
True

>  <Sum_NPR_1.2>  (19) 
True

>  <MaxAbsEStateIndex>  (19) 
14.778371

>  <MaxEStateIndex>  (19) 
14.778371

>  <MinAbsEStateIndex>  (19) 
0.017269

>  <MinEStateIndex>  (19) 
-0.568432

>  <qed>  (19) 
0.433462

>  <MolWt>  (19) 
438.438

>  <HeavyAtomMolWt>  (19) 
418.278

>  <ExactMolWt>  (19) 
438.16158

>  <NumValenceElectrons>  (19) 
164

>  <NumRadicalElectrons>  (19) 
0

>  <MaxPartialCharge>  (19) 
0.308447

>  <MinPartialCharge>  (19) 
-0.479314

>  <MaxAbsPartialCharge>  (19) 
0.479314

>  <MinAbsPartialCharge>  (19) 
0.308447

>  <FpDensityMorgan1>  (19) 
1.0625

>  <FpDensityMorgan2>  (19) 
1.875

>  <FpDensityMorgan3>  (19) 
2.65625

>  <BCUT2D_MWHI>  (19) 
19.143588

>  <BCUT2D_MWLOW>  (19) 
9.605094

>  <BCUT2D_CHGHI>  (19) 
2.457455

>  <BCUT2D_CHGLO>  (19) 
-2.478277

>  <BCUT2D_LOGPHI>  (19) 
2.504401

>  <BCUT2D_LOGPLOW>  (19) 
-2.467719

>  <BCUT2D_MRHI>  (19) 
5.911516

>  <BCUT2D_MRLOW>  (19) 
0.121145

>  <AvgIpc>  (19) 
3.416891

>  <BalabanJ>  (19) 
1.372325

>  <BertzCT>  (19) 
1296.815813

>  <Chi0>  (19) 
21.819262

>  <Chi0n>  (19) 
16.924825

>  <Chi0v>  (19) 
16.924825

>  <Chi1>  (19) 
15.563683

>  <Chi1n>  (19) 
10.642446

>  <Chi1v>  (19) 
10.642446

>  <Chi2n>  (19) 
8.602986

>  <Chi2v>  (19) 
8.602986

>  <Chi3n>  (19) 
6.862704

>  <Chi3v>  (19) 
6.862704

>  <Chi4n>  (19) 
5.437374

>  <Chi4v>  (19) 
5.437374

>  <HallKierAlpha>  (19) 
-3.56

>  <Ipc>  (19) 
46486708.981735

>  <Kappa1>  (19) 
19.149845

>  <Kappa2>  (19) 
7.249451

>  <Kappa3>  (19) 
3.08804

>  <LabuteASA>  (19) 
180.643735

>  <PEOE_VSA1>  (19) 
19.930389

>  <PEOE_VSA10>  (19) 
11.464398

>  <PEOE_VSA11>  (19) 
17.459488

>  <PEOE_VSA12>  (19) 
0.0

>  <PEOE_VSA13>  (19) 
0.0

>  <PEOE_VSA14>  (19) 
5.946308

>  <PEOE_VSA2>  (19) 
0.0

>  <PEOE_VSA3>  (19) 
23.732766

>  <PEOE_VSA4>  (19) 
0.0

>  <PEOE_VSA5>  (19) 
0.0

>  <PEOE_VSA6>  (19) 
5.156663

>  <PEOE_VSA7>  (19) 
43.585466

>  <PEOE_VSA8>  (19) 
35.172633

>  <PEOE_VSA9>  (19) 
18.087615

>  <SMR_VSA1>  (19) 
18.410452

>  <SMR_VSA10>  (19) 
16.851264

>  <SMR_VSA2>  (19) 
0.0

>  <SMR_VSA3>  (19) 
25.092577

>  <SMR_VSA4>  (19) 
11.835812

>  <SMR_VSA5>  (19) 
37.643033

>  <SMR_VSA6>  (19) 
5.316789

>  <SMR_VSA7>  (19) 
48.051635

>  <SMR_VSA8>  (19) 
0.0

>  <SMR_VSA9>  (19) 
17.334164

>  <SlogP_VSA1>  (19) 
5.316789

>  <SlogP_VSA10>  (19) 
14.598693

>  <SlogP_VSA11>  (19) 
5.946308

>  <SlogP_VSA12>  (19) 
0.0

>  <SlogP_VSA2>  (19) 
36.240946

>  <SlogP_VSA3>  (19) 
0.0

>  <SlogP_VSA4>  (19) 
23.470254

>  <SlogP_VSA5>  (19) 
37.295121

>  <SlogP_VSA6>  (19) 
35.24636

>  <SlogP_VSA7>  (19) 
0.0

>  <SlogP_VSA8>  (19) 
22.421257

>  <SlogP_VSA9>  (19) 
0.0

>  <EState_VSA1>  (19) 
11.634442

>  <EState_VSA10>  (19) 
13.887357

>  <EState_VSA11>  (19) 
0.0

>  <EState_VSA2>  (19) 
29.548322

>  <EState_VSA3>  (19) 
34.126593

>  <EState_VSA4>  (19) 
38.076974

>  <EState_VSA5>  (19) 
12.132734

>  <EState_VSA6>  (19) 
6.196844

>  <EState_VSA7>  (19) 
0.0

>  <EState_VSA8>  (19) 
30.409366

>  <EState_VSA9>  (19) 
4.523095

>  <VSA_EState1>  (19) 
33.416204

>  <VSA_EState10>  (19) 
0.0

>  <VSA_EState2>  (19) 
15.558595

>  <VSA_EState3>  (19) 
17.526394

>  <VSA_EState4>  (19) 
1.708132

>  <VSA_EState5>  (19) 
-0.236782

>  <VSA_EState6>  (19) 
2.780124

>  <VSA_EState7>  (19) 
8.080666

>  <VSA_EState8>  (19) 
0.0

>  <VSA_EState9>  (19) 
0.0

>  <FractionCSP3>  (19) 
0.363636

>  <HeavyAtomCount>  (19) 
32

>  <NHOHCount>  (19) 
3

>  <NOCount>  (19) 
8

>  <NumAliphaticCarbocycles>  (19) 
3

>  <NumAliphaticHeterocycles>  (19) 
0

>  <NumAliphaticRings>  (19) 
3

>  <NumAromaticCarbocycles>  (19) 
0

>  <NumAromaticHeterocycles>  (19) 
4

>  <NumAromaticRings>  (19) 
4

>  <NumHAcceptors>  (19) 
7

>  <NumHDonors>  (19) 
3

>  <NumHeteroatoms>  (19) 
10

>  <NumRotatableBonds>  (19) 
4

>  <NumSaturatedCarbocycles>  (19) 
3

>  <NumSaturatedHeterocycles>  (19) 
0

>  <NumSaturatedRings>  (19) 
3

>  <RingCount>  (19) 
7

>  <MolLogP>  (19) 
4.376

>  <MolMR>  (19) 
110.8032

>  <fr_Al_COO>  (19) 
0

>  <fr_Al_OH>  (19) 
0

>  <fr_Al_OH_noTert>  (19) 
0

>  <fr_ArN>  (19) 
0

>  <fr_Ar_COO>  (19) 
0

>  <fr_Ar_N>  (19) 
5

>  <fr_Ar_NH>  (19) 
1

>  <fr_Ar_OH>  (19) 
1

>  <fr_COO>  (19) 
0

>  <fr_COO2>  (19) 
0

>  <fr_C_O>  (19) 
0

>  <fr_C_O_noCOO>  (19) 
0

>  <fr_C_S>  (19) 
0

>  <fr_HOCCN>  (19) 
0

>  <fr_Imine>  (19) 
0

>  <fr_NH0>  (19) 
4

>  <fr_NH1>  (19) 
2

>  <fr_NH2>  (19) 
0

>  <fr_N_O>  (19) 
0

>  <fr_Ndealkylation1>  (19) 
0

>  <fr_Ndealkylation2>  (19) 
0

>  <fr_Nhpyrrole>  (19) 
1

>  <fr_SH>  (19) 
0

>  <fr_aldehyde>  (19) 
0

>  <fr_alkyl_carbamate>  (19) 
0

>  <fr_alkyl_halide>  (19) 
0

>  <fr_allylic_oxid>  (19) 
0

>  <fr_amide>  (19) 
0

>  <fr_amidine>  (19) 
0

>  <fr_aniline>  (19) 
1

>  <fr_aryl_methyl>  (19) 
0

>  <fr_azide>  (19) 
0

>  <fr_azo>  (19) 
0

>  <fr_barbitur>  (19) 
0

>  <fr_benzene>  (19) 
0

>  <fr_benzodiazepine>  (19) 
0

>  <fr_bicyclic>  (19) 
4

>  <fr_diazo>  (19) 
0

>  <fr_dihydropyridine>  (19) 
0

>  <fr_epoxide>  (19) 
0

>  <fr_ester>  (19) 
0

>  <fr_ether>  (19) 
0

>  <fr_furan>  (19) 
0

>  <fr_guanido>  (19) 
0

>  <fr_halogen>  (19) 
2

>  <fr_hdrzine>  (19) 
0

>  <fr_hdrzone>  (19) 
0

>  <fr_imidazole>  (19) 
0

>  <fr_imide>  (19) 
0

>  <fr_isocyan>  (19) 
0

>  <fr_isothiocyan>  (19) 
0

>  <fr_ketone>  (19) 
0

>  <fr_ketone_Topliss>  (19) 
0

>  <fr_lactam>  (19) 
0

>  <fr_lactone>  (19) 
0

>  <fr_methoxy>  (19) 
0

>  <fr_morpholine>  (19) 
0

>  <fr_nitrile>  (19) 
0

>  <fr_nitro>  (19) 
0

>  <fr_nitro_arom>  (19) 
0

>  <fr_nitro_arom_nonortho>  (19) 
0

>  <fr_nitroso>  (19) 
0

>  <fr_oxazole>  (19) 
0

>  <fr_oxime>  (19) 
0

>  <fr_para_hydroxylation>  (19) 
0

>  <fr_phenol>  (19) 
0

>  <fr_phenol_noOrthoHbond>  (19) 
0

>  <fr_phos_acid>  (19) 
0

>  <fr_phos_ester>  (19) 
0

>  <fr_piperdine>  (19) 
0

>  <fr_piperzine>  (19) 
0

>  <fr_priamide>  (19) 
0

>  <fr_prisulfonamd>  (19) 
0

>  <fr_pyridine>  (19) 
1

>  <fr_quatN>  (19) 
0

>  <fr_sulfide>  (19) 
0

>  <fr_sulfonamd>  (19) 
0

>  <fr_sulfone>  (19) 
0

>  <fr_term_acetylene>  (19) 
0

>  <fr_tetrazole>  (19) 
0

>  <fr_thiazole>  (19) 
0

>  <fr_thiocyan>  (19) 
0

>  <fr_thiophene>  (19) 
0

>  <fr_unbrch_alkane>  (19) 
0

>  <fr_urea>  (19) 
0

>  <NP_Likeness>  (19) 
-0.618451

$$$$
CHEMBL3401983
     RDKit          3D

  0  0  0  0  0  0  0  0  0  0999 V3000
M  V30 BEGIN CTAB
M  V30 COUNTS 50 54 0 0 0
M  V30 BEGIN ATOM
M  V30 1 N 2.995194 0.288529 -2.875387 0
M  V30 2 S 3.939938 -0.432629 -1.583416 0
M  V30 3 O 4.852769 0.667382 -1.085768 0
M  V30 4 O 4.720997 -1.545097 -2.189752 0
M  V30 5 C 2.872867 -0.955539 -0.294976 0 CFG=1
M  V30 6 C 3.592619 -1.802165 0.719259 0 CFG=2
M  V30 7 C 2.654223 -2.226015 1.840462 0
M  V30 8 C 1.923380 -1.037983 2.411978 0
M  V30 9 C 2.496545 0.216815 1.802599 0 CFG=1
M  V30 10 C 3.990913 0.227964 1.963013 0
M  V30 11 C 4.671938 -0.985553 1.378963 0
M  V30 12 C 2.097147 0.195558 0.313837 0 CFG=2
M  V30 13 N 0.685655 -0.149972 0.315437 0
M  V30 14 C -0.518668 0.598621 0.543431 0
M  V30 15 N -1.743908 0.044879 0.559242 0
M  V30 16 C -2.799629 0.811111 0.753928 0
M  V30 17 C -4.083896 0.124025 0.755047 0
M  V30 18 C -5.317823 0.711926 0.938126 0
M  V30 19 N -6.286330 -0.219603 0.878665 0
M  V30 20 C -5.750998 -1.433981 0.659325 0
M  V30 21 N -6.267772 -2.675185 0.519055 0
M  V30 22 C -5.450261 -3.721501 0.301954 0
M  V30 23 C -4.077082 -3.572376 0.215381 0
M  V30 24 F -3.329970 -4.657787 -0.001879 0
M  V30 25 C -3.568494 -2.297792 0.361166 0
M  V30 26 C -4.394943 -1.207472 0.585390 0
M  V30 27 N -2.763780 2.142143 0.944902 0
M  V30 28 C -1.567960 2.783029 0.943695 0
M  V30 29 C -0.447321 1.970682 0.736833 0
M  V30 30 F 0.699236 2.682970 0.727481 0
M  V30 31 H 2.044846 -0.152274 -2.831432 0
M  V30 32 H 3.410412 0.064075 -3.803362 0
M  V30 33 H 2.144462 -1.666831 -0.774811 0
M  V30 34 H 3.982178 -2.693594 0.202641 0
M  V30 35 H 3.310242 -2.621860 2.670350 0
M  V30 36 H 1.978656 -3.040840 1.549197 0
M  V30 37 H 0.836068 -1.064118 2.105996 0
M  V30 38 H 1.993306 -1.003193 3.524034 0
M  V30 39 H 2.098286 1.123065 2.281054 0
M  V30 40 H 4.189448 0.208891 3.075747 0
M  V30 41 H 4.461521 1.146690 1.582619 0
M  V30 42 H 5.172395 -1.592180 2.182333 0
M  V30 43 H 5.423611 -0.661183 0.649197 0
M  V30 44 H 2.329643 1.140781 -0.182372 0
M  V30 45 H 0.467210 -1.163087 0.107803 0
M  V30 46 H -5.462970 1.788620 1.106611 0
M  V30 47 H -7.311713 0.006396 0.992509 0
M  V30 48 H -5.947642 -4.672758 0.202454 0
M  V30 49 H -2.516193 -2.183724 0.294790 0
M  V30 50 H -1.526832 3.850704 1.095917 0
M  V30 END ATOM
M  V30 BEGIN BOND
M  V30 1 1 1 2
M  V30 2 2 2 3
M  V30 3 2 2 4
M  V30 4 1 2 5
M  V30 5 1 5 6
M  V30 6 1 6 7
M  V30 7 1 7 8
M  V30 8 1 8 9
M  V30 9 1 9 10
M  V30 10 1 10 11
M  V30 11 1 9 12
M  V30 12 1 12 13
M  V30 13 1 13 14
M  V30 14 2 14 15
M  V30 15 1 15 16
M  V30 16 1 16 17
M  V30 17 2 17 18
M  V30 18 1 18 19
M  V30 19 1 19 20
M  V30 20 2 20 21
M  V30 21 1 21 22
M  V30 22 2 22 23
M  V30 23 1 23 24
M  V30 24 1 23 25
M  V30 25 2 25 26
M  V30 26 2 16 27
M  V30 27 1 27 28
M  V30 28 2 28 29
M  V30 29 1 29 30
M  V30 30 1 12 5
M  V30 31 1 29 14
M  V30 32 1 11 6
M  V30 33 1 26 17
M  V30 34 1 26 20
M  V30 35 1 1 31
M  V30 36 1 1 32
M  V30 37 1 5 33 CFG=3
M  V30 38 1 6 34 CFG=3
M  V30 39 1 7 35
M  V30 40 1 7 36
M  V30 41 1 8 37
M  V30 42 1 8 38
M  V30 43 1 9 39 CFG=1
M  V30 44 1 10 40
M  V30 45 1 10 41
M  V30 46 1 11 42
M  V30 47 1 11 43
M  V30 48 1 12 44 CFG=3
M  V30 49 1 13 45
M  V30 50 1 18 46
M  V30 51 1 19 47
M  V30 52 1 22 48
M  V30 53 1 25 49
M  V30 54 1 28 50
M  V30 END BOND
M  V30 END CTAB
M  END
>  <Dataset>  (20) 
ChEMBL_PKA

>  <Ligand_Instance>  (20) 
nan

>  <PDB_ID>  (20) 
nan

>  <Standardized_SMILES>  (20) 
NS(=O)(=O)[C@H]1C2CCC(CC2)[C@@H]1Nc1nc(-c2c[nH]c3ncc(F)cc23)ncc1F

>  <Name>  (20) 
nan

>  <Pocket>  (20) 
nan

>  <ATP_Site>  (20) 
nan

>  <Peripheral>  (20) 
nan

>  <Num_H_Atoms_ProtBoundConf>  (20) 
nan

>  <Num_Resolved_Atoms>  (20) 
nan

>  <Num_Not_Resolved_Atoms>  (20) 
nan

>  <2D_Mol_H>  (20) 
<rdkit.Chem.rdchem.Mol object at 0x72a2391026c0>

>  <MW>  (20) 
434.472

>  <HBA>  (20) 
6

>  <HBD>  (20) 
3

>  <LogP>  (20) 
2.5557

>  <NRB>  (20) 
5

>  <TPSA>  (20) 
126.65

>  <Num_Heavy_Atoms>  (20) 
30

>  <Ro5>  (20) 
[True, True, True, True, True, True]

>  <Ro5_Fulfilled>  (20) 
True

>  <Ro3>  (20) 
[False, False, True, True]

>  <Ro3_Fulfilled>  (20) 
False

>  <Fsp3>  (20) 
0.421053

>  <Fsp3_0.42>  (20) 
True

>  <Fsp3_0.45>  (20) 
False

>  <Stereogenic_Carbons>  (20) 
4

>  <C_Atoms>  (20) 
19

>  <FCStereo>  (20) 
0.210526

>  <SPS>  (20) 
787

>  <nSPS>  (20) 
26.233333

>  <PBF>  (20) 
0.937625

>  <PBF_0.6>  (20) 
True

>  <nPBF>  (20) 
0.031254

>  <nPBF_0.016>  (20) 
True

>  <PMI1>  (20) 
1965.653547

>  <PMI2>  (20) 
6782.089575

>  <PMI3>  (20) 
7609.503212

>  <NPR1>  (20) 
0.258316

>  <NPR2>  (20) 
0.891266

>  <Sum_NPR>  (20) 
1.149581

>  <Sum_NPR_1.07>  (20) 
True

>  <Sum_NPR_1.2>  (20) 
False

>  <MaxAbsEStateIndex>  (20) 
14.561808

>  <MaxEStateIndex>  (20) 
14.561808

>  <MinAbsEStateIndex>  (20) 
0.046726

>  <MinEStateIndex>  (20) 
-3.809053

>  <qed>  (20) 
0.579258

>  <MolWt>  (20) 
434.472

>  <HeavyAtomMolWt>  (20) 
414.312

>  <ExactMolWt>  (20) 
434.133651

>  <NumValenceElectrons>  (20) 
158

>  <NumRadicalElectrons>  (20) 
0

>  <MaxPartialCharge>  (20) 
0.21378

>  <MinPartialCharge>  (20) 
-0.363132

>  <MaxAbsPartialCharge>  (20) 
0.363132

>  <MinAbsPartialCharge>  (20) 
0.21378

>  <FpDensityMorgan1>  (20) 
1.1

>  <FpDensityMorgan2>  (20) 
1.833333

>  <FpDensityMorgan3>  (20) 
2.566667

>  <BCUT2D_MWHI>  (20) 
32.233201

>  <BCUT2D_MWLOW>  (20) 
9.672526

>  <BCUT2D_CHGHI>  (20) 
2.487492

>  <BCUT2D_CHGLO>  (20) 
-2.47186

>  <BCUT2D_LOGPHI>  (20) 
2.446829

>  <BCUT2D_LOGPLOW>  (20) 
-2.566514

>  <BCUT2D_MRHI>  (20) 
7.894073

>  <BCUT2D_MRLOW>  (20) 
0.160432

>  <AvgIpc>  (20) 
3.123239

>  <BalabanJ>  (20) 
1.52989

>  <BertzCT>  (20) 
1222.987725

>  <Chi0>  (20) 
21.043241

>  <Chi0n>  (20) 
15.846894

>  <Chi0v>  (20) 
16.663391

>  <Chi1>  (20) 
14.308682

>  <Chi1n>  (20) 
9.747246

>  <Chi1v>  (20) 
11.356722

>  <Chi2n>  (20) 
8.040828

>  <Chi2v>  (20) 
9.763207

>  <Chi3n>  (20) 
6.308397

>  <Chi3v>  (20) 
7.745229

>  <Chi4n>  (20) 
4.985542

>  <Chi4v>  (20) 
6.493164

>  <HallKierAlpha>  (20) 
-2.66

>  <Ipc>  (20) 
9063328.384387

>  <Kappa1>  (20) 
19.312214

>  <Kappa2>  (20) 
6.947534

>  <Kappa3>  (20) 
3.214384

>  <LabuteASA>  (20) 
170.92774

>  <PEOE_VSA1>  (20) 
10.300767

>  <PEOE_VSA10>  (20) 
11.464398

>  <PEOE_VSA11>  (20) 
17.459488

>  <PEOE_VSA12>  (20) 
10.023291

>  <PEOE_VSA13>  (20) 
0.0

>  <PEOE_VSA14>  (20) 
0.0

>  <PEOE_VSA2>  (20) 
0.0

>  <PEOE_VSA3>  (20) 
37.289536

>  <PEOE_VSA4>  (20) 
0.0

>  <PEOE_VSA5>  (20) 
0.0

>  <PEOE_VSA6>  (20) 
0.0

>  <PEOE_VSA7>  (20) 
43.585466

>  <PEOE_VSA8>  (20) 
23.18836

>  <PEOE_VSA9>  (20) 
17.643625

>  <SMR_VSA1>  (20) 
17.198627

>  <SMR_VSA10>  (20) 
26.874555

>  <SMR_VSA2>  (20) 
0.0

>  <SMR_VSA3>  (20) 
19.935914

>  <SMR_VSA4>  (20) 
16.974786

>  <SMR_VSA5>  (20) 
36.975065

>  <SMR_VSA6>  (20) 
5.316789

>  <SMR_VSA7>  (20) 
36.291339

>  <SMR_VSA8>  (20) 
0.0

>  <SMR_VSA9>  (20) 
11.387856

>  <SlogP_VSA1>  (20) 
10.455762

>  <SlogP_VSA10>  (20) 
14.598693

>  <SlogP_VSA11>  (20) 
0.0

>  <SlogP_VSA12>  (20) 
0.0

>  <SlogP_VSA2>  (20) 
39.64549

>  <SlogP_VSA3>  (20) 
10.023291

>  <SlogP_VSA4>  (20) 
23.470254

>  <SlogP_VSA5>  (20) 
25.683286

>  <SlogP_VSA6>  (20) 
24.656898

>  <SlogP_VSA7>  (20) 
0.0

>  <SlogP_VSA8>  (20) 
22.421257

>  <SlogP_VSA9>  (20) 
0.0

>  <EState_VSA1>  (20) 
32.949512

>  <EState_VSA10>  (20) 
17.198627

>  <EState_VSA11>  (20) 
0.0

>  <EState_VSA2>  (20) 
23.478079

>  <EState_VSA3>  (20) 
16.596853

>  <EState_VSA4>  (20) 
38.076974

>  <EState_VSA5>  (20) 
6.066367

>  <EState_VSA6>  (20) 
6.196844

>  <EState_VSA7>  (20) 
0.0

>  <EState_VSA8>  (20) 
25.252703

>  <EState_VSA9>  (20) 
5.138974

>  <VSA_EState1>  (20) 
52.723659

>  <VSA_EState10>  (20) 
0.0

>  <VSA_EState2>  (20) 
15.193805

>  <VSA_EState3>  (20) 
8.21661

>  <VSA_EState4>  (20) 
0.917523

>  <VSA_EState5>  (20) 
-1.108152

>  <VSA_EState6>  (20) 
0.77528

>  <VSA_EState7>  (20) 
7.006994

>  <VSA_EState8>  (20) 
0.0

>  <VSA_EState9>  (20) 
-3.809053

>  <FractionCSP3>  (20) 
0.421053

>  <HeavyAtomCount>  (20) 
30

>  <NHOHCount>  (20) 
4

>  <NOCount>  (20) 
8

>  <NumAliphaticCarbocycles>  (20) 
3

>  <NumAliphaticHeterocycles>  (20) 
0

>  <NumAliphaticRings>  (20) 
3

>  <NumAromaticCarbocycles>  (20) 
0

>  <NumAromaticHeterocycles>  (20) 
3

>  <NumAromaticRings>  (20) 
3

>  <NumHAcceptors>  (20) 
6

>  <NumHDonors>  (20) 
3

>  <NumHeteroatoms>  (20) 
11

>  <NumRotatableBonds>  (20) 
4

>  <NumSaturatedCarbocycles>  (20) 
3

>  <NumSaturatedHeterocycles>  (20) 
0

>  <NumSaturatedRings>  (20) 
3

>  <RingCount>  (20) 
6

>  <MolLogP>  (20) 
2.5557

>  <MolMR>  (20) 
106.7896

>  <fr_Al_COO>  (20) 
0

>  <fr_Al_OH>  (20) 
0

>  <fr_Al_OH_noTert>  (20) 
0

>  <fr_ArN>  (20) 
0

>  <fr_Ar_COO>  (20) 
0

>  <fr_Ar_N>  (20) 
4

>  <fr_Ar_NH>  (20) 
1

>  <fr_Ar_OH>  (20) 
0

>  <fr_COO>  (20) 
0

>  <fr_COO2>  (20) 
0

>  <fr_C_O>  (20) 
0

>  <fr_C_O_noCOO>  (20) 
0

>  <fr_C_S>  (20) 
0

>  <fr_HOCCN>  (20) 
0

>  <fr_Imine>  (20) 
0

>  <fr_NH0>  (20) 
3

>  <fr_NH1>  (20) 
2

>  <fr_NH2>  (20) 
1

>  <fr_N_O>  (20) 
0

>  <fr_Ndealkylation1>  (20) 
0

>  <fr_Ndealkylation2>  (20) 
0

>  <fr_Nhpyrrole>  (20) 
1

>  <fr_SH>  (20) 
0

>  <fr_aldehyde>  (20) 
0

>  <fr_alkyl_carbamate>  (20) 
0

>  <fr_alkyl_halide>  (20) 
0

>  <fr_allylic_oxid>  (20) 
0

>  <fr_amide>  (20) 
0

>  <fr_amidine>  (20) 
0

>  <fr_aniline>  (20) 
1

>  <fr_aryl_methyl>  (20) 
0

>  <fr_azide>  (20) 
0

>  <fr_azo>  (20) 
0

>  <fr_barbitur>  (20) 
0

>  <fr_benzene>  (20) 
0

>  <fr_benzodiazepine>  (20) 
0

>  <fr_bicyclic>  (20) 
4

>  <fr_diazo>  (20) 
0

>  <fr_dihydropyridine>  (20) 
0

>  <fr_epoxide>  (20) 
0

>  <fr_ester>  (20) 
0

>  <fr_ether>  (20) 
0

>  <fr_furan>  (20) 
0

>  <fr_guanido>  (20) 
0

>  <fr_halogen>  (20) 
2

>  <fr_hdrzine>  (20) 
0

>  <fr_hdrzone>  (20) 
0

>  <fr_imidazole>  (20) 
0

>  <fr_imide>  (20) 
0

>  <fr_isocyan>  (20) 
0

>  <fr_isothiocyan>  (20) 
0

>  <fr_ketone>  (20) 
0

>  <fr_ketone_Topliss>  (20) 
0

>  <fr_lactam>  (20) 
0

>  <fr_lactone>  (20) 
0

>  <fr_methoxy>  (20) 
0

>  <fr_morpholine>  (20) 
0

>  <fr_nitrile>  (20) 
0

>  <fr_nitro>  (20) 
0

>  <fr_nitro_arom>  (20) 
0

>  <fr_nitro_arom_nonortho>  (20) 
0

>  <fr_nitroso>  (20) 
0

>  <fr_oxazole>  (20) 
0

>  <fr_oxime>  (20) 
0

>  <fr_para_hydroxylation>  (20) 
0

>  <fr_phenol>  (20) 
0

>  <fr_phenol_noOrthoHbond>  (20) 
0

>  <fr_phos_acid>  (20) 
0

>  <fr_phos_ester>  (20) 
0

>  <fr_piperdine>  (20) 
0

>  <fr_piperzine>  (20) 
0

>  <fr_priamide>  (20) 
0

>  <fr_prisulfonamd>  (20) 
0

>  <fr_pyridine>  (20) 
1

>  <fr_quatN>  (20) 
0

>  <fr_sulfide>  (20) 
0

>  <fr_sulfonamd>  (20) 
1

>  <fr_sulfone>  (20) 
0

>  <fr_term_acetylene>  (20) 
0

>  <fr_tetrazole>  (20) 
0

>  <fr_thiazole>  (20) 
0

>  <fr_thiocyan>  (20) 
0

>  <fr_thiophene>  (20) 
0

>  <fr_unbrch_alkane>  (20) 
0

>  <fr_urea>  (20) 
0

>  <NP_Likeness>  (20) 
-0.755856

$$$$
CHEMBL3401984
     RDKit          3D

  0  0  0  0  0  0  0  0  0  0999 V3000
M  V30 BEGIN CTAB
M  V30 COUNTS 53 57 0 0 0
M  V30 BEGIN ATOM
M  V30 1 O -0.398858 3.266653 3.209393 0
M  V30 2 C 0.031400 1.963241 3.361673 0
M  V30 3 C 1.126247 1.522100 2.440910 0 CFG=2
M  V30 4 O 2.190180 2.431138 2.664869 0
M  V30 5 C 0.725361 1.375111 1.036032 0 CFG=1
M  V30 6 C 0.238402 2.639278 0.411109 0 CFG=2
M  V30 7 C -0.718648 2.217785 -0.723661 0
M  V30 8 C -0.081639 1.001686 -1.363889 0
M  V30 9 C 1.428970 1.093961 -1.253016 0 CFG=1
M  V30 10 C 1.805886 2.573454 -1.509821 0
M  V30 11 C 1.352855 3.374322 -0.334698 0
M  V30 12 C 1.844858 0.812853 0.157447 0 CFG=2
M  V30 13 N 2.249593 -0.503444 0.450712 0
M  V30 14 C 1.640847 -1.753785 0.580461 0
M  V30 15 N 0.338057 -2.023345 0.447000 0
M  V30 16 C -0.261608 -3.208364 0.566793 0
M  V30 17 C -1.704280 -3.363353 0.394432 0
M  V30 18 C -2.572092 -2.332164 0.098844 0
M  V30 19 N -3.796618 -2.899068 0.026737 0
M  V30 20 C -3.699474 -4.239615 0.268850 0
M  V30 21 N -4.623378 -5.236236 0.311473 0
M  V30 22 C -4.266722 -6.507429 0.577495 0
M  V30 23 C -2.958200 -6.898951 0.824707 0
M  V30 24 F -2.566920 -8.153509 1.092680 0
M  V30 25 C -2.026830 -5.871476 0.777854 0
M  V30 26 C -2.387629 -4.557156 0.503901 0
M  V30 27 N 0.519199 -4.264104 0.854708 0
M  V30 28 C 1.849302 -4.150648 1.018586 0
M  V30 29 C 2.369900 -2.887052 0.874477 0
M  V30 30 F 3.724407 -2.813035 1.048393 0
M  V30 31 H -0.589624 3.706881 4.078253 0
M  V30 32 H -0.872670 1.279610 3.271788 0
M  V30 33 H 0.340202 1.788843 4.440223 0
M  V30 34 H 1.490135 0.525019 2.855838 0
M  V30 35 H 3.057081 1.961072 2.590046 0
M  V30 36 H -0.125727 0.625614 1.019095 0
M  V30 37 H -0.281224 3.346596 1.042034 0
M  V30 38 H -1.715188 1.983924 -0.316565 0
M  V30 39 H -0.834114 3.025003 -1.456819 0
M  V30 40 H -0.542961 0.142420 -0.900632 0
M  V30 41 H -0.281734 1.082237 -2.458623 0
M  V30 42 H 1.953815 0.527747 -2.023356 0
M  V30 43 H 1.311585 2.857927 -2.466843 0
M  V30 44 H 2.890586 2.629758 -1.617069 0
M  V30 45 H 0.861875 4.291359 -0.734372 0
M  V30 46 H 2.148486 3.709614 0.348188 0
M  V30 47 H 2.699974 1.549306 0.381535 0
M  V30 48 H 3.309168 -0.542332 0.612163 0
M  V30 49 H -2.370540 -1.273999 -0.053906 0
M  V30 50 H -4.705428 -2.402046 -0.183370 0
M  V30 51 H -5.005294 -7.315192 0.613439 0
M  V30 52 H -0.991075 -6.118554 0.962816 0
M  V30 53 H 2.466168 -5.003642 1.249289 0
M  V30 END ATOM
M  V30 BEGIN BOND
M  V30 1 1 1 2
M  V30 2 1 2 3
M  V30 3 1 3 4
M  V30 4 1 3 5
M  V30 5 1 5 6
M  V30 6 1 6 7
M  V30 7 1 7 8
M  V30 8 1 8 9
M  V30 9 1 9 10
M  V30 10 1 10 11
M  V30 11 1 9 12
M  V30 12 1 12 13
M  V30 13 1 13 14
M  V30 14 2 14 15
M  V30 15 1 15 16
M  V30 16 1 16 17
M  V30 17 2 17 18
M  V30 18 1 18 19
M  V30 19 1 19 20
M  V30 20 2 20 21
M  V30 21 1 21 22
M  V30 22 2 22 23
M  V30 23 1 23 24
M  V30 24 1 23 25
M  V30 25 2 25 26
M  V30 26 2 16 27
M  V30 27 1 27 28
M  V30 28 2 28 29
M  V30 29 1 29 30
M  V30 30 1 12 5
M  V30 31 1 29 14
M  V30 32 1 11 6
M  V30 33 1 26 17
M  V30 34 1 26 20
M  V30 35 1 1 31
M  V30 36 1 2 32
M  V30 37 1 2 33
M  V30 38 1 3 34 CFG=1
M  V30 39 1 4 35
M  V30 40 1 5 36 CFG=1
M  V30 41 1 6 37 CFG=1
M  V30 42 1 7 38
M  V30 43 1 7 39
M  V30 44 1 8 40
M  V30 45 1 8 41
M  V30 46 1 9 42 CFG=3
M  V30 47 1 10 43
M  V30 48 1 10 44
M  V30 49 1 11 45
M  V30 50 1 11 46
M  V30 51 1 12 47 CFG=1
M  V30 52 1 13 48
M  V30 53 1 18 49
M  V30 54 1 19 50
M  V30 55 1 22 51
M  V30 56 1 25 52
M  V30 57 1 28 53
M  V30 END BOND
M  V30 END CTAB
M  END
>  <Dataset>  (21) 
ChEMBL_PKA

>  <Ligand_Instance>  (21) 
nan

>  <PDB_ID>  (21) 
nan

>  <Standardized_SMILES>  (21) 
OCC(O)[C@H]1C2CCC(CC2)[C@@H]1Nc1nc(-c2c[nH]c3ncc(F)cc23)ncc1F

>  <Name>  (21) 
nan

>  <Pocket>  (21) 
nan

>  <ATP_Site>  (21) 
nan

>  <Peripheral>  (21) 
nan

>  <Num_H_Atoms_ProtBoundConf>  (21) 
nan

>  <Num_Resolved_Atoms>  (21) 
nan

>  <Num_Not_Resolved_Atoms>  (21) 
nan

>  <2D_Mol_H>  (21) 
<rdkit.Chem.rdchem.Mol object at 0x72a2391027a0>

>  <MW>  (21) 
415.444

>  <HBA>  (21) 
6

>  <HBD>  (21) 
4

>  <LogP>  (21) 
2.868

>  <NRB>  (21) 
7

>  <TPSA>  (21) 
106.95

>  <Num_Heavy_Atoms>  (21) 
30

>  <Ro5>  (21) 
[True, True, True, True, True, True]

>  <Ro5_Fulfilled>  (21) 
True

>  <Ro3>  (21) 
[False, False, False, True]

>  <Ro3_Fulfilled>  (21) 
False

>  <Fsp3>  (21) 
0.47619

>  <Fsp3_0.42>  (21) 
True

>  <Fsp3_0.45>  (21) 
True

>  <Stereogenic_Carbons>  (21) 
5

>  <C_Atoms>  (21) 
21

>  <FCStereo>  (21) 
0.238095

>  <SPS>  (21) 
804

>  <nSPS>  (21) 
26.8

>  <PBF>  (21) 
1.033989

>  <PBF_0.6>  (21) 
True

>  <nPBF>  (21) 
0.034466

>  <nPBF_0.016>  (21) 
True

>  <PMI1>  (21) 
1869.038104

>  <PMI2>  (21) 
6322.135346

>  <PMI3>  (21) 
7014.103313

>  <NPR1>  (21) 
0.266469

>  <NPR2>  (21) 
0.901346

>  <Sum_NPR>  (21) 
1.167815

>  <Sum_NPR_1.07>  (21) 
True

>  <Sum_NPR_1.2>  (21) 
False

>  <MaxAbsEStateIndex>  (21) 
14.617058

>  <MaxEStateIndex>  (21) 
14.617058

>  <MinAbsEStateIndex>  (21) 
0.047594

>  <MinEStateIndex>  (21) 
-0.858671

>  <qed>  (21) 
0.510582

>  <MolWt>  (21) 
415.444

>  <HeavyAtomMolWt>  (21) 
392.26

>  <ExactMolWt>  (21) 
415.181981

>  <NumValenceElectrons>  (21) 
158

>  <NumRadicalElectrons>  (21) 
0

>  <MaxPartialCharge>  (21) 
0.183259

>  <MinPartialCharge>  (21) 
-0.393675

>  <MaxAbsPartialCharge>  (21) 
0.393675

>  <MinAbsPartialCharge>  (21) 
0.183259

>  <FpDensityMorgan1>  (21) 
1.133333

>  <FpDensityMorgan2>  (21) 
1.9

>  <FpDensityMorgan3>  (21) 
2.666667

>  <BCUT2D_MWHI>  (21) 
19.143586

>  <BCUT2D_MWLOW>  (21) 
9.598648

>  <BCUT2D_CHGHI>  (21) 
2.463887

>  <BCUT2D_CHGLO>  (21) 
-2.500038

>  <BCUT2D_LOGPHI>  (21) 
2.47209

>  <BCUT2D_LOGPLOW>  (21) 
-2.53313

>  <BCUT2D_MRHI>  (21) 
5.911435

>  <BCUT2D_MRLOW>  (21) 
-0.038521

>  <AvgIpc>  (21) 
3.182224

>  <BalabanJ>  (21) 
1.4972

>  <BertzCT>  (21) 
1066.731383

>  <Chi0>  (21) 
20.827698

>  <Chi0n>  (21) 
16.223683

>  <Chi0v>  (21) 
16.223683

>  <Chi1>  (21) 
14.546045

>  <Chi1n>  (21) 
10.258517

>  <Chi1v>  (21) 
10.258517

>  <Chi2n>  (21) 
8.31446

>  <Chi2v>  (21) 
8.31446

>  <Chi3n>  (21) 
6.70084

>  <Chi3v>  (21) 
6.70084

>  <Chi4n>  (21) 
5.304644

>  <Chi4v>  (21) 
5.304644

>  <HallKierAlpha>  (21) 
-2.65

>  <Ipc>  (21) 
12283015.404527

>  <Kappa1>  (21) 
19.321617

>  <Kappa2>  (21) 
7.552602

>  <Kappa3>  (21) 
3.217354

>  <LabuteASA>  (21) 
171.145426

>  <PEOE_VSA1>  (21) 
20.513822

>  <PEOE_VSA10>  (21) 
11.464398

>  <PEOE_VSA11>  (21) 
17.459488

>  <PEOE_VSA12>  (21) 
0.0

>  <PEOE_VSA13>  (21) 
0.0

>  <PEOE_VSA14>  (21) 
0.0

>  <PEOE_VSA2>  (21) 
0.0

>  <PEOE_VSA3>  (21) 
23.732766

>  <PEOE_VSA4>  (21) 
0.0

>  <PEOE_VSA5>  (21) 
0.0

>  <PEOE_VSA6>  (21) 
0.0

>  <PEOE_VSA7>  (21) 
43.585466

>  <PEOE_VSA8>  (21) 
29.106266

>  <PEOE_VSA9>  (21) 
25.104535

>  <SMR_VSA1>  (21) 
18.993885

>  <SMR_VSA10>  (21) 
16.851264

>  <SMR_VSA2>  (21) 
0.0

>  <SMR_VSA3>  (21) 
19.935914

>  <SMR_VSA4>  (21) 
17.753718

>  <SMR_VSA5>  (21) 
37.829094

>  <SMR_VSA6>  (21) 
11.923671

>  <SMR_VSA7>  (21) 
36.291339

>  <SMR_VSA8>  (21) 
0.0

>  <SMR_VSA9>  (21) 
11.387856

>  <SlogP_VSA1>  (21) 
5.316789

>  <SlogP_VSA10>  (21) 
14.598693

>  <SlogP_VSA11>  (21) 
0.0

>  <SlogP_VSA12>  (21) 
0.0

>  <SlogP_VSA2>  (21) 
48.901658

>  <SlogP_VSA3>  (21) 
0.0

>  <SlogP_VSA4>  (21) 
29.38816

>  <SlogP_VSA5>  (21) 
25.683286

>  <SlogP_VSA6>  (21) 
24.656898

>  <SlogP_VSA7>  (21) 
0.0

>  <SlogP_VSA8>  (21) 
22.421257

>  <SlogP_VSA9>  (21) 
0.0

>  <EState_VSA1>  (21) 
17.738408

>  <EState_VSA10>  (21) 
18.993885

>  <EState_VSA11>  (21) 
0.0

>  <EState_VSA2>  (21) 
36.126802

>  <EState_VSA3>  (21) 
22.514759

>  <EState_VSA4>  (21) 
38.076974

>  <EState_VSA5>  (21) 
6.066367

>  <EState_VSA6>  (21) 
6.196844

>  <EState_VSA7>  (21) 
0.0

>  <EState_VSA8>  (21) 
25.252703

>  <EState_VSA9>  (21) 
0.0

>  <VSA_EState1>  (21) 
28.284128

>  <VSA_EState10>  (21) 
0.0

>  <VSA_EState2>  (21) 
15.413031

>  <VSA_EState3>  (21) 
23.659287

>  <VSA_EState4>  (21) 
1.015476

>  <VSA_EState5>  (21) 
-0.36813

>  <VSA_EState6>  (21) 
1.153537

>  <VSA_EState7>  (21) 
6.997952

>  <VSA_EState8>  (21) 
-0.321948

>  <VSA_EState9>  (21) 
0.0

>  <FractionCSP3>  (21) 
0.47619

>  <HeavyAtomCount>  (21) 
30

>  <NHOHCount>  (21) 
4

>  <NOCount>  (21) 
7

>  <NumAliphaticCarbocycles>  (21) 
3

>  <NumAliphaticHeterocycles>  (21) 
0

>  <NumAliphaticRings>  (21) 
3

>  <NumAromaticCarbocycles>  (21) 
0

>  <NumAromaticHeterocycles>  (21) 
3

>  <NumAromaticRings>  (21) 
3

>  <NumHAcceptors>  (21) 
6

>  <NumHDonors>  (21) 
4

>  <NumHeteroatoms>  (21) 
9

>  <NumRotatableBonds>  (21) 
5

>  <NumSaturatedCarbocycles>  (21) 
3

>  <NumSaturatedHeterocycles>  (21) 
0

>  <NumSaturatedRings>  (21) 
3

>  <RingCount>  (21) 
6

>  <MolLogP>  (21) 
2.868

>  <MolMR>  (21) 
106.477

>  <fr_Al_COO>  (21) 
0

>  <fr_Al_OH>  (21) 
2

>  <fr_Al_OH_noTert>  (21) 
2

>  <fr_ArN>  (21) 
0

>  <fr_Ar_COO>  (21) 
0

>  <fr_Ar_N>  (21) 
4

>  <fr_Ar_NH>  (21) 
1

>  <fr_Ar_OH>  (21) 
0

>  <fr_COO>  (21) 
0

>  <fr_COO2>  (21) 
0

>  <fr_C_O>  (21) 
0

>  <fr_C_O_noCOO>  (21) 
0

>  <fr_C_S>  (21) 
0

>  <fr_HOCCN>  (21) 
0

>  <fr_Imine>  (21) 
0

>  <fr_NH0>  (21) 
3

>  <fr_NH1>  (21) 
2

>  <fr_NH2>  (21) 
0

>  <fr_N_O>  (21) 
0

>  <fr_Ndealkylation1>  (21) 
0

>  <fr_Ndealkylation2>  (21) 
0

>  <fr_Nhpyrrole>  (21) 
1

>  <fr_SH>  (21) 
0

>  <fr_aldehyde>  (21) 
0

>  <fr_alkyl_carbamate>  (21) 
0

>  <fr_alkyl_halide>  (21) 
0

>  <fr_allylic_oxid>  (21) 
0

>  <fr_amide>  (21) 
0

>  <fr_amidine>  (21) 
0

>  <fr_aniline>  (21) 
1

>  <fr_aryl_methyl>  (21) 
0

>  <fr_azide>  (21) 
0

>  <fr_azo>  (21) 
0

>  <fr_barbitur>  (21) 
0

>  <fr_benzene>  (21) 
0

>  <fr_benzodiazepine>  (21) 
0

>  <fr_bicyclic>  (21) 
4

>  <fr_diazo>  (21) 
0

>  <fr_dihydropyridine>  (21) 
0

>  <fr_epoxide>  (21) 
0

>  <fr_ester>  (21) 
0

>  <fr_ether>  (21) 
0

>  <fr_furan>  (21) 
0

>  <fr_guanido>  (21) 
0

>  <fr_halogen>  (21) 
2

>  <fr_hdrzine>  (21) 
0

>  <fr_hdrzone>  (21) 
0

>  <fr_imidazole>  (21) 
0

>  <fr_imide>  (21) 
0

>  <fr_isocyan>  (21) 
0

>  <fr_isothiocyan>  (21) 
0

>  <fr_ketone>  (21) 
0

>  <fr_ketone_Topliss>  (21) 
0

>  <fr_lactam>  (21) 
0

>  <fr_lactone>  (21) 
0

>  <fr_methoxy>  (21) 
0

>  <fr_morpholine>  (21) 
0

>  <fr_nitrile>  (21) 
0

>  <fr_nitro>  (21) 
0

>  <fr_nitro_arom>  (21) 
0

>  <fr_nitro_arom_nonortho>  (21) 
0

>  <fr_nitroso>  (21) 
0

>  <fr_oxazole>  (21) 
0

>  <fr_oxime>  (21) 
0

>  <fr_para_hydroxylation>  (21) 
0

>  <fr_phenol>  (21) 
0

>  <fr_phenol_noOrthoHbond>  (21) 
0

>  <fr_phos_acid>  (21) 
0

>  <fr_phos_ester>  (21) 
0

>  <fr_piperdine>  (21) 
0

>  <fr_piperzine>  (21) 
0

>  <fr_priamide>  (21) 
0

>  <fr_prisulfonamd>  (21) 
0

>  <fr_pyridine>  (21) 
1

>  <fr_quatN>  (21) 
0

>  <fr_sulfide>  (21) 
0

>  <fr_sulfonamd>  (21) 
0

>  <fr_sulfone>  (21) 
0

>  <fr_term_acetylene>  (21) 
0

>  <fr_tetrazole>  (21) 
0

>  <fr_thiazole>  (21) 
0

>  <fr_thiocyan>  (21) 
0

>  <fr_thiophene>  (21) 
0

>  <fr_unbrch_alkane>  (21) 
0

>  <fr_urea>  (21) 
0

>  <NP_Likeness>  (21) 
-0.284161

$$$$
CHEMBL3401988
     RDKit          3D

  0  0  0  0  0  0  0  0  0  0999 V3000
M  V30 BEGIN CTAB
M  V30 COUNTS 53 58 0 0 0
M  V30 BEGIN ATOM
M  V30 1 C -1.359112 -2.828623 3.846382 0
M  V30 2 C -0.701991 -2.549742 2.545648 0
M  V30 3 N -1.297788 -2.639444 1.348082 0
M  V30 4 O -0.444559 -2.329367 0.417674 0
M  V30 5 C 0.708347 -2.030869 0.912077 0
M  V30 6 C 1.933240 -1.632251 0.243305 0 CFG=1
M  V30 7 C 2.325958 -2.470707 -0.951660 0 CFG=2
M  V30 8 C 3.861575 -2.460359 -0.978585 0
M  V30 9 C 4.267218 -1.023543 -0.662066 0
M  V30 10 C 3.166169 -0.059320 -1.129601 0 CFG=1
M  V30 11 C 2.807612 -0.595650 -2.525309 0
M  V30 12 C 1.924960 -1.807870 -2.266333 0
M  V30 13 C 1.934867 -0.195651 -0.292986 0 CFG=2
M  V30 14 N 1.770330 0.746109 0.754369 0
M  V30 15 C 0.662014 1.168272 1.519799 0
M  V30 16 N -0.607625 0.768263 1.339222 0
M  V30 17 C -1.617796 1.197119 2.128186 0
M  V30 18 C -3.008287 0.813312 1.931377 0
M  V30 19 C -4.083991 1.077869 2.753693 0
M  V30 20 N -5.216247 0.580704 2.230840 0
M  V30 21 C -4.954649 -0.022307 1.065537 0
M  V30 22 N -5.749887 -0.651543 0.183591 0
M  V30 23 C -5.207719 -1.170614 -0.938465 0
M  V30 24 C -3.857311 -1.071807 -1.203987 0
M  V30 25 F -3.392635 -1.613349 -2.342680 0
M  V30 26 C -3.090082 -0.420254 -0.271581 0
M  V30 27 C -3.594566 0.129220 0.895002 0
M  V30 28 N -1.378799 2.040033 3.122216 0
M  V30 29 C -0.148864 2.482962 3.366088 0
M  V30 30 C 0.873063 2.044963 2.561359 0
M  V30 31 F 2.115779 2.511235 2.830086 0
M  V30 32 N 0.554172 -2.167958 2.263669 0
M  V30 33 H -2.131526 -3.613931 3.759485 0
M  V30 34 H -1.792818 -1.900139 4.287572 0
M  V30 35 H -0.616921 -3.202249 4.599680 0
M  V30 36 H 2.781472 -1.627889 1.002825 0
M  V30 37 H 1.926930 -3.494691 -0.935099 0
M  V30 38 H 4.176384 -3.162950 -0.192489 0
M  V30 39 H 4.163082 -2.765808 -1.999079 0
M  V30 40 H 5.126478 -0.786736 -1.355014 0
M  V30 41 H 4.563024 -0.865125 0.372192 0
M  V30 42 H 3.585195 0.950045 -1.164937 0
M  V30 43 H 3.733358 -0.962715 -3.021917 0
M  V30 44 H 2.291326 0.168288 -3.135946 0
M  V30 45 H 2.133328 -2.570982 -3.053217 0
M  V30 46 H 0.853953 -1.598617 -2.322728 0
M  V30 47 H 1.041171 -0.074963 -0.985302 0
M  V30 48 H 2.700181 1.187626 0.959025 0
M  V30 49 H -4.042878 1.619385 3.710096 0
M  V30 50 H -6.166306 0.668061 2.696087 0
M  V30 51 H -5.944961 -1.651228 -1.569138 0
M  V30 52 H -2.042200 -0.327370 -0.464278 0
M  V30 53 H 0.054398 3.179174 4.184835 0
M  V30 END ATOM
M  V30 BEGIN BOND
M  V30 1 1 1 2
M  V30 2 2 2 3
M  V30 3 1 3 4
M  V30 4 1 4 5
M  V30 5 1 5 6
M  V30 6 1 6 7
M  V30 7 1 7 8
M  V30 8 1 8 9
M  V30 9 1 9 10
M  V30 10 1 10 11
M  V30 11 1 11 12
M  V30 12 1 10 13
M  V30 13 1 13 14
M  V30 14 1 14 15
M  V30 15 2 15 16
M  V30 16 1 16 17
M  V30 17 1 17 18
M  V30 18 2 18 19
M  V30 19 1 19 20
M  V30 20 1 20 21
M  V30 21 2 21 22
M  V30 22 1 22 23
M  V30 23 2 23 24
M  V30 24 1 24 25
M  V30 25 1 24 26
M  V30 26 2 26 27
M  V30 27 2 17 28
M  V30 28 1 28 29
M  V30 29 2 29 30
M  V30 30 1 30 31
M  V30 31 2 5 32
M  V30 32 1 32 2
M  V30 33 1 13 6
M  V30 34 1 30 15
M  V30 35 1 12 7
M  V30 36 1 27 18
M  V30 37 1 27 21
M  V30 38 1 1 33
M  V30 39 1 1 34
M  V30 40 1 1 35
M  V30 41 1 6 36 CFG=1
M  V30 42 1 7 37 CFG=1
M  V30 43 1 8 38
M  V30 44 1 8 39
M  V30 45 1 9 40
M  V30 46 1 9 41
M  V30 47 1 10 42 CFG=3
M  V30 48 1 11 43
M  V30 49 1 11 44
M  V30 50 1 12 45
M  V30 51 1 12 46
M  V30 52 1 13 47 CFG=3
M  V30 53 1 14 48
M  V30 54 1 19 49
M  V30 55 1 20 50
M  V30 56 1 23 51
M  V30 57 1 26 52
M  V30 58 1 29 53
M  V30 END BOND
M  V30 END CTAB
M  END
>  <Dataset>  (22) 
ChEMBL_PKA

>  <Ligand_Instance>  (22) 
nan

>  <PDB_ID>  (22) 
nan

>  <Standardized_SMILES>  (22) 
Cc1noc([C@H]2C3CCC(CC3)[C@@H]2Nc2nc(-c3c[nH]c4ncc(F)cc34)ncc2F)n1

>  <Name>  (22) 
nan

>  <Pocket>  (22) 
nan

>  <ATP_Site>  (22) 
nan

>  <Peripheral>  (22) 
nan

>  <Num_H_Atoms_ProtBoundConf>  (22) 
nan

>  <Num_Resolved_Atoms>  (22) 
nan

>  <Num_Not_Resolved_Atoms>  (22) 
nan

>  <2D_Mol_H>  (22) 
<rdkit.Chem.rdchem.Mol object at 0x72a239102880>

>  <MW>  (22) 
437.454

>  <HBA>  (22) 
7

>  <HBD>  (22) 
2

>  <LogP>  (22) 
4.37382

>  <NRB>  (22) 
5

>  <TPSA>  (22) 
105.41

>  <Num_Heavy_Atoms>  (22) 
32

>  <Ro5>  (22) 
[True, True, True, True, True, True]

>  <Ro5_Fulfilled>  (22) 
True

>  <Ro3>  (22) 
[False, False, True, False]

>  <Ro3_Fulfilled>  (22) 
False

>  <Fsp3>  (22) 
0.409091

>  <Fsp3_0.42>  (22) 
False

>  <Fsp3_0.45>  (22) 
False

>  <Stereogenic_Carbons>  (22) 
4

>  <C_Atoms>  (22) 
22

>  <FCStereo>  (22) 
0.181818

>  <SPS>  (22) 
795

>  <nSPS>  (22) 
24.84375

>  <PBF>  (22) 
1.251286

>  <PBF_0.6>  (22) 
True

>  <nPBF>  (22) 
0.039103

>  <nPBF_0.016>  (22) 
True

>  <PMI1>  (22) 
2496.781092

>  <PMI2>  (22) 
4427.358908

>  <PMI3>  (22) 
5482.351322

>  <NPR1>  (22) 
0.455422

>  <NPR2>  (22) 
0.807566

>  <Sum_NPR>  (22) 
1.262987

>  <Sum_NPR_1.07>  (22) 
True

>  <Sum_NPR_1.2>  (22) 
True

>  <MaxAbsEStateIndex>  (22) 
14.801107

>  <MaxEStateIndex>  (22) 
14.801107

>  <MinAbsEStateIndex>  (22) 
0.007315

>  <MinEStateIndex>  (22) 
-0.541849

>  <qed>  (22) 
0.48822

>  <MolWt>  (22) 
437.454

>  <HeavyAtomMolWt>  (22) 
416.286

>  <ExactMolWt>  (22) 
437.177565

>  <NumValenceElectrons>  (22) 
164

>  <NumRadicalElectrons>  (22) 
0

>  <MaxPartialCharge>  (22) 
0.231607

>  <MinPartialCharge>  (22) 
-0.363694

>  <MaxAbsPartialCharge>  (22) 
0.363694

>  <MinAbsPartialCharge>  (22) 
0.231607

>  <FpDensityMorgan1>  (22) 
1.0625

>  <FpDensityMorgan2>  (22) 
1.875

>  <FpDensityMorgan3>  (22) 
2.65625

>  <BCUT2D_MWHI>  (22) 
19.143587

>  <BCUT2D_MWLOW>  (22) 
9.613105

>  <BCUT2D_CHGHI>  (22) 
2.468865

>  <BCUT2D_CHGLO>  (22) 
-2.470036

>  <BCUT2D_LOGPHI>  (22) 
2.500084

>  <BCUT2D_LOGPLOW>  (22) 
-2.468037

>  <BCUT2D_MRHI>  (22) 
5.91149

>  <BCUT2D_MRLOW>  (22) 
0.105498

>  <AvgIpc>  (22) 
3.416891

>  <BalabanJ>  (22) 
1.372325

>  <BertzCT>  (22) 
1294.674103

>  <Chi0>  (22) 
21.819262

>  <Chi0n>  (22) 
17.347474

>  <Chi0v>  (22) 
17.347474

>  <Chi1>  (22) 
15.563683

>  <Chi1n>  (22) 
10.788702

>  <Chi1v>  (22) 
10.788702

>  <Chi2n>  (22) 
8.6928

>  <Chi2v>  (22) 
8.6928

>  <Chi3n>  (22) 
6.833677

>  <Chi3v>  (22) 
6.833677

>  <Chi4n>  (22) 
5.3799

>  <Chi4v>  (22) 
5.3799

>  <HallKierAlpha>  (22) 
-3.43

>  <Ipc>  (22) 
46486708.981735

>  <Kappa1>  (22) 
19.269972

>  <Kappa2>  (22) 
7.31856

>  <Kappa3>  (22) 
3.124099

>  <LabuteASA>  (22) 
181.434092

>  <PEOE_VSA1>  (22) 
14.823862

>  <PEOE_VSA10>  (22) 
11.464398

>  <PEOE_VSA11>  (22) 
23.283893

>  <PEOE_VSA12>  (22) 
5.890724

>  <PEOE_VSA13>  (22) 
0.0

>  <PEOE_VSA14>  (22) 
0.0

>  <PEOE_VSA2>  (22) 
0.0

>  <PEOE_VSA3>  (22) 
23.732766

>  <PEOE_VSA4>  (22) 
4.983979

>  <PEOE_VSA5>  (22) 
0.0

>  <PEOE_VSA6>  (22) 
5.156663

>  <PEOE_VSA7>  (22) 
50.509203

>  <PEOE_VSA8>  (22) 
23.18836

>  <PEOE_VSA9>  (22) 
18.311593

>  <SMR_VSA1>  (22) 
13.303925

>  <SMR_VSA10>  (22) 
16.851264

>  <SMR_VSA2>  (22) 
0.0

>  <SMR_VSA3>  (22) 
30.076556

>  <SMR_VSA4>  (22) 
11.835812

>  <SMR_VSA5>  (22) 
44.566771

>  <SMR_VSA6>  (22) 
5.316789

>  <SMR_VSA7>  (22) 
48.006468

>  <SMR_VSA8>  (22) 
0.0

>  <SMR_VSA9>  (22) 
11.387856

>  <SlogP_VSA1>  (22) 
5.316789

>  <SlogP_VSA10>  (22) 
14.598693

>  <SlogP_VSA11>  (22) 
0.0

>  <SlogP_VSA12>  (22) 
0.0

>  <SlogP_VSA2>  (22) 
36.118397

>  <SlogP_VSA3>  (22) 
0.0

>  <SlogP_VSA4>  (22) 
30.393991

>  <SlogP_VSA5>  (22) 
43.316321

>  <SlogP_VSA6>  (22) 
29.179993

>  <SlogP_VSA7>  (22) 
0.0

>  <SlogP_VSA8>  (22) 
22.421257

>  <SlogP_VSA9>  (22) 
0.0

>  <EState_VSA1>  (22) 
11.634442

>  <EState_VSA10>  (22) 
8.78083

>  <EState_VSA11>  (22) 
0.0

>  <EState_VSA2>  (22) 
17.77761

>  <EState_VSA3>  (22) 
45.972198

>  <EState_VSA4>  (22) 
38.076974

>  <EState_VSA5>  (22) 
6.066367

>  <EState_VSA6>  (22) 
13.120581

>  <EState_VSA7>  (22) 
0.0

>  <EState_VSA8>  (22) 
35.393344

>  <EState_VSA9>  (22) 
4.523095

>  <VSA_EState1>  (22) 
34.06848

>  <VSA_EState10>  (22) 
0.0

>  <VSA_EState2>  (22) 
20.109535

>  <VSA_EState3>  (22) 
7.851408

>  <VSA_EState4>  (22) 
1.073651

>  <VSA_EState5>  (22) 
1.372755

>  <VSA_EState6>  (22) 
1.295228

>  <VSA_EState7>  (22) 
8.264882

>  <VSA_EState8>  (22) 
1.797395

>  <VSA_EState9>  (22) 
0.0

>  <FractionCSP3>  (22) 
0.409091

>  <HeavyAtomCount>  (22) 
32

>  <NHOHCount>  (22) 
2

>  <NOCount>  (22) 
8

>  <NumAliphaticCarbocycles>  (22) 
3

>  <NumAliphaticHeterocycles>  (22) 
0

>  <NumAliphaticRings>  (22) 
3

>  <NumAromaticCarbocycles>  (22) 
0

>  <NumAromaticHeterocycles>  (22) 
4

>  <NumAromaticRings>  (22) 
4

>  <NumHAcceptors>  (22) 
7

>  <NumHDonors>  (22) 
2

>  <NumHeteroatoms>  (22) 
10

>  <NumRotatableBonds>  (22) 
4

>  <NumSaturatedCarbocycles>  (22) 
3

>  <NumSaturatedHeterocycles>  (22) 
0

>  <NumSaturatedRings>  (22) 
3

>  <RingCount>  (22) 
7

>  <MolLogP>  (22) 
4.37382

>  <MolMR>  (22) 
111.6704

>  <fr_Al_COO>  (22) 
0

>  <fr_Al_OH>  (22) 
0

>  <fr_Al_OH_noTert>  (22) 
0

>  <fr_ArN>  (22) 
0

>  <fr_Ar_COO>  (22) 
0

>  <fr_Ar_N>  (22) 
6

>  <fr_Ar_NH>  (22) 
1

>  <fr_Ar_OH>  (22) 
0

>  <fr_COO>  (22) 
0

>  <fr_COO2>  (22) 
0

>  <fr_C_O>  (22) 
0

>  <fr_C_O_noCOO>  (22) 
0

>  <fr_C_S>  (22) 
0

>  <fr_HOCCN>  (22) 
0

>  <fr_Imine>  (22) 
0

>  <fr_NH0>  (22) 
5

>  <fr_NH1>  (22) 
2

>  <fr_NH2>  (22) 
0

>  <fr_N_O>  (22) 
0

>  <fr_Ndealkylation1>  (22) 
0

>  <fr_Ndealkylation2>  (22) 
0

>  <fr_Nhpyrrole>  (22) 
1

>  <fr_SH>  (22) 
0

>  <fr_aldehyde>  (22) 
0

>  <fr_alkyl_carbamate>  (22) 
0

>  <fr_alkyl_halide>  (22) 
0

>  <fr_allylic_oxid>  (22) 
0

>  <fr_amide>  (22) 
0

>  <fr_amidine>  (22) 
0

>  <fr_aniline>  (22) 
1

>  <fr_aryl_methyl>  (22) 
1

>  <fr_azide>  (22) 
0

>  <fr_azo>  (22) 
0

>  <fr_barbitur>  (22) 
0

>  <fr_benzene>  (22) 
0

>  <fr_benzodiazepine>  (22) 
0

>  <fr_bicyclic>  (22) 
4

>  <fr_diazo>  (22) 
0

>  <fr_dihydropyridine>  (22) 
0

>  <fr_epoxide>  (22) 
0

>  <fr_ester>  (22) 
0

>  <fr_ether>  (22) 
0

>  <fr_furan>  (22) 
0

>  <fr_guanido>  (22) 
0

>  <fr_halogen>  (22) 
2

>  <fr_hdrzine>  (22) 
0

>  <fr_hdrzone>  (22) 
0

>  <fr_imidazole>  (22) 
0

>  <fr_imide>  (22) 
0

>  <fr_isocyan>  (22) 
0

>  <fr_isothiocyan>  (22) 
0

>  <fr_ketone>  (22) 
0

>  <fr_ketone_Topliss>  (22) 
0

>  <fr_lactam>  (22) 
0

>  <fr_lactone>  (22) 
0

>  <fr_methoxy>  (22) 
0

>  <fr_morpholine>  (22) 
0

>  <fr_nitrile>  (22) 
0

>  <fr_nitro>  (22) 
0

>  <fr_nitro_arom>  (22) 
0

>  <fr_nitro_arom_nonortho>  (22) 
0

>  <fr_nitroso>  (22) 
0

>  <fr_oxazole>  (22) 
0

>  <fr_oxime>  (22) 
0

>  <fr_para_hydroxylation>  (22) 
0

>  <fr_phenol>  (22) 
0

>  <fr_phenol_noOrthoHbond>  (22) 
0

>  <fr_phos_acid>  (22) 
0

>  <fr_phos_ester>  (22) 
0

>  <fr_piperdine>  (22) 
0

>  <fr_piperzine>  (22) 
0

>  <fr_priamide>  (22) 
0

>  <fr_prisulfonamd>  (22) 
0

>  <fr_pyridine>  (22) 
1

>  <fr_quatN>  (22) 
0

>  <fr_sulfide>  (22) 
0

>  <fr_sulfonamd>  (22) 
0

>  <fr_sulfone>  (22) 
0

>  <fr_term_acetylene>  (22) 
0

>  <fr_tetrazole>  (22) 
0

>  <fr_thiazole>  (22) 
0

>  <fr_thiocyan>  (22) 
0

>  <fr_thiophene>  (22) 
0

>  <fr_unbrch_alkane>  (22) 
0

>  <fr_urea>  (22) 
0

>  <NP_Likeness>  (22) 
-0.984279

$$$$
CHEMBL3401990
     RDKit          3D

  0  0  0  0  0  0  0  0  0  0999 V3000
M  V30 BEGIN CTAB
M  V30 COUNTS 51 55 0 0 0
M  V30 BEGIN ATOM
M  V30 1 C -0.821514 0.912787 -1.429571 0
M  V30 2 S 0.835401 0.287184 -1.534265 0
M  V30 3 O 0.804548 -0.906709 -2.460880 0
M  V30 4 O 1.669984 1.347046 -2.161320 0
M  V30 5 C 1.457379 -0.225777 0.030305 0 CFG=1
M  V30 6 C 2.817741 -0.849648 -0.067921 0 CFG=2
M  V30 7 C 3.244199 -1.142327 1.392667 0
M  V30 8 C 3.646826 0.146847 2.070118 0
M  V30 9 C 2.995572 1.283960 1.272579 0 CFG=1
M  V30 10 C 3.813672 1.378508 0.016202 0
M  V30 11 C 3.822891 0.070297 -0.706802 0
M  V30 12 C 1.530780 0.912198 1.019021 0 CFG=2
M  V30 13 N 0.935328 0.648233 2.291126 0
M  V30 14 C -0.261728 0.014900 2.690014 0
M  V30 15 N -1.124814 -0.591913 1.854066 0
M  V30 16 C -2.244121 -1.127589 2.367718 0
M  V30 17 C -3.255213 -1.852166 1.607446 0
M  V30 18 C -4.516316 -2.305377 2.014179 0
M  V30 19 N -5.129896 -2.945162 1.026823 0
M  V30 20 C -4.360464 -2.968667 -0.067582 0
M  V30 21 N -4.588240 -3.505247 -1.256721 0
M  V30 22 C -3.670365 -3.430962 -2.244449 0
M  V30 23 C -2.489678 -2.766896 -1.940385 0
M  V30 24 F -1.591117 -2.711129 -2.950893 0
M  V30 25 C -2.264934 -2.211032 -0.694674 0
M  V30 26 C -3.202528 -2.290878 0.300093 0
M  V30 27 N -2.544774 -1.082830 3.698880 0
M  V30 28 C -1.735087 -0.497765 4.585778 0
M  V30 29 C -0.591826 0.047274 4.053333 0
M  V30 30 F 0.219596 0.641499 4.996504 0
M  V30 31 H -1.540524 0.270441 -1.994365 0
M  V30 32 H -0.894962 1.934859 -1.888902 0
M  V30 33 H -1.206535 1.024194 -0.418641 0
M  V30 34 H 0.785439 -1.040864 0.405694 0
M  V30 35 H 2.818850 -1.843791 -0.568837 0
M  V30 36 H 4.073121 -1.848105 1.445799 0
M  V30 37 H 2.329811 -1.507768 1.903850 0
M  V30 38 H 3.382009 0.235681 3.114127 0
M  V30 39 H 4.751170 0.312658 2.008653 0
M  V30 40 H 3.015447 2.221841 1.837681 0
M  V30 41 H 4.881853 1.514581 0.395179 0
M  V30 42 H 3.631765 2.271648 -0.593853 0
M  V30 43 H 3.580463 0.228792 -1.759922 0
M  V30 44 H 4.832671 -0.434211 -0.635498 0
M  V30 45 H 1.062698 1.796108 0.559307 0
M  V30 46 H 1.530026 1.022321 3.098336 0
M  V30 47 H -4.934156 -2.152784 3.004784 0
M  V30 48 H -6.088956 -3.370676 1.106286 0
M  V30 49 H -3.854193 -3.867108 -3.213425 0
M  V30 50 H -1.341104 -1.710639 -0.476950 0
M  V30 51 H -1.968492 -0.462544 5.623969 0
M  V30 END ATOM
M  V30 BEGIN BOND
M  V30 1 1 1 2
M  V30 2 2 2 3
M  V30 3 2 2 4
M  V30 4 1 2 5
M  V30 5 1 5 6
M  V30 6 1 6 7
M  V30 7 1 7 8
M  V30 8 1 8 9
M  V30 9 1 9 10
M  V30 10 1 10 11
M  V30 11 1 9 12
M  V30 12 1 12 13
M  V30 13 1 13 14
M  V30 14 2 14 15
M  V30 15 1 15 16
M  V30 16 1 16 17
M  V30 17 2 17 18
M  V30 18 1 18 19
M  V30 19 1 19 20
M  V30 20 2 20 21
M  V30 21 1 21 22
M  V30 22 2 22 23
M  V30 23 1 23 24
M  V30 24 1 23 25
M  V30 25 2 25 26
M  V30 26 2 16 27
M  V30 27 1 27 28
M  V30 28 2 28 29
M  V30 29 1 29 30
M  V30 30 1 12 5
M  V30 31 1 29 14
M  V30 32 1 11 6
M  V30 33 1 26 17
M  V30 34 1 26 20
M  V30 35 1 1 31
M  V30 36 1 1 32
M  V30 37 1 1 33
M  V30 38 1 5 34 CFG=1
M  V30 39 1 6 35 CFG=3
M  V30 40 1 7 36
M  V30 41 1 7 37
M  V30 42 1 8 38
M  V30 43 1 8 39
M  V30 44 1 9 40 CFG=1
M  V30 45 1 10 41
M  V30 46 1 10 42
M  V30 47 1 11 43
M  V30 48 1 11 44
M  V30 49 1 12 45 CFG=3
M  V30 50 1 13 46
M  V30 51 1 18 47
M  V30 52 1 19 48
M  V30 53 1 22 49
M  V30 54 1 25 50
M  V30 55 1 28 51
M  V30 END BOND
M  V30 END CTAB
M  END
>  <Dataset>  (23) 
ChEMBL_PKA

>  <Ligand_Instance>  (23) 
nan

>  <PDB_ID>  (23) 
nan

>  <Standardized_SMILES>  (23) 
CS(=O)(=O)[C@H]1C2CCC(CC2)[C@@H]1Nc1nc(-c2c[nH]c3ncc(F)cc23)ncc1F

>  <Name>  (23) 
nan

>  <Pocket>  (23) 
nan

>  <ATP_Site>  (23) 
nan

>  <Peripheral>  (23) 
nan

>  <Num_H_Atoms_ProtBoundConf>  (23) 
nan

>  <Num_Resolved_Atoms>  (23) 
nan

>  <Num_Not_Resolved_Atoms>  (23) 
nan

>  <2D_Mol_H>  (23) 
<rdkit.Chem.rdchem.Mol object at 0x72a239102960>

>  <MW>  (23) 
433.484

>  <HBA>  (23) 
6

>  <HBD>  (23) 
2

>  <LogP>  (23) 
3.3118

>  <NRB>  (23) 
5

>  <TPSA>  (23) 
100.63

>  <Num_Heavy_Atoms>  (23) 
30

>  <Ro5>  (23) 
[True, True, True, True, True, True]

>  <Ro5_Fulfilled>  (23) 
True

>  <Ro3>  (23) 
[False, False, True, False]

>  <Ro3_Fulfilled>  (23) 
False

>  <Fsp3>  (23) 
0.45

>  <Fsp3_0.42>  (23) 
True

>  <Fsp3_0.45>  (23) 
True

>  <Stereogenic_Carbons>  (23) 
4

>  <C_Atoms>  (23) 
20

>  <FCStereo>  (23) 
0.2

>  <SPS>  (23) 
787

>  <nSPS>  (23) 
26.233333

>  <PBF>  (23) 
0.827012

>  <PBF_0.6>  (23) 
True

>  <nPBF>  (23) 
0.027567

>  <nPBF_0.016>  (23) 
True

>  <PMI1>  (23) 
2471.764983

>  <PMI2>  (23) 
4031.803269

>  <PMI3>  (23) 
5955.747574

>  <NPR1>  (23) 
0.415022

>  <NPR2>  (23) 
0.67696

>  <Sum_NPR>  (23) 
1.091982

>  <Sum_NPR_1.07>  (23) 
True

>  <Sum_NPR_1.2>  (23) 
False

>  <MaxAbsEStateIndex>  (23) 
14.593058

>  <MaxEStateIndex>  (23) 
14.593058

>  <MinAbsEStateIndex>  (23) 
0.037118

>  <MinEStateIndex>  (23) 
-3.309053

>  <qed>  (23) 
0.654782

>  <MolWt>  (23) 
433.484

>  <HeavyAtomMolWt>  (23) 
412.316

>  <ExactMolWt>  (23) 
433.138402

>  <NumValenceElectrons>  (23) 
158

>  <NumRadicalElectrons>  (23) 
0

>  <MaxPartialCharge>  (23) 
0.183259

>  <MinPartialCharge>  (23) 
-0.363187

>  <MaxAbsPartialCharge>  (23) 
0.363187

>  <MinAbsPartialCharge>  (23) 
0.183259

>  <FpDensityMorgan1>  (23) 
1.1

>  <FpDensityMorgan2>  (23) 
1.833333

>  <FpDensityMorgan3>  (23) 
2.566667

>  <BCUT2D_MWHI>  (23) 
32.227831

>  <BCUT2D_MWLOW>  (23) 
9.672479

>  <BCUT2D_CHGHI>  (23) 
2.482405

>  <BCUT2D_CHGLO>  (23) 
-2.47511

>  <BCUT2D_LOGPHI>  (23) 
2.450578

>  <BCUT2D_LOGPLOW>  (23) 
-2.547615

>  <BCUT2D_MRHI>  (23) 
7.909424

>  <BCUT2D_MRLOW>  (23) 
0.160771

>  <AvgIpc>  (23) 
3.123239

>  <BalabanJ>  (23) 
1.52989

>  <BertzCT>  (23) 
1221.159921

>  <Chi0>  (23) 
21.043241

>  <Chi0n>  (23) 
16.269544

>  <Chi0v>  (23) 
17.08604

>  <Chi1>  (23) 
14.308682

>  <Chi1n>  (23) 
9.919792

>  <Chi1v>  (23) 
11.87436

>  <Chi2n>  (23) 
8.28133

>  <Chi2v>  (23) 
10.484715

>  <Chi3n>  (23) 
6.423428

>  <Chi3v>  (23) 
8.090321

>  <Chi4n>  (23) 
5.128846

>  <Chi4v>  (23) 
6.923073

>  <HallKierAlpha>  (23) 
-2.62

>  <Ipc>  (23) 
9063328.384387

>  <Kappa1>  (23) 
19.34983

>  <Kappa2>  (23) 
6.968766

>  <Kappa3>  (23) 
3.226271

>  <LabuteASA>  (23) 
171.817414

>  <PEOE_VSA1>  (23) 
10.300767

>  <PEOE_VSA10>  (23) 
11.464398

>  <PEOE_VSA11>  (23) 
27.296741

>  <PEOE_VSA12>  (23) 
0.0

>  <PEOE_VSA13>  (23) 
0.0

>  <PEOE_VSA14>  (23) 
0.0

>  <PEOE_VSA2>  (23) 
0.0

>  <PEOE_VSA3>  (23) 
32.150563

>  <PEOE_VSA4>  (23) 
0.0

>  <PEOE_VSA5>  (23) 
0.0

>  <PEOE_VSA6>  (23) 
0.0

>  <PEOE_VSA7>  (23) 
43.585466

>  <PEOE_VSA8>  (23) 
29.444129

>  <PEOE_VSA9>  (23) 
17.643625

>  <SMR_VSA1>  (23) 
17.198627

>  <SMR_VSA10>  (23) 
26.688517

>  <SMR_VSA2>  (23) 
0.0

>  <SMR_VSA3>  (23) 
19.935914

>  <SMR_VSA4>  (23) 
11.835812

>  <SMR_VSA5>  (23) 
36.975065

>  <SMR_VSA6>  (23) 
11.572558

>  <SMR_VSA7>  (23) 
36.291339

>  <SMR_VSA8>  (23) 
0.0

>  <SMR_VSA9>  (23) 
11.387856

>  <SlogP_VSA1>  (23) 
5.316789

>  <SlogP_VSA10>  (23) 
14.598693

>  <SlogP_VSA11>  (23) 
0.0

>  <SlogP_VSA12>  (23) 
0.0

>  <SlogP_VSA2>  (23) 
45.901259

>  <SlogP_VSA3>  (23) 
9.837253

>  <SlogP_VSA4>  (23) 
23.470254

>  <SlogP_VSA5>  (23) 
25.683286

>  <SlogP_VSA6>  (23) 
24.656898

>  <SlogP_VSA7>  (23) 
0.0

>  <SlogP_VSA8>  (23) 
22.421257

>  <SlogP_VSA9>  (23) 
0.0

>  <EState_VSA1>  (23) 
32.763474

>  <EState_VSA10>  (23) 
17.198627

>  <EState_VSA11>  (23) 
0.0

>  <EState_VSA2>  (23) 
23.478079

>  <EState_VSA3>  (23) 
16.596853

>  <EState_VSA4>  (23) 
38.076974

>  <EState_VSA5>  (23) 
12.322136

>  <EState_VSA6>  (23) 
6.196844

>  <EState_VSA7>  (23) 
0.0

>  <EState_VSA8>  (23) 
25.252703

>  <EState_VSA9>  (23) 
0.0

>  <VSA_EState1>  (23) 
53.211188

>  <VSA_EState10>  (23) 
0.0

>  <VSA_EState2>  (23) 
15.289731

>  <VSA_EState3>  (23) 
3.017421

>  <VSA_EState4>  (23) 
0.958743

>  <VSA_EState5>  (23) 
-0.761641

>  <VSA_EState6>  (23) 
0.916809

>  <VSA_EState7>  (23) 
8.593469

>  <VSA_EState8>  (23) 
0.0

>  <VSA_EState9>  (23) 
-3.309053

>  <FractionCSP3>  (23) 
0.45

>  <HeavyAtomCount>  (23) 
30

>  <NHOHCount>  (23) 
2

>  <NOCount>  (23) 
7

>  <NumAliphaticCarbocycles>  (23) 
3

>  <NumAliphaticHeterocycles>  (23) 
0

>  <NumAliphaticRings>  (23) 
3

>  <NumAromaticCarbocycles>  (23) 
0

>  <NumAromaticHeterocycles>  (23) 
3

>  <NumAromaticRings>  (23) 
3

>  <NumHAcceptors>  (23) 
6

>  <NumHDonors>  (23) 
2

>  <NumHeteroatoms>  (23) 
10

>  <NumRotatableBonds>  (23) 
4

>  <NumSaturatedCarbocycles>  (23) 
3

>  <NumSaturatedHeterocycles>  (23) 
0

>  <NumSaturatedRings>  (23) 
3

>  <RingCount>  (23) 
6

>  <MolLogP>  (23) 
3.3118

>  <MolMR>  (23) 
108.5262

>  <fr_Al_COO>  (23) 
0

>  <fr_Al_OH>  (23) 
0

>  <fr_Al_OH_noTert>  (23) 
0

>  <fr_ArN>  (23) 
0

>  <fr_Ar_COO>  (23) 
0

>  <fr_Ar_N>  (23) 
4

>  <fr_Ar_NH>  (23) 
1

>  <fr_Ar_OH>  (23) 
0

>  <fr_COO>  (23) 
0

>  <fr_COO2>  (23) 
0

>  <fr_C_O>  (23) 
0

>  <fr_C_O_noCOO>  (23) 
0

>  <fr_C_S>  (23) 
0

>  <fr_HOCCN>  (23) 
0

>  <fr_Imine>  (23) 
0

>  <fr_NH0>  (23) 
3

>  <fr_NH1>  (23) 
2

>  <fr_NH2>  (23) 
0

>  <fr_N_O>  (23) 
0

>  <fr_Ndealkylation1>  (23) 
0

>  <fr_Ndealkylation2>  (23) 
0

>  <fr_Nhpyrrole>  (23) 
1

>  <fr_SH>  (23) 
0

>  <fr_aldehyde>  (23) 
0

>  <fr_alkyl_carbamate>  (23) 
0

>  <fr_alkyl_halide>  (23) 
0

>  <fr_allylic_oxid>  (23) 
0

>  <fr_amide>  (23) 
0

>  <fr_amidine>  (23) 
0

>  <fr_aniline>  (23) 
1

>  <fr_aryl_methyl>  (23) 
0

>  <fr_azide>  (23) 
0

>  <fr_azo>  (23) 
0

>  <fr_barbitur>  (23) 
0

>  <fr_benzene>  (23) 
0

>  <fr_benzodiazepine>  (23) 
0

>  <fr_bicyclic>  (23) 
4

>  <fr_diazo>  (23) 
0

>  <fr_dihydropyridine>  (23) 
0

>  <fr_epoxide>  (23) 
0

>  <fr_ester>  (23) 
0

>  <fr_ether>  (23) 
0

>  <fr_furan>  (23) 
0

>  <fr_guanido>  (23) 
0

>  <fr_halogen>  (23) 
2

>  <fr_hdrzine>  (23) 
0

>  <fr_hdrzone>  (23) 
0

>  <fr_imidazole>  (23) 
0

>  <fr_imide>  (23) 
0

>  <fr_isocyan>  (23) 
0

>  <fr_isothiocyan>  (23) 
0

>  <fr_ketone>  (23) 
0

>  <fr_ketone_Topliss>  (23) 
0

>  <fr_lactam>  (23) 
0

>  <fr_lactone>  (23) 
0

>  <fr_methoxy>  (23) 
0

>  <fr_morpholine>  (23) 
0

>  <fr_nitrile>  (23) 
0

>  <fr_nitro>  (23) 
0

>  <fr_nitro_arom>  (23) 
0

>  <fr_nitro_arom_nonortho>  (23) 
0

>  <fr_nitroso>  (23) 
0

>  <fr_oxazole>  (23) 
0

>  <fr_oxime>  (23) 
0

>  <fr_para_hydroxylation>  (23) 
0

>  <fr_phenol>  (23) 
0

>  <fr_phenol_noOrthoHbond>  (23) 
0

>  <fr_phos_acid>  (23) 
0

>  <fr_phos_ester>  (23) 
0

>  <fr_piperdine>  (23) 
0

>  <fr_piperzine>  (23) 
0

>  <fr_priamide>  (23) 
0

>  <fr_prisulfonamd>  (23) 
0

>  <fr_pyridine>  (23) 
1

>  <fr_quatN>  (23) 
0

>  <fr_sulfide>  (23) 
0

>  <fr_sulfonamd>  (23) 
0

>  <fr_sulfone>  (23) 
1

>  <fr_term_acetylene>  (23) 
0

>  <fr_tetrazole>  (23) 
0

>  <fr_thiazole>  (23) 
0

>  <fr_thiocyan>  (23) 
0

>  <fr_thiophene>  (23) 
0

>  <fr_unbrch_alkane>  (23) 
0

>  <fr_urea>  (23) 
0

>  <NP_Likeness>  (23) 
-0.703263

$$$$
CHEMBL3544960
     RDKit          3D

  0  0  0  0  0  0  0  0  0  0999 V3000
M  V30 BEGIN CTAB
M  V30 COUNTS 38 40 0 0 0
M  V30 BEGIN ATOM
M  V30 1 N -3.175844 -2.446352 1.642038 0
M  V30 2 C -2.236369 -1.368874 1.797781 0
M  V30 3 C -0.884142 -1.801718 1.313376 0 CFG=1
M  V30 4 O -0.522498 -2.902487 2.098983 0
M  V30 5 C -0.932626 -2.257722 -0.092853 0
M  V30 6 C 0.151832 -2.911404 -0.637838 0
M  V30 7 C 0.122962 -3.341604 -1.950797 0
M  V30 8 C -0.977745 -3.145049 -2.782868 0
M  V30 9 Cl -0.954310 -3.711779 -4.436353 0
M  V30 10 C -2.044388 -2.487056 -2.202557 0
M  V30 11 C -2.023998 -2.059405 -0.907974 0
M  V30 12 C 0.133643 -0.706302 1.485387 0
M  V30 13 C -0.163806 0.418155 0.708525 0
M  V30 14 C 0.690318 1.523497 0.761946 0
M  V30 15 C 1.795428 1.440815 1.591284 0
M  V30 16 C 2.659078 2.616981 1.617041 0
M  V30 17 C 2.863234 3.466457 0.525217 0
M  V30 18 N 3.706919 4.473457 0.826606 0
M  V30 19 N 4.038836 4.266199 2.105174 0
M  V30 20 C 3.430302 3.172038 2.595174 0
M  V30 21 C 2.094217 0.332768 2.360880 0
M  V30 22 C 1.249274 -0.758631 2.306850 0
M  V30 23 H -2.806822 -3.273176 1.167377 0
M  V30 24 H -3.665513 -2.720780 2.529487 0
M  V30 25 H -2.611034 -0.465567 1.233994 0
M  V30 26 H -2.223533 -1.114935 2.881673 0
M  V30 27 H -0.876491 -3.704587 1.642780 0
M  V30 28 H 1.057555 -3.124559 -0.105016 0
M  V30 29 H 0.978131 -3.859582 -2.388930 0
M  V30 30 H -2.892128 -2.346906 -2.875756 0
M  V30 31 H -2.902882 -1.552604 -0.538766 0
M  V30 32 H -1.013443 0.503616 0.060113 0
M  V30 33 H 0.472589 2.393637 0.169162 0
M  V30 34 H 2.405828 3.352828 -0.469550 0
M  V30 35 H 4.693522 4.912151 2.599267 0
M  V30 36 H 3.509193 2.762013 3.593878 0
M  V30 37 H 2.951266 0.280558 2.997850 0
M  V30 38 H 1.378162 -1.675225 2.859597 0
M  V30 END ATOM
M  V30 BEGIN BOND
M  V30 1 1 1 2
M  V30 2 1 2 3
M  V30 3 1 3 4 CFG=1
M  V30 4 1 3 5
M  V30 5 2 5 6
M  V30 6 1 6 7
M  V30 7 2 7 8
M  V30 8 1 8 9
M  V30 9 1 8 10
M  V30 10 2 10 11
M  V30 11 1 3 12
M  V30 12 2 12 13
M  V30 13 1 13 14
M  V30 14 2 14 15
M  V30 15 1 15 16
M  V30 16 1 16 17
M  V30 17 2 17 18
M  V30 18 1 18 19
M  V30 19 1 19 20
M  V30 20 1 15 21
M  V30 21 2 21 22
M  V30 22 1 11 5
M  V30 23 1 22 12
M  V30 24 2 20 16
M  V30 25 1 1 23
M  V30 26 1 1 24
M  V30 27 1 2 25
M  V30 28 1 2 26
M  V30 29 1 4 27
M  V30 30 1 6 28
M  V30 31 1 7 29
M  V30 32 1 10 30
M  V30 33 1 11 31
M  V30 34 1 13 32
M  V30 35 1 14 33
M  V30 36 1 17 34
M  V30 37 1 19 35
M  V30 38 1 20 36
M  V30 39 1 21 37
M  V30 40 1 22 38
M  V30 END BOND
M  V30 END CTAB
M  END
>  <Dataset>  (24) 
ChEMBL_PKA

>  <Ligand_Instance>  (24) 
nan

>  <PDB_ID>  (24) 
nan

>  <Standardized_SMILES>  (24) 
NC[C@@](O)(c1ccc(Cl)cc1)c1ccc(-c2cn[nH]c2)cc1

>  <Name>  (24) 
AT-13148

>  <Pocket>  (24) 
nan

>  <ATP_Site>  (24) 
nan

>  <Peripheral>  (24) 
nan

>  <Num_H_Atoms_ProtBoundConf>  (24) 
nan

>  <Num_Resolved_Atoms>  (24) 
nan

>  <Num_Not_Resolved_Atoms>  (24) 
nan

>  <2D_Mol_H>  (24) 
<rdkit.Chem.rdchem.Mol object at 0x72a239102a40>

>  <MW>  (24) 
313.788

>  <HBA>  (24) 
3

>  <HBD>  (24) 
3

>  <LogP>  (24) 
2.9247

>  <NRB>  (24) 
6

>  <TPSA>  (24) 
74.93

>  <Num_Heavy_Atoms>  (24) 
22

>  <Ro5>  (24) 
[True, True, True, True, True, True]

>  <Ro5_Fulfilled>  (24) 
True

>  <Ro3>  (24) 
[False, True, True, True]

>  <Ro3_Fulfilled>  (24) 
True

>  <Fsp3>  (24) 
0.117647

>  <Fsp3_0.42>  (24) 
False

>  <Fsp3_0.45>  (24) 
False

>  <Stereogenic_Carbons>  (24) 
1

>  <C_Atoms>  (24) 
17

>  <FCStereo>  (24) 
0.058824

>  <SPS>  (24) 
303

>  <nSPS>  (24) 
13.772727

>  <PBF>  (24) 
1.000533

>  <PBF_0.6>  (24) 
True

>  <nPBF>  (24) 
0.045479

>  <nPBF_0.016>  (24) 
True

>  <PMI1>  (24) 
1162.867554

>  <PMI2>  (24) 
4158.392445

>  <PMI3>  (24) 
4873.592105

>  <NPR1>  (24) 
0.238606

>  <NPR2>  (24) 
0.85325

>  <Sum_NPR>  (24) 
1.091856

>  <Sum_NPR_1.07>  (24) 
True

>  <Sum_NPR_1.2>  (24) 
False

>  <MaxAbsEStateIndex>  (24) 
10.988435

>  <MaxEStateIndex>  (24) 
10.988435

>  <MinAbsEStateIndex>  (24) 
0.083025

>  <MinEStateIndex>  (24) 
-1.236592

>  <qed>  (24) 
0.692988

>  <MolWt>  (24) 
313.788

>  <HeavyAtomMolWt>  (24) 
297.66

>  <ExactMolWt>  (24) 
313.09819

>  <NumValenceElectrons>  (24) 
112

>  <NumRadicalElectrons>  (24) 
0

>  <MaxPartialCharge>  (24) 
0.126748

>  <MinPartialCharge>  (24) 
-0.379053

>  <MaxAbsPartialCharge>  (24) 
0.379053

>  <MinAbsPartialCharge>  (24) 
0.126748

>  <FpDensityMorgan1>  (24) 
1.0

>  <FpDensityMorgan2>  (24) 
1.590909

>  <FpDensityMorgan3>  (24) 
2.090909

>  <BCUT2D_MWHI>  (24) 
35.495691

>  <BCUT2D_MWLOW>  (24) 
9.855888

>  <BCUT2D_CHGHI>  (24) 
2.294051

>  <BCUT2D_CHGLO>  (24) 
-2.276607

>  <BCUT2D_LOGPHI>  (24) 
2.306502

>  <BCUT2D_LOGPLOW>  (24) 
-2.355647

>  <BCUT2D_MRHI>  (24) 
6.300939

>  <BCUT2D_MRLOW>  (24) 
0.090244

>  <AvgIpc>  (24) 
3.093014

>  <BalabanJ>  (24) 
1.977146

>  <BertzCT>  (24) 
738.589932

>  <Chi0>  (24) 
15.57914

>  <Chi0n>  (24) 
11.830351

>  <Chi0v>  (24) 
12.58628

>  <Chi1>  (24) 
10.631177

>  <Chi1n>  (24) 
6.914956

>  <Chi1v>  (24) 
7.292921

>  <Chi2n>  (24) 
5.135619

>  <Chi2v>  (24) 
5.572055

>  <Chi3n>  (24) 
3.811211

>  <Chi3v>  (24) 
4.063188

>  <Chi4n>  (24) 
2.475133

>  <Chi4v>  (24) 
2.601121

>  <HallKierAlpha>  (24) 
-2.14

>  <Ipc>  (24) 
173654.206016

>  <Kappa1>  (24) 
14.782991

>  <Kappa2>  (24) 
5.926702

>  <Kappa3>  (24) 
2.639121

>  <LabuteASA>  (24) 
133.110128

>  <PEOE_VSA1>  (24) 
10.840195

>  <PEOE_VSA10>  (24) 
5.601051

>  <PEOE_VSA11>  (24) 
0.0

>  <PEOE_VSA12>  (24) 
0.0

>  <PEOE_VSA13>  (24) 
0.0

>  <PEOE_VSA14>  (24) 
0.0

>  <PEOE_VSA2>  (24) 
5.098682

>  <PEOE_VSA3>  (24) 
0.0

>  <PEOE_VSA4>  (24) 
5.098682

>  <PEOE_VSA5>  (24) 
0.0

>  <PEOE_VSA6>  (24) 
47.999142

>  <PEOE_VSA7>  (24) 
28.823089

>  <PEOE_VSA8>  (24) 
23.327685

>  <PEOE_VSA9>  (24) 
6.196844

>  <SMR_VSA1>  (24) 
5.106527

>  <SMR_VSA10>  (24) 
11.60094

>  <SMR_VSA2>  (24) 
0.0

>  <SMR_VSA3>  (24) 
10.197364

>  <SMR_VSA4>  (24) 
5.733667

>  <SMR_VSA5>  (24) 
5.601051

>  <SMR_VSA6>  (24) 
6.544756

>  <SMR_VSA7>  (24) 
77.07416

>  <SMR_VSA8>  (24) 
0.0

>  <SMR_VSA9>  (24) 
11.126903

>  <SlogP_VSA1>  (24) 
5.733667

>  <SlogP_VSA10>  (24) 
0.0

>  <SlogP_VSA11>  (24) 
0.0

>  <SlogP_VSA12>  (24) 
11.60094

>  <SlogP_VSA2>  (24) 
21.848647

>  <SlogP_VSA3>  (24) 
5.601051

>  <SlogP_VSA4>  (24) 
0.0

>  <SlogP_VSA5>  (24) 
11.126903

>  <SlogP_VSA6>  (24) 
60.924624

>  <SlogP_VSA7>  (24) 
5.022633

>  <SlogP_VSA8>  (24) 
11.126903

>  <SlogP_VSA9>  (24) 
0.0

>  <EState_VSA1>  (24) 
5.601051

>  <EState_VSA10>  (24) 
5.106527

>  <EState_VSA11>  (24) 
0.0

>  <EState_VSA2>  (24) 
6.544756

>  <EState_VSA3>  (24) 
5.022633

>  <EState_VSA4>  (24) 
22.253806

>  <EState_VSA5>  (24) 
0.0

>  <EState_VSA6>  (24) 
30.462312

>  <EState_VSA7>  (24) 
30.462312

>  <EState_VSA8>  (24) 
10.197364

>  <EState_VSA9>  (24) 
17.334607

>  <VSA_EState1>  (24) 
0.0

>  <VSA_EState10>  (24) 
5.907036

>  <VSA_EState2>  (24) 
0.0

>  <VSA_EState3>  (24) 
18.330327

>  <VSA_EState4>  (24) 
8.081582

>  <VSA_EState5>  (24) 
0.0

>  <VSA_EState6>  (24) 
14.716423

>  <VSA_EState7>  (24) 
3.576052

>  <VSA_EState8>  (24) 
0.083025

>  <VSA_EState9>  (24) 
0.0

>  <FractionCSP3>  (24) 
0.117647

>  <HeavyAtomCount>  (24) 
22

>  <NHOHCount>  (24) 
4

>  <NOCount>  (24) 
4

>  <NumAliphaticCarbocycles>  (24) 
0

>  <NumAliphaticHeterocycles>  (24) 
0

>  <NumAliphaticRings>  (24) 
0

>  <NumAromaticCarbocycles>  (24) 
2

>  <NumAromaticHeterocycles>  (24) 
1

>  <NumAromaticRings>  (24) 
3

>  <NumHAcceptors>  (24) 
3

>  <NumHDonors>  (24) 
3

>  <NumHeteroatoms>  (24) 
5

>  <NumRotatableBonds>  (24) 
4

>  <NumSaturatedCarbocycles>  (24) 
0

>  <NumSaturatedHeterocycles>  (24) 
0

>  <NumSaturatedRings>  (24) 
0

>  <RingCount>  (24) 
3

>  <MolLogP>  (24) 
2.9247

>  <MolMR>  (24) 
87.5289

>  <fr_Al_COO>  (24) 
0

>  <fr_Al_OH>  (24) 
1

>  <fr_Al_OH_noTert>  (24) 
0

>  <fr_ArN>  (24) 
0

>  <fr_Ar_COO>  (24) 
0

>  <fr_Ar_N>  (24) 
2

>  <fr_Ar_NH>  (24) 
1

>  <fr_Ar_OH>  (24) 
0

>  <fr_COO>  (24) 
0

>  <fr_COO2>  (24) 
0

>  <fr_C_O>  (24) 
0

>  <fr_C_O_noCOO>  (24) 
0

>  <fr_C_S>  (24) 
0

>  <fr_HOCCN>  (24) 
0

>  <fr_Imine>  (24) 
0

>  <fr_NH0>  (24) 
1

>  <fr_NH1>  (24) 
1

>  <fr_NH2>  (24) 
1

>  <fr_N_O>  (24) 
0

>  <fr_Ndealkylation1>  (24) 
0

>  <fr_Ndealkylation2>  (24) 
0

>  <fr_Nhpyrrole>  (24) 
1

>  <fr_SH>  (24) 
0

>  <fr_aldehyde>  (24) 
0

>  <fr_alkyl_carbamate>  (24) 
0

>  <fr_alkyl_halide>  (24) 
0

>  <fr_allylic_oxid>  (24) 
0

>  <fr_amide>  (24) 
0

>  <fr_amidine>  (24) 
0

>  <fr_aniline>  (24) 
0

>  <fr_aryl_methyl>  (24) 
0

>  <fr_azide>  (24) 
0

>  <fr_azo>  (24) 
0

>  <fr_barbitur>  (24) 
0

>  <fr_benzene>  (24) 
2

>  <fr_benzodiazepine>  (24) 
0

>  <fr_bicyclic>  (24) 
0

>  <fr_diazo>  (24) 
0

>  <fr_dihydropyridine>  (24) 
0

>  <fr_epoxide>  (24) 
0

>  <fr_ester>  (24) 
0

>  <fr_ether>  (24) 
0

>  <fr_furan>  (24) 
0

>  <fr_guanido>  (24) 
0

>  <fr_halogen>  (24) 
1

>  <fr_hdrzine>  (24) 
0

>  <fr_hdrzone>  (24) 
0

>  <fr_imidazole>  (24) 
0

>  <fr_imide>  (24) 
0

>  <fr_isocyan>  (24) 
0

>  <fr_isothiocyan>  (24) 
0

>  <fr_ketone>  (24) 
0

>  <fr_ketone_Topliss>  (24) 
0

>  <fr_lactam>  (24) 
0

>  <fr_lactone>  (24) 
0

>  <fr_methoxy>  (24) 
0

>  <fr_morpholine>  (24) 
0

>  <fr_nitrile>  (24) 
0

>  <fr_nitro>  (24) 
0

>  <fr_nitro_arom>  (24) 
0

>  <fr_nitro_arom_nonortho>  (24) 
0

>  <fr_nitroso>  (24) 
0

>  <fr_oxazole>  (24) 
0

>  <fr_oxime>  (24) 
0

>  <fr_para_hydroxylation>  (24) 
0

>  <fr_phenol>  (24) 
0

>  <fr_phenol_noOrthoHbond>  (24) 
0

>  <fr_phos_acid>  (24) 
0

>  <fr_phos_ester>  (24) 
0

>  <fr_piperdine>  (24) 
0

>  <fr_piperzine>  (24) 
0

>  <fr_priamide>  (24) 
0

>  <fr_prisulfonamd>  (24) 
0

>  <fr_pyridine>  (24) 
0

>  <fr_quatN>  (24) 
0

>  <fr_sulfide>  (24) 
0

>  <fr_sulfonamd>  (24) 
0

>  <fr_sulfone>  (24) 
0

>  <fr_term_acetylene>  (24) 
0

>  <fr_tetrazole>  (24) 
0

>  <fr_thiazole>  (24) 
0

>  <fr_thiocyan>  (24) 
0

>  <fr_thiophene>  (24) 
0

>  <fr_unbrch_alkane>  (24) 
0

>  <fr_urea>  (24) 
0

>  <NP_Likeness>  (24) 
-1.01226

$$$$
CHEMBL3545396
     RDKit          3D

  0  0  0  0  0  0  0  0  0  0999 V3000
M  V30 BEGIN CTAB
M  V30 COUNTS 51 54 0 0 0
M  V30 BEGIN ATOM
M  V30 1 C 2.936643 -2.893405 2.950923 0
M  V30 2 O 2.654066 -3.542257 1.748876 0
M  V30 3 C 2.360359 -2.963695 0.542997 0
M  V30 4 C 2.111283 -3.826951 -0.520743 0
M  V30 5 C 1.806245 -3.319718 -1.776984 0
M  V30 6 C 1.737081 -1.961756 -2.025227 0
M  V30 7 C 1.983503 -1.081215 -0.974089 0
M  V30 8 N 1.950516 0.353181 -1.052725 0
M  V30 9 C 2.238898 1.274082 -0.019888 0
M  V30 10 N 3.571560 1.562830 0.066422 0
M  V30 11 C 3.913662 2.444299 1.035903 0
M  V30 12 N 3.062998 3.036445 1.891045 0
M  V30 13 N 1.766722 2.743357 1.792230 0
M  V30 14 C 0.690655 3.162821 2.481461 0
M  V30 15 C -0.403157 2.529048 1.942074 0
M  V30 16 C 0.012144 1.698136 0.893391 0
M  V30 17 C -0.891223 0.865119 0.098006 0
M  V30 18 N -0.917839 -0.522748 0.410839 0
M  V30 19 C -1.296061 -0.839750 1.755470 0
M  V30 20 C -2.756661 -0.855809 2.037538 0
M  V30 21 C -3.450767 -1.771579 1.034308 0 CFG=1
M  V30 22 N -4.872717 -1.780491 1.292882 0
M  V30 23 C -3.199468 -1.132530 -0.325156 0 CFG=2
M  V30 24 O -3.838253 -1.908192 -1.275815 0
M  V30 25 C -1.710165 -1.204645 -0.585625 0
M  V30 26 C 1.367566 1.880706 0.856386 0
M  V30 27 C 2.283500 -1.617188 0.260780 0
M  V30 28 H 4.026704 -2.988232 3.173243 0
M  V30 29 H 2.360996 -3.331739 3.795282 0
M  V30 30 H 2.708245 -1.808099 2.951641 0
M  V30 31 H 2.138339 -4.913230 -0.439282 0
M  V30 32 H 1.604758 -3.973540 -2.634757 0
M  V30 33 H 1.511621 -1.493487 -2.950578 0
M  V30 34 H 1.684738 0.769471 -1.974527 0
M  V30 35 H 4.978773 2.707874 1.142565 0
M  V30 36 H 0.694121 3.872070 3.308856 0
M  V30 37 H -1.418931 2.657713 2.280457 0
M  V30 38 H -0.682055 0.943970 -1.010813 0
M  V30 39 H -1.933587 1.241137 0.191165 0
M  V30 40 H -0.907950 -1.861091 2.040176 0
M  V30 41 H -0.757483 -0.147872 2.429838 0
M  V30 42 H -3.175040 0.147337 1.903694 0
M  V30 43 H -2.891336 -1.253539 3.066285 0
M  V30 44 H -2.975256 -2.754831 1.022528 0
M  V30 45 H -5.119069 -1.269326 2.174163 0
M  V30 46 H -5.420084 -1.306006 0.540697 0
M  V30 47 H -3.518994 -0.081472 -0.292581 0
M  V30 48 H -3.337660 -2.751879 -1.348290 0
M  V30 49 H -1.546262 -0.657997 -1.554249 0
M  V30 50 H -1.369802 -2.233814 -0.732071 0
M  V30 51 H 2.481826 -0.968222 1.105941 0
M  V30 END ATOM
M  V30 BEGIN BOND
M  V30 1 1 1 2
M  V30 2 1 2 3
M  V30 3 2 3 4
M  V30 4 1 4 5
M  V30 5 2 5 6
M  V30 6 1 6 7
M  V30 7 1 7 8
M  V30 8 1 8 9
M  V30 9 2 9 10
M  V30 10 1 10 11
M  V30 11 2 11 12
M  V30 12 1 12 13
M  V30 13 1 13 14
M  V30 14 2 14 15
M  V30 15 1 15 16
M  V30 16 1 16 17
M  V30 17 1 17 18
M  V30 18 1 18 19
M  V30 19 1 19 20
M  V30 20 1 20 21
M  V30 21 1 21 22
M  V30 22 1 21 23
M  V30 23 1 23 24
M  V30 24 1 23 25
M  V30 25 2 16 26
M  V30 26 2 7 27
M  V30 27 1 27 3
M  V30 28 1 26 9
M  V30 29 1 26 13
M  V30 30 1 25 18
M  V30 31 1 1 28
M  V30 32 1 1 29
M  V30 33 1 1 30
M  V30 34 1 4 31
M  V30 35 1 5 32
M  V30 36 1 6 33
M  V30 37 1 8 34
M  V30 38 1 11 35
M  V30 39 1 14 36
M  V30 40 1 15 37
M  V30 41 1 17 38
M  V30 42 1 17 39
M  V30 43 1 19 40
M  V30 44 1 19 41
M  V30 45 1 20 42
M  V30 46 1 20 43
M  V30 47 1 21 44 CFG=3
M  V30 48 1 22 45
M  V30 49 1 22 46
M  V30 50 1 23 47 CFG=1
M  V30 51 1 24 48
M  V30 52 1 25 49
M  V30 53 1 25 50
M  V30 54 1 27 51
M  V30 END BOND
M  V30 END CTAB
M  END
>  <Dataset>  (25) 
ChEMBL_PKA

>  <Ligand_Instance>  (25) 
nan

>  <PDB_ID>  (25) 
nan

>  <Standardized_SMILES>  (25) 
COc1cccc(Nc2ncnn3ccc(CN4CC[C@@H](N)[C@H](O)C4)c23)c1

>  <Name>  (25) 
BMS-690514

>  <Pocket>  (25) 
nan

>  <ATP_Site>  (25) 
nan

>  <Peripheral>  (25) 
nan

>  <Num_H_Atoms_ProtBoundConf>  (25) 
nan

>  <Num_Resolved_Atoms>  (25) 
nan

>  <Num_Not_Resolved_Atoms>  (25) 
nan

>  <2D_Mol_H>  (25) 
<rdkit.Chem.rdchem.Mol object at 0x72a239102b20>

>  <MW>  (25) 
368.441

>  <HBA>  (25) 
8

>  <HBD>  (25) 
3

>  <LogP>  (25) 
1.3754

>  <NRB>  (25) 
8

>  <TPSA>  (25) 
100.94

>  <Num_Heavy_Atoms>  (25) 
27

>  <Ro5>  (25) 
[True, True, True, True, True, True]

>  <Ro5_Fulfilled>  (25) 
True

>  <Ro3>  (25) 
[False, False, True, True]

>  <Ro3_Fulfilled>  (25) 
False

>  <Fsp3>  (25) 
0.368421

>  <Fsp3_0.42>  (25) 
False

>  <Fsp3_0.45>  (25) 
False

>  <Stereogenic_Carbons>  (25) 
2

>  <C_Atoms>  (25) 
19

>  <FCStereo>  (25) 
0.105263

>  <SPS>  (25) 
559

>  <nSPS>  (25) 
20.703704

>  <PBF>  (25) 
1.257706

>  <PBF_0.6>  (25) 
True

>  <nPBF>  (25) 
0.046582

>  <nPBF_0.016>  (25) 
True

>  <PMI1>  (25) 
2213.896843

>  <PMI2>  (25) 
3082.631128

>  <PMI3>  (25) 
4151.742763

>  <NPR1>  (25) 
0.533245

>  <NPR2>  (25) 
0.742491

>  <Sum_NPR>  (25) 
1.275736

>  <Sum_NPR_1.07>  (25) 
True

>  <Sum_NPR_1.2>  (25) 
True

>  <MaxAbsEStateIndex>  (25) 
10.068055

>  <MaxEStateIndex>  (25) 
10.068055

>  <MinAbsEStateIndex>  (25) 
0.138284

>  <MinEStateIndex>  (25) 
-0.487724

>  <qed>  (25) 
0.625263

>  <MolWt>  (25) 
368.441

>  <HeavyAtomMolWt>  (25) 
344.249

>  <ExactMolWt>  (25) 
368.196074

>  <NumValenceElectrons>  (25) 
142

>  <NumRadicalElectrons>  (25) 
0

>  <MaxPartialCharge>  (25) 
0.158154

>  <MinPartialCharge>  (25) 
-0.496688

>  <MaxAbsPartialCharge>  (25) 
0.496688

>  <MinAbsPartialCharge>  (25) 
0.158154

>  <FpDensityMorgan1>  (25) 
1.37037

>  <FpDensityMorgan2>  (25) 
2.259259

>  <FpDensityMorgan3>  (25) 
3.074074

>  <BCUT2D_MWHI>  (25) 
16.465354

>  <BCUT2D_MWLOW>  (25) 
10.024262

>  <BCUT2D_CHGHI>  (25) 
2.251365

>  <BCUT2D_CHGLO>  (25) 
-2.334595

>  <BCUT2D_LOGPHI>  (25) 
2.260688

>  <BCUT2D_LOGPLOW>  (25) 
-2.496049

>  <BCUT2D_MRHI>  (25) 
5.762724

>  <BCUT2D_MRLOW>  (25) 
0.050123

>  <AvgIpc>  (25) 
3.087319

>  <BalabanJ>  (25) 
1.610577

>  <BertzCT>  (25) 
927.458804

>  <Chi0>  (25) 
18.802754

>  <Chi0n>  (25) 
15.246246

>  <Chi0v>  (25) 
15.246246

>  <Chi1>  (25) 
13.135362

>  <Chi1n>  (25) 
9.021157

>  <Chi1v>  (25) 
9.021157

>  <Chi2n>  (25) 
6.854747

>  <Chi2v>  (25) 
6.854747

>  <Chi3n>  (25) 
4.981937

>  <Chi3v>  (25) 
4.981937

>  <Chi4n>  (25) 
3.474691

>  <Chi4v>  (25) 
3.474691

>  <HallKierAlpha>  (25) 
-2.68

>  <Ipc>  (25) 
2251390.415787

>  <Kappa1>  (25) 
17.719819

>  <Kappa2>  (25) 
7.514324

>  <Kappa3>  (25) 
3.728401

>  <LabuteASA>  (25) 
157.120536

>  <PEOE_VSA1>  (25) 
20.893846

>  <PEOE_VSA10>  (25) 
17.593533

>  <PEOE_VSA11>  (25) 
5.817863

>  <PEOE_VSA12>  (25) 
0.0

>  <PEOE_VSA13>  (25) 
0.0

>  <PEOE_VSA14>  (25) 
0.0

>  <PEOE_VSA2>  (25) 
4.89991

>  <PEOE_VSA3>  (25) 
9.499376

>  <PEOE_VSA4>  (25) 
5.098682

>  <PEOE_VSA5>  (25) 
0.0

>  <PEOE_VSA6>  (25) 
6.066367

>  <PEOE_VSA7>  (25) 
30.183374

>  <PEOE_VSA8>  (25) 
43.626707

>  <PEOE_VSA9>  (25) 
13.213764

>  <SMR_VSA1>  (25) 
9.84339

>  <SMR_VSA10>  (25) 
17.02195

>  <SMR_VSA2>  (25) 
0.0

>  <SMR_VSA3>  (25) 
19.497968

>  <SMR_VSA4>  (25) 
5.733667

>  <SMR_VSA5>  (25) 
25.111385

>  <SMR_VSA6>  (25) 
25.516099

>  <SMR_VSA7>  (25) 
48.41945

>  <SMR_VSA8>  (25) 
0.0

>  <SMR_VSA9>  (25) 
5.749512

>  <SlogP_VSA1>  (25) 
15.787319

>  <SlogP_VSA10>  (25) 
11.505249

>  <SlogP_VSA11>  (25) 
5.749512

>  <SlogP_VSA12>  (25) 
0.0

>  <SlogP_VSA2>  (25) 
56.949613

>  <SlogP_VSA3>  (25) 
6.544756

>  <SlogP_VSA4>  (25) 
0.0

>  <SlogP_VSA5>  (25) 
11.984273

>  <SlogP_VSA6>  (25) 
42.855999

>  <SlogP_VSA7>  (25) 
0.0

>  <SlogP_VSA8>  (25) 
5.516701

>  <SlogP_VSA9>  (25) 
0.0

>  <EState_VSA1>  (25) 
6.103966

>  <EState_VSA10>  (25) 
5.106527

>  <EState_VSA11>  (25) 
0.0

>  <EState_VSA2>  (25) 
6.041841

>  <EState_VSA3>  (25) 
13.089513

>  <EState_VSA4>  (25) 
41.300491

>  <EState_VSA5>  (25) 
6.32732

>  <EState_VSA6>  (25) 
7.109798

>  <EState_VSA7>  (25) 
41.044077

>  <EState_VSA8>  (25) 
20.299359

>  <EState_VSA9>  (25) 
10.47053

>  <VSA_EState1>  (25) 
7.105855

>  <VSA_EState10>  (25) 
0.0

>  <VSA_EState2>  (25) 
6.652842

>  <VSA_EState3>  (25) 
17.740359

>  <VSA_EState4>  (25) 
8.828945

>  <VSA_EState5>  (25) 
1.506332

>  <VSA_EState6>  (25) 
9.615871

>  <VSA_EState7>  (25) 
3.758839

>  <VSA_EState8>  (25) 
2.146023

>  <VSA_EState9>  (25) 
1.644935

>  <FractionCSP3>  (25) 
0.368421

>  <HeavyAtomCount>  (25) 
27

>  <NHOHCount>  (25) 
4

>  <NOCount>  (25) 
8

>  <NumAliphaticCarbocycles>  (25) 
0

>  <NumAliphaticHeterocycles>  (25) 
1

>  <NumAliphaticRings>  (25) 
1

>  <NumAromaticCarbocycles>  (25) 
1

>  <NumAromaticHeterocycles>  (25) 
2

>  <NumAromaticRings>  (25) 
3

>  <NumHAcceptors>  (25) 
8

>  <NumHDonors>  (25) 
3

>  <NumHeteroatoms>  (25) 
8

>  <NumRotatableBonds>  (25) 
5

>  <NumSaturatedCarbocycles>  (25) 
0

>  <NumSaturatedHeterocycles>  (25) 
1

>  <NumSaturatedRings>  (25) 
1

>  <RingCount>  (25) 
4

>  <MolLogP>  (25) 
1.3754

>  <MolMR>  (25) 
103.1399

>  <fr_Al_COO>  (25) 
0

>  <fr_Al_OH>  (25) 
1

>  <fr_Al_OH_noTert>  (25) 
1

>  <fr_ArN>  (25) 
0

>  <fr_Ar_COO>  (25) 
0

>  <fr_Ar_N>  (25) 
3

>  <fr_Ar_NH>  (25) 
0

>  <fr_Ar_OH>  (25) 
0

>  <fr_COO>  (25) 
0

>  <fr_COO2>  (25) 
0

>  <fr_C_O>  (25) 
0

>  <fr_C_O_noCOO>  (25) 
0

>  <fr_C_S>  (25) 
0

>  <fr_HOCCN>  (25) 
1

>  <fr_Imine>  (25) 
0

>  <fr_NH0>  (25) 
4

>  <fr_NH1>  (25) 
1

>  <fr_NH2>  (25) 
1

>  <fr_N_O>  (25) 
0

>  <fr_Ndealkylation1>  (25) 
0

>  <fr_Ndealkylation2>  (25) 
1

>  <fr_Nhpyrrole>  (25) 
0

>  <fr_SH>  (25) 
0

>  <fr_aldehyde>  (25) 
0

>  <fr_alkyl_carbamate>  (25) 
0

>  <fr_alkyl_halide>  (25) 
0

>  <fr_allylic_oxid>  (25) 
0

>  <fr_amide>  (25) 
0

>  <fr_amidine>  (25) 
0

>  <fr_aniline>  (25) 
2

>  <fr_aryl_methyl>  (25) 
0

>  <fr_azide>  (25) 
0

>  <fr_azo>  (25) 
0

>  <fr_barbitur>  (25) 
0

>  <fr_benzene>  (25) 
1

>  <fr_benzodiazepine>  (25) 
0

>  <fr_bicyclic>  (25) 
1

>  <fr_diazo>  (25) 
0

>  <fr_dihydropyridine>  (25) 
0

>  <fr_epoxide>  (25) 
0

>  <fr_ester>  (25) 
0

>  <fr_ether>  (25) 
1

>  <fr_furan>  (25) 
0

>  <fr_guanido>  (25) 
0

>  <fr_halogen>  (25) 
0

>  <fr_hdrzine>  (25) 
0

>  <fr_hdrzone>  (25) 
0

>  <fr_imidazole>  (25) 
0

>  <fr_imide>  (25) 
0

>  <fr_isocyan>  (25) 
0

>  <fr_isothiocyan>  (25) 
0

>  <fr_ketone>  (25) 
0

>  <fr_ketone_Topliss>  (25) 
0

>  <fr_lactam>  (25) 
0

>  <fr_lactone>  (25) 
0

>  <fr_methoxy>  (25) 
1

>  <fr_morpholine>  (25) 
0

>  <fr_nitrile>  (25) 
0

>  <fr_nitro>  (25) 
0

>  <fr_nitro_arom>  (25) 
0

>  <fr_nitro_arom_nonortho>  (25) 
0

>  <fr_nitroso>  (25) 
0

>  <fr_oxazole>  (25) 
0

>  <fr_oxime>  (25) 
0

>  <fr_para_hydroxylation>  (25) 
0

>  <fr_phenol>  (25) 
0

>  <fr_phenol_noOrthoHbond>  (25) 
0

>  <fr_phos_acid>  (25) 
0

>  <fr_phos_ester>  (25) 
0

>  <fr_piperdine>  (25) 
1

>  <fr_piperzine>  (25) 
0

>  <fr_priamide>  (25) 
0

>  <fr_prisulfonamd>  (25) 
0

>  <fr_pyridine>  (25) 
0

>  <fr_quatN>  (25) 
0

>  <fr_sulfide>  (25) 
0

>  <fr_sulfonamd>  (25) 
0

>  <fr_sulfone>  (25) 
0

>  <fr_term_acetylene>  (25) 
0

>  <fr_tetrazole>  (25) 
0

>  <fr_thiazole>  (25) 
0

>  <fr_thiocyan>  (25) 
0

>  <fr_thiophene>  (25) 
0

>  <fr_unbrch_alkane>  (25) 
0

>  <fr_urea>  (25) 
0

>  <NP_Likeness>  (25) 
-1.118547

$$$$
CHEMBL3580669
     RDKit          3D

  0  0  0  0  0  0  0  0  0  0999 V3000
M  V30 BEGIN CTAB
M  V30 COUNTS 43 45 0 0 0
M  V30 BEGIN ATOM
M  V30 1 C 3.717417 -2.788627 3.332708 0
M  V30 2 S 5.361934 -2.107420 3.150587 0
M  V30 3 O 6.228109 -3.019037 2.384569 0
M  V30 4 O 5.943481 -2.062375 4.559722 0
M  V30 5 N 5.297104 -0.493266 2.614767 0
M  V30 6 C 4.684724 -0.381242 1.353902 0
M  V30 7 C 4.913990 -1.176604 0.251233 0
M  V30 8 C 4.234361 -0.952793 -0.937836 0
M  V30 9 C 3.314846 0.072625 -1.037054 0
M  V30 10 C 3.058902 0.891061 0.048705 0
M  V30 11 C 2.068965 2.025257 0.002505 0
M  V30 12 C 0.757398 1.416613 0.420213 0
M  V30 13 O 1.171895 0.243898 0.599414 0
M  V30 14 N -0.486901 2.050197 0.540506 0
M  V30 15 C -1.596702 1.255159 0.957907 0
M  V30 16 C -2.492273 0.540391 0.244237 0
M  V30 17 C -3.486843 -0.153525 0.878267 0
M  V30 18 C -4.504116 -0.956142 0.206618 0
M  V30 19 C -5.758816 -1.072094 0.768546 0
M  V30 20 C -6.664394 -1.838006 0.088480 0
M  V30 21 N -6.385793 -2.460672 -1.068045 0
M  V30 22 C -5.166906 -2.355378 -1.625596 0
M  V30 23 F -4.848444 -2.974257 -2.800366 0
M  V30 24 C -4.202518 -1.594328 -0.988276 0
M  V30 25 C -3.479245 -0.047067 2.321499 0
M  V30 26 S -2.020869 1.057555 2.636785 0
M  V30 27 C 3.751859 0.643597 1.220846 0
M  V30 28 H 3.481814 -3.081982 4.362870 0
M  V30 29 H 2.951142 -2.062667 2.953599 0
M  V30 30 H 3.603529 -3.703034 2.715013 0
M  V30 31 H 5.654957 0.348916 3.123465 0
M  V30 32 H 5.626284 -1.953110 0.365887 0
M  V30 33 H 4.418392 -1.584969 -1.809623 0
M  V30 34 H 2.765267 0.270902 -1.961794 0
M  V30 35 H 2.364078 2.806035 0.729875 0
M  V30 36 H 2.033348 2.406780 -1.022728 0
M  V30 37 H -0.479554 3.073865 0.305517 0
M  V30 38 H -2.387606 0.543016 -0.830543 0
M  V30 39 H -5.931473 -0.554871 1.694003 0
M  V30 40 H -7.663264 -1.937571 0.524434 0
M  V30 41 H -3.208681 -1.493432 -1.418881 0
M  V30 42 H -4.191382 -0.530474 2.969349 0
M  V30 43 H 3.526951 1.309694 2.063504 0
M  V30 END ATOM
M  V30 BEGIN BOND
M  V30 1 1 1 2
M  V30 2 2 2 3
M  V30 3 2 2 4
M  V30 4 1 2 5
M  V30 5 1 5 6
M  V30 6 2 6 7
M  V30 7 1 7 8
M  V30 8 2 8 9
M  V30 9 1 9 10
M  V30 10 1 10 11
M  V30 11 1 11 12
M  V30 12 2 12 13
M  V30 13 1 12 14
M  V30 14 1 14 15
M  V30 15 2 15 16
M  V30 16 1 16 17
M  V30 17 1 17 18
M  V30 18 2 18 19
M  V30 19 1 19 20
M  V30 20 2 20 21
M  V30 21 1 21 22
M  V30 22 1 22 23
M  V30 23 2 22 24
M  V30 24 2 17 25
M  V30 25 1 25 26
M  V30 26 2 10 27
M  V30 27 1 27 6
M  V30 28 1 26 15
M  V30 29 1 24 18
M  V30 30 1 1 28
M  V30 31 1 1 29
M  V30 32 1 1 30
M  V30 33 1 5 31
M  V30 34 1 7 32
M  V30 35 1 8 33
M  V30 36 1 9 34
M  V30 37 1 11 35
M  V30 38 1 11 36
M  V30 39 1 14 37
M  V30 40 1 16 38
M  V30 41 1 19 39
M  V30 42 1 20 40
M  V30 43 1 24 41
M  V30 44 1 25 42
M  V30 45 1 27 43
M  V30 END BOND
M  V30 END CTAB
M  END
>  <Dataset>  (26) 
ChEMBL_PKA

>  <Ligand_Instance>  (26) 
nan

>  <PDB_ID>  (26) 
nan

>  <Standardized_SMILES>  (26) 
CS(=O)(=O)Nc1cccc(CC(=O)Nc2cc(-c3ccnc(F)c3)cs2)c1

>  <Name>  (26) 
nan

>  <Pocket>  (26) 
nan

>  <ATP_Site>  (26) 
nan

>  <Peripheral>  (26) 
nan

>  <Num_H_Atoms_ProtBoundConf>  (26) 
nan

>  <Num_Resolved_Atoms>  (26) 
nan

>  <Num_Not_Resolved_Atoms>  (26) 
nan

>  <2D_Mol_H>  (26) 
<rdkit.Chem.rdchem.Mol object at 0x72a239102c00>

>  <MW>  (26) 
405.476

>  <HBA>  (26) 
5

>  <HBD>  (26) 
2

>  <LogP>  (26) 
3.5019

>  <NRB>  (26) 
7

>  <TPSA>  (26) 
88.16

>  <Num_Heavy_Atoms>  (26) 
27

>  <Ro5>  (26) 
[True, True, True, True, True, True]

>  <Ro5_Fulfilled>  (26) 
True

>  <Ro3>  (26) 
[False, False, True, False]

>  <Ro3_Fulfilled>  (26) 
False

>  <Fsp3>  (26) 
0.111111

>  <Fsp3_0.42>  (26) 
False

>  <Fsp3_0.45>  (26) 
False

>  <Stereogenic_Carbons>  (26) 
0

>  <C_Atoms>  (26) 
18

>  <FCStereo>  (26) 
0.0

>  <SPS>  (26) 
302

>  <nSPS>  (26) 
11.185185

>  <PBF>  (26) 
1.211995

>  <PBF_0.6>  (26) 
True

>  <nPBF>  (26) 
0.044889

>  <nPBF_0.016>  (26) 
True

>  <PMI1>  (26) 
1869.689446

>  <PMI2>  (26) 
8690.365898

>  <PMI3>  (26) 
8820.890393

>  <NPR1>  (26) 
0.211962

>  <NPR2>  (26) 
0.985203

>  <Sum_NPR>  (26) 
1.197164

>  <Sum_NPR_1.07>  (26) 
True

>  <Sum_NPR_1.2>  (26) 
False

>  <MaxAbsEStateIndex>  (26) 
13.227343

>  <MaxEStateIndex>  (26) 
13.227343

>  <MinAbsEStateIndex>  (26) 
0.093651

>  <MinEStateIndex>  (26) 
-3.377678

>  <qed>  (26) 
0.614584

>  <MolWt>  (26) 
405.476

>  <HeavyAtomMolWt>  (26) 
389.348

>  <ExactMolWt>  (26) 
405.061712

>  <NumValenceElectrons>  (26) 
140

>  <NumRadicalElectrons>  (26) 
0

>  <MaxPartialCharge>  (26) 
0.229319

>  <MinPartialCharge>  (26) 
-0.317404

>  <MaxAbsPartialCharge>  (26) 
0.317404

>  <MinAbsPartialCharge>  (26) 
0.229319

>  <FpDensityMorgan1>  (26) 
1.185185

>  <FpDensityMorgan2>  (26) 
2.0

>  <FpDensityMorgan3>  (26) 
2.740741

>  <BCUT2D_MWHI>  (26) 
32.233118

>  <BCUT2D_MWLOW>  (26) 
10.117267

>  <BCUT2D_CHGHI>  (26) 
2.093588

>  <BCUT2D_CHGLO>  (26) 
-2.066671

>  <BCUT2D_LOGPHI>  (26) 
2.287909

>  <BCUT2D_LOGPLOW>  (26) 
-2.138995

>  <BCUT2D_MRHI>  (26) 
7.915211

>  <BCUT2D_MRLOW>  (26) 
-0.115099

>  <AvgIpc>  (26) 
3.015976

>  <BalabanJ>  (26) 
1.656441

>  <BertzCT>  (26) 
1080.71572

>  <Chi0>  (26) 
19.440947

>  <Chi0n>  (26) 
14.269679

>  <Chi0v>  (26) 
15.902672

>  <Chi1>  (26) 
12.781808

>  <Chi1n>  (26) 
7.854302

>  <Chi1v>  (26) 
10.625367

>  <Chi2n>  (26) 
5.866431

>  <Chi2v>  (26) 
8.526117

>  <Chi3n>  (26) 
3.516885

>  <Chi3v>  (26) 
4.96901

>  <Chi4n>  (26) 
2.46105

>  <Chi4v>  (26) 
3.841997

>  <HallKierAlpha>  (26) 
-2.78

>  <Ipc>  (26) 
1108660.572554

>  <Kappa1>  (26) 
18.994733

>  <Kappa2>  (26) 
7.84818

>  <Kappa3>  (26) 
5.597363

>  <LabuteASA>  (26) 
159.687987

>  <PEOE_VSA1>  (26) 
5.316789

>  <PEOE_VSA10>  (26) 
0.0

>  <PEOE_VSA11>  (26) 
0.0

>  <PEOE_VSA12>  (26) 
21.878168

>  <PEOE_VSA13>  (26) 
0.0

>  <PEOE_VSA14>  (26) 
0.0

>  <PEOE_VSA2>  (26) 
9.516632

>  <PEOE_VSA3>  (26) 
13.401776

>  <PEOE_VSA4>  (26) 
4.390415

>  <PEOE_VSA5>  (26) 
11.336786

>  <PEOE_VSA6>  (26) 
12.132734

>  <PEOE_VSA7>  (26) 
40.955823

>  <PEOE_VSA8>  (26) 
23.33066

>  <PEOE_VSA9>  (26) 
17.677673

>  <SMR_VSA1>  (26) 
17.602749

>  <SMR_VSA10>  (26) 
37.955725

>  <SMR_VSA2>  (26) 
0.0

>  <SMR_VSA3>  (26) 
4.983979

>  <SMR_VSA4>  (26) 
0.0

>  <SMR_VSA5>  (26) 
6.420822

>  <SMR_VSA6>  (26) 
16.294653

>  <SMR_VSA7>  (26) 
65.552625

>  <SMR_VSA8>  (26) 
0.0

>  <SMR_VSA9>  (26) 
11.126903

>  <SlogP_VSA1>  (26) 
10.038883

>  <SlogP_VSA10>  (26) 
15.078883

>  <SlogP_VSA11>  (26) 
0.0

>  <SlogP_VSA12>  (26) 
11.336786

>  <SlogP_VSA2>  (26) 
25.564724

>  <SlogP_VSA3>  (26) 
21.23865

>  <SlogP_VSA4>  (26) 
5.947697

>  <SlogP_VSA5>  (26) 
5.563451

>  <SlogP_VSA6>  (26) 
54.041476

>  <SlogP_VSA7>  (26) 
0.0

>  <SlogP_VSA8>  (26) 
11.126903

>  <SlogP_VSA9>  (26) 
0.0

>  <EState_VSA1>  (26) 
15.970988

>  <EState_VSA10>  (26) 
17.602749

>  <EState_VSA11>  (26) 
0.0

>  <EState_VSA2>  (26) 
12.328001

>  <EState_VSA3>  (26) 
21.815371

>  <EState_VSA4>  (26) 
11.819221

>  <EState_VSA5>  (26) 
23.599997

>  <EState_VSA6>  (26) 
36.398202

>  <EState_VSA7>  (26) 
5.380063

>  <EState_VSA8>  (26) 
15.022862

>  <EState_VSA9>  (26) 
0.0

>  <VSA_EState1>  (26) 
38.20323

>  <VSA_EState10>  (26) 
1.333695

>  <VSA_EState2>  (26) 
15.785975

>  <VSA_EState3>  (26) 
5.251611

>  <VSA_EState4>  (26) 
2.546118

>  <VSA_EState5>  (26) 
-0.79844

>  <VSA_EState6>  (26) 
11.426581

>  <VSA_EState7>  (26) 
2.545575

>  <VSA_EState8>  (26) 
0.0

>  <VSA_EState9>  (26) 
-3.377678

>  <FractionCSP3>  (26) 
0.111111

>  <HeavyAtomCount>  (26) 
27

>  <NHOHCount>  (26) 
2

>  <NOCount>  (26) 
6

>  <NumAliphaticCarbocycles>  (26) 
0

>  <NumAliphaticHeterocycles>  (26) 
0

>  <NumAliphaticRings>  (26) 
0

>  <NumAromaticCarbocycles>  (26) 
1

>  <NumAromaticHeterocycles>  (26) 
2

>  <NumAromaticRings>  (26) 
3

>  <NumHAcceptors>  (26) 
5

>  <NumHDonors>  (26) 
2

>  <NumHeteroatoms>  (26) 
9

>  <NumRotatableBonds>  (26) 
6

>  <NumSaturatedCarbocycles>  (26) 
0

>  <NumSaturatedHeterocycles>  (26) 
0

>  <NumSaturatedRings>  (26) 
0

>  <RingCount>  (26) 
3

>  <MolLogP>  (26) 
3.5019

>  <MolMR>  (26) 
104.7502

>  <fr_Al_COO>  (26) 
0

>  <fr_Al_OH>  (26) 
0

>  <fr_Al_OH_noTert>  (26) 
0

>  <fr_ArN>  (26) 
0

>  <fr_Ar_COO>  (26) 
0

>  <fr_Ar_N>  (26) 
1

>  <fr_Ar_NH>  (26) 
0

>  <fr_Ar_OH>  (26) 
0

>  <fr_COO>  (26) 
0

>  <fr_COO2>  (26) 
0

>  <fr_C_O>  (26) 
1

>  <fr_C_O_noCOO>  (26) 
1

>  <fr_C_S>  (26) 
0

>  <fr_HOCCN>  (26) 
0

>  <fr_Imine>  (26) 
0

>  <fr_NH0>  (26) 
1

>  <fr_NH1>  (26) 
2

>  <fr_NH2>  (26) 
0

>  <fr_N_O>  (26) 
0

>  <fr_Ndealkylation1>  (26) 
0

>  <fr_Ndealkylation2>  (26) 
0

>  <fr_Nhpyrrole>  (26) 
0

>  <fr_SH>  (26) 
0

>  <fr_aldehyde>  (26) 
0

>  <fr_alkyl_carbamate>  (26) 
0

>  <fr_alkyl_halide>  (26) 
0

>  <fr_allylic_oxid>  (26) 
0

>  <fr_amide>  (26) 
1

>  <fr_amidine>  (26) 
0

>  <fr_aniline>  (26) 
2

>  <fr_aryl_methyl>  (26) 
0

>  <fr_azide>  (26) 
0

>  <fr_azo>  (26) 
0

>  <fr_barbitur>  (26) 
0

>  <fr_benzene>  (26) 
1

>  <fr_benzodiazepine>  (26) 
0

>  <fr_bicyclic>  (26) 
0

>  <fr_diazo>  (26) 
0

>  <fr_dihydropyridine>  (26) 
0

>  <fr_epoxide>  (26) 
0

>  <fr_ester>  (26) 
0

>  <fr_ether>  (26) 
0

>  <fr_furan>  (26) 
0

>  <fr_guanido>  (26) 
0

>  <fr_halogen>  (26) 
1

>  <fr_hdrzine>  (26) 
0

>  <fr_hdrzone>  (26) 
0

>  <fr_imidazole>  (26) 
0

>  <fr_imide>  (26) 
0

>  <fr_isocyan>  (26) 
0

>  <fr_isothiocyan>  (26) 
0

>  <fr_ketone>  (26) 
0

>  <fr_ketone_Topliss>  (26) 
0

>  <fr_lactam>  (26) 
0

>  <fr_lactone>  (26) 
0

>  <fr_methoxy>  (26) 
0

>  <fr_morpholine>  (26) 
0

>  <fr_nitrile>  (26) 
0

>  <fr_nitro>  (26) 
0

>  <fr_nitro_arom>  (26) 
0

>  <fr_nitro_arom_nonortho>  (26) 
0

>  <fr_nitroso>  (26) 
0

>  <fr_oxazole>  (26) 
0

>  <fr_oxime>  (26) 
0

>  <fr_para_hydroxylation>  (26) 
0

>  <fr_phenol>  (26) 
0

>  <fr_phenol_noOrthoHbond>  (26) 
0

>  <fr_phos_acid>  (26) 
0

>  <fr_phos_ester>  (26) 
0

>  <fr_piperdine>  (26) 
0

>  <fr_piperzine>  (26) 
0

>  <fr_priamide>  (26) 
0

>  <fr_prisulfonamd>  (26) 
0

>  <fr_pyridine>  (26) 
1

>  <fr_quatN>  (26) 
0

>  <fr_sulfide>  (26) 
0

>  <fr_sulfonamd>  (26) 
1

>  <fr_sulfone>  (26) 
0

>  <fr_term_acetylene>  (26) 
0

>  <fr_tetrazole>  (26) 
0

>  <fr_thiazole>  (26) 
0

>  <fr_thiocyan>  (26) 
0

>  <fr_thiophene>  (26) 
1

>  <fr_unbrch_alkane>  (26) 
0

>  <fr_urea>  (26) 
0

>  <NP_Likeness>  (26) 
-1.659927

$$$$
CHEMBL3581116
     RDKit          3D

  0  0  0  0  0  0  0  0  0  0999 V3000
M  V30 BEGIN CTAB
M  V30 COUNTS 34 36 0 0 0
M  V30 BEGIN ATOM
M  V30 1 O 1.289248 -1.150264 0.666589 0
M  V30 2 C 1.240257 -0.826089 1.899807 0
M  V30 3 C 1.775050 -1.900588 2.779860 0
M  V30 4 C 2.207102 -3.037521 1.925156 0
M  V30 5 C 1.411139 -4.096624 1.542906 0
M  V30 6 C 1.890781 -5.116699 0.744305 0
M  V30 7 C 3.211635 -5.076720 0.312917 0
M  V30 8 C 4.047239 -4.021060 0.679339 0
M  V30 9 C 3.529133 -3.016672 1.481491 0
M  V30 10 N 0.752071 0.387481 2.450935 0
M  V30 11 C 0.280587 1.280165 1.357591 0
M  V30 12 N -0.753644 1.342495 0.907347 0
M  V30 13 C -1.220079 2.121322 -0.067102 0
M  V30 14 C -2.570025 2.148786 -0.599415 0
M  V30 15 C -3.560702 1.322618 -0.120433 0
M  V30 16 C -4.850412 1.330252 -0.609889 0
M  V30 17 N -5.174445 2.178308 -1.602309 0
M  V30 18 C -4.258785 3.015533 -2.120662 0
M  V30 19 C -2.978554 2.984920 -1.611135 0
M  V30 20 C -0.210707 3.012704 -0.606124 0
M  V30 21 S 1.302180 2.556357 0.427727 0
M  V30 22 H 2.580339 -1.546469 3.445027 0
M  V30 23 H 0.919257 -2.247178 3.422293 0
M  V30 24 H 0.387971 -4.066570 1.914929 0
M  V30 25 H 1.178696 -5.892260 0.509013 0
M  V30 26 H 3.554314 -5.891159 -0.310783 0
M  V30 27 H 5.061133 -4.023034 0.327938 0
M  V30 28 H 4.219306 -2.224469 1.734672 0
M  V30 29 H 0.779927 0.499832 3.476190 0
M  V30 30 H -3.311662 0.625043 0.689358 0
M  V30 31 H -5.566369 0.640716 -0.168714 0
M  V30 32 H -4.522336 3.696038 -2.918332 0
M  V30 33 H -2.281130 3.674965 -2.059751 0
M  V30 34 H -0.360121 3.772356 -1.442496 0
M  V30 END ATOM
M  V30 BEGIN BOND
M  V30 1 2 1 2
M  V30 2 1 2 3
M  V30 3 1 3 4
M  V30 4 2 4 5
M  V30 5 1 5 6
M  V30 6 2 6 7
M  V30 7 1 7 8
M  V30 8 2 8 9
M  V30 9 1 2 10
M  V30 10 1 10 11
M  V30 11 2 11 12
M  V30 12 1 12 13
M  V30 13 1 13 14
M  V30 14 2 14 15
M  V30 15 1 15 16
M  V30 16 2 16 17
M  V30 17 1 17 18
M  V30 18 2 18 19
M  V30 19 2 13 20
M  V30 20 1 20 21
M  V30 21 1 9 4
M  V30 22 1 21 11
M  V30 23 1 19 14
M  V30 24 1 3 22
M  V30 25 1 3 23
M  V30 26 1 5 24
M  V30 27 1 6 25
M  V30 28 1 7 26
M  V30 29 1 8 27
M  V30 30 1 9 28
M  V30 31 1 10 29
M  V30 32 1 15 30
M  V30 33 1 16 31
M  V30 34 1 18 32
M  V30 35 1 19 33
M  V30 36 1 20 34
M  V30 END BOND
M  V30 END CTAB
M  END
>  <Dataset>  (27) 
ChEMBL_PKA

>  <Ligand_Instance>  (27) 
nan

>  <PDB_ID>  (27) 
nan

>  <Standardized_SMILES>  (27) 
O=C(Cc1ccccc1)Nc1nc(-c2ccncc2)cs1

>  <Name>  (27) 
nan

>  <Pocket>  (27) 
nan

>  <ATP_Site>  (27) 
nan

>  <Peripheral>  (27) 
nan

>  <Num_H_Atoms_ProtBoundConf>  (27) 
nan

>  <Num_Resolved_Atoms>  (27) 
nan

>  <Num_Not_Resolved_Atoms>  (27) 
nan

>  <2D_Mol_H>  (27) 
<rdkit.Chem.rdchem.Mol object at 0x72a239102ce0>

>  <MW>  (27) 
295.367

>  <HBA>  (27) 
4

>  <HBD>  (27) 
1

>  <LogP>  (27) 
3.3863

>  <NRB>  (27) 
4

>  <TPSA>  (27) 
54.88

>  <Num_Heavy_Atoms>  (27) 
21

>  <Ro5>  (27) 
[True, True, True, True, True, True]

>  <Ro5_Fulfilled>  (27) 
True

>  <Ro3>  (27) 
[True, False, True, False]

>  <Ro3_Fulfilled>  (27) 
False

>  <Fsp3>  (27) 
0.0625

>  <Fsp3_0.42>  (27) 
False

>  <Fsp3_0.45>  (27) 
False

>  <Stereogenic_Carbons>  (27) 
0

>  <C_Atoms>  (27) 
16

>  <FCStereo>  (27) 
0.0

>  <SPS>  (27) 
216

>  <nSPS>  (27) 
10.285714

>  <PBF>  (27) 
1.042265

>  <PBF_0.6>  (27) 
True

>  <nPBF>  (27) 
0.049632

>  <nPBF_0.016>  (27) 
True

>  <PMI1>  (27) 
930.695651

>  <PMI2>  (27) 
4183.522656

>  <PMI3>  (27) 
4668.802446

>  <NPR1>  (27) 
0.199344

>  <NPR2>  (27) 
0.896059

>  <Sum_NPR>  (27) 
1.095403

>  <Sum_NPR_1.07>  (27) 
True

>  <Sum_NPR_1.2>  (27) 
False

>  <MaxAbsEStateIndex>  (27) 
11.973184

>  <MaxEStateIndex>  (27) 
11.973184

>  <MinAbsEStateIndex>  (27) 
0.058492

>  <MinEStateIndex>  (27) 
-0.058492

>  <qed>  (27) 
0.802426

>  <MolWt>  (27) 
295.367

>  <HeavyAtomMolWt>  (27) 
282.263

>  <ExactMolWt>  (27) 
295.077933

>  <NumValenceElectrons>  (27) 
104

>  <NumRadicalElectrons>  (27) 
0

>  <MaxPartialCharge>  (27) 
0.230075

>  <MinPartialCharge>  (27) 
-0.301672

>  <MaxAbsPartialCharge>  (27) 
0.301672

>  <MinAbsPartialCharge>  (27) 
0.230075

>  <FpDensityMorgan1>  (27) 
1.095238

>  <FpDensityMorgan2>  (27) 
1.857143

>  <FpDensityMorgan3>  (27) 
2.619048

>  <BCUT2D_MWHI>  (27) 
32.13349

>  <BCUT2D_MWLOW>  (27) 
10.142309

>  <BCUT2D_CHGHI>  (27) 
2.080771

>  <BCUT2D_CHGLO>  (27) 
-2.012309

>  <BCUT2D_LOGPHI>  (27) 
2.237827

>  <BCUT2D_LOGPLOW>  (27) 
-2.135758

>  <BCUT2D_MRHI>  (27) 
7.137565

>  <BCUT2D_MRLOW>  (27) 
-0.115118

>  <AvgIpc>  (27) 
2.973095

>  <BalabanJ>  (27) 
1.660468

>  <BertzCT>  (27) 
725.547607

>  <Chi0>  (27) 
14.493353

>  <Chi0n>  (27) 
11.191533

>  <Chi0v>  (27) 
12.00803

>  <Chi1>  (27) 
10.309663

>  <Chi1n>  (27) 
6.508044

>  <Chi1v>  (27) 
7.387697

>  <Chi2n>  (27) 
4.484339

>  <Chi2v>  (27) 
5.342442

>  <Chi3n>  (27) 
2.934127

>  <Chi3v>  (27) 
3.691848

>  <Chi4n>  (27) 
1.931133

>  <Chi4v>  (27) 
2.666995

>  <HallKierAlpha>  (27) 
-2.53

>  <Ipc>  (27) 
118971.385932

>  <Kappa1>  (27) 
13.452934

>  <Kappa2>  (27) 
6.280045

>  <Kappa3>  (27) 
3.518771

>  <LabuteASA>  (27) 
126.066519

>  <PEOE_VSA1>  (27) 
5.316789

>  <PEOE_VSA10>  (27) 
0.0

>  <PEOE_VSA11>  (27) 
5.131558

>  <PEOE_VSA12>  (27) 
5.90718

>  <PEOE_VSA13>  (27) 
0.0

>  <PEOE_VSA14>  (27) 
0.0

>  <PEOE_VSA2>  (27) 
9.778516

>  <PEOE_VSA3>  (27) 
4.983979

>  <PEOE_VSA4>  (27) 
0.0

>  <PEOE_VSA5>  (27) 
11.336786

>  <PEOE_VSA6>  (27) 
30.331835

>  <PEOE_VSA7>  (27) 
17.696186

>  <PEOE_VSA8>  (27) 
23.337201

>  <PEOE_VSA9>  (27) 
12.11475

>  <SMR_VSA1>  (27) 
4.794537

>  <SMR_VSA10>  (27) 
22.375524

>  <SMR_VSA2>  (27) 
0.0

>  <SMR_VSA3>  (27) 
9.967957

>  <SMR_VSA4>  (27) 
0.0

>  <SMR_VSA5>  (27) 
6.420822

>  <SMR_VSA6>  (27) 
5.316789

>  <SMR_VSA7>  (27) 
65.801771

>  <SMR_VSA8>  (27) 
0.0

>  <SMR_VSA9>  (27) 
11.257379

>  <SlogP_VSA1>  (27) 
5.316789

>  <SlogP_VSA10>  (27) 
5.131558

>  <SlogP_VSA11>  (27) 
0.0

>  <SlogP_VSA12>  (27) 
11.336786

>  <SlogP_VSA2>  (27) 
15.875137

>  <SlogP_VSA3>  (27) 
11.215359

>  <SlogP_VSA4>  (27) 
0.0

>  <SlogP_VSA5>  (27) 
5.563451

>  <SlogP_VSA6>  (27) 
60.238319

>  <SlogP_VSA7>  (27) 
0.0

>  <SlogP_VSA8>  (27) 
11.257379

>  <SlogP_VSA9>  (27) 
0.0

>  <EState_VSA1>  (27) 
0.0

>  <EState_VSA10>  (27) 
4.794537

>  <EState_VSA11>  (27) 
0.0

>  <EState_VSA2>  (27) 
5.90718

>  <EState_VSA3>  (27) 
11.55238

>  <EState_VSA4>  (27) 
16.820831

>  <EState_VSA5>  (27) 
11.336786

>  <EState_VSA6>  (27) 
12.393687

>  <EState_VSA7>  (27) 
47.844632

>  <EState_VSA8>  (27) 
15.284746

>  <EState_VSA9>  (27) 
0.0

>  <VSA_EState1>  (27) 
0.0

>  <VSA_EState10>  (27) 
1.419807

>  <VSA_EState2>  (27) 
20.372882

>  <VSA_EState3>  (27) 
5.371124

>  <VSA_EState4>  (27) 
2.822345

>  <VSA_EState5>  (27) 
-0.058492

>  <VSA_EState6>  (27) 
13.437725

>  <VSA_EState7>  (27) 
3.801275

>  <VSA_EState8>  (27) 
0.0

>  <VSA_EState9>  (27) 
0.0

>  <FractionCSP3>  (27) 
0.0625

>  <HeavyAtomCount>  (27) 
21

>  <NHOHCount>  (27) 
1

>  <NOCount>  (27) 
4

>  <NumAliphaticCarbocycles>  (27) 
0

>  <NumAliphaticHeterocycles>  (27) 
0

>  <NumAliphaticRings>  (27) 
0

>  <NumAromaticCarbocycles>  (27) 
1

>  <NumAromaticHeterocycles>  (27) 
2

>  <NumAromaticRings>  (27) 
3

>  <NumHAcceptors>  (27) 
4

>  <NumHDonors>  (27) 
1

>  <NumHeteroatoms>  (27) 
5

>  <NumRotatableBonds>  (27) 
4

>  <NumSaturatedCarbocycles>  (27) 
0

>  <NumSaturatedHeterocycles>  (27) 
0

>  <NumSaturatedRings>  (27) 
0

>  <RingCount>  (27) 
3

>  <MolLogP>  (27) 
3.3863

>  <MolMR>  (27) 
84.1207

>  <fr_Al_COO>  (27) 
0

>  <fr_Al_OH>  (27) 
0

>  <fr_Al_OH_noTert>  (27) 
0

>  <fr_ArN>  (27) 
0

>  <fr_Ar_COO>  (27) 
0

>  <fr_Ar_N>  (27) 
2

>  <fr_Ar_NH>  (27) 
0

>  <fr_Ar_OH>  (27) 
0

>  <fr_COO>  (27) 
0

>  <fr_COO2>  (27) 
0

>  <fr_C_O>  (27) 
1

>  <fr_C_O_noCOO>  (27) 
1

>  <fr_C_S>  (27) 
0

>  <fr_HOCCN>  (27) 
0

>  <fr_Imine>  (27) 
0

>  <fr_NH0>  (27) 
2

>  <fr_NH1>  (27) 
1

>  <fr_NH2>  (27) 
0

>  <fr_N_O>  (27) 
0

>  <fr_Ndealkylation1>  (27) 
0

>  <fr_Ndealkylation2>  (27) 
0

>  <fr_Nhpyrrole>  (27) 
0

>  <fr_SH>  (27) 
0

>  <fr_aldehyde>  (27) 
0

>  <fr_alkyl_carbamate>  (27) 
0

>  <fr_alkyl_halide>  (27) 
0

>  <fr_allylic_oxid>  (27) 
0

>  <fr_amide>  (27) 
1

>  <fr_amidine>  (27) 
0

>  <fr_aniline>  (27) 
1

>  <fr_aryl_methyl>  (27) 
0

>  <fr_azide>  (27) 
0

>  <fr_azo>  (27) 
0

>  <fr_barbitur>  (27) 
0

>  <fr_benzene>  (27) 
1

>  <fr_benzodiazepine>  (27) 
0

>  <fr_bicyclic>  (27) 
0

>  <fr_diazo>  (27) 
0

>  <fr_dihydropyridine>  (27) 
0

>  <fr_epoxide>  (27) 
0

>  <fr_ester>  (27) 
0

>  <fr_ether>  (27) 
0

>  <fr_furan>  (27) 
0

>  <fr_guanido>  (27) 
0

>  <fr_halogen>  (27) 
0

>  <fr_hdrzine>  (27) 
0

>  <fr_hdrzone>  (27) 
0

>  <fr_imidazole>  (27) 
0

>  <fr_imide>  (27) 
0

>  <fr_isocyan>  (27) 
0

>  <fr_isothiocyan>  (27) 
0

>  <fr_ketone>  (27) 
0

>  <fr_ketone_Topliss>  (27) 
0

>  <fr_lactam>  (27) 
0

>  <fr_lactone>  (27) 
0

>  <fr_methoxy>  (27) 
0

>  <fr_morpholine>  (27) 
0

>  <fr_nitrile>  (27) 
0

>  <fr_nitro>  (27) 
0

>  <fr_nitro_arom>  (27) 
0

>  <fr_nitro_arom_nonortho>  (27) 
0

>  <fr_nitroso>  (27) 
0

>  <fr_oxazole>  (27) 
0

>  <fr_oxime>  (27) 
0

>  <fr_para_hydroxylation>  (27) 
0

>  <fr_phenol>  (27) 
0

>  <fr_phenol_noOrthoHbond>  (27) 
0

>  <fr_phos_acid>  (27) 
0

>  <fr_phos_ester>  (27) 
0

>  <fr_piperdine>  (27) 
0

>  <fr_piperzine>  (27) 
0

>  <fr_priamide>  (27) 
0

>  <fr_prisulfonamd>  (27) 
0

>  <fr_pyridine>  (27) 
1

>  <fr_quatN>  (27) 
0

>  <fr_sulfide>  (27) 
0

>  <fr_sulfonamd>  (27) 
0

>  <fr_sulfone>  (27) 
0

>  <fr_term_acetylene>  (27) 
0

>  <fr_tetrazole>  (27) 
0

>  <fr_thiazole>  (27) 
1

>  <fr_thiocyan>  (27) 
0

>  <fr_thiophene>  (27) 
0

>  <fr_unbrch_alkane>  (27) 
0

>  <fr_urea>  (27) 
0

>  <NP_Likeness>  (27) 
-2.098747

$$$$
CHEMBL3581117
     RDKit          3D

  0  0  0  0  0  0  0  0  0  0999 V3000
M  V30 BEGIN CTAB
M  V30 COUNTS 34 36 0 0 0
M  V30 BEGIN ATOM
M  V30 1 O 0.258146 -1.938968 1.183284 0
M  V30 2 C 1.004757 -1.345879 2.036653 0
M  V30 3 C 2.161427 -2.173164 2.474398 0
M  V30 4 C 2.036883 -3.458589 1.723315 0
M  V30 5 C 1.582801 -4.681297 2.216834 0
M  V30 6 C 1.534057 -5.765952 1.367279 0
M  V30 7 C 1.908236 -5.726755 0.044264 0
M  V30 8 C 2.359732 -4.514994 -0.450024 0
M  V30 9 C 2.414493 -3.417030 0.389902 0
M  V30 10 F 2.868763 -2.265744 -0.167272 0
M  V30 11 N 0.745785 -0.036607 2.507576 0
M  V30 12 C -0.451747 0.659026 1.976811 0
M  V30 13 N -0.613164 1.354293 1.038681 0
M  V30 14 C -1.793926 1.894913 0.724282 0
M  V30 15 C -1.915219 2.743288 -0.457681 0
M  V30 16 C -0.877091 3.057284 -1.324750 0
M  V30 17 C -1.036932 3.858265 -2.429958 0
M  V30 18 N -2.223129 4.399486 -2.751418 0
M  V30 19 C -3.266676 4.134310 -1.953014 0
M  V30 20 C -3.115628 3.332134 -0.842965 0
M  V30 21 C -2.899739 1.643110 1.523442 0
M  V30 22 S -2.119798 0.518056 2.836941 0
M  V30 23 H 2.158180 -2.330669 3.562316 0
M  V30 24 H 3.096266 -1.668265 2.109911 0
M  V30 25 H 1.303431 -4.665950 3.246176 0
M  V30 26 H 1.171402 -6.717961 1.782385 0
M  V30 27 H 1.824610 -6.653401 -0.527245 0
M  V30 28 H 2.650212 -4.496043 -1.488230 0
M  V30 29 H 1.380904 0.389659 3.191640 0
M  V30 30 H 0.098606 2.616073 -1.064017 0
M  V30 31 H -0.119428 4.015291 -3.019545 0
M  V30 32 H -4.242757 4.552496 -2.179526 0
M  V30 33 H -4.006585 3.160277 -0.239613 0
M  V30 34 H -3.878478 1.985825 1.417410 0
M  V30 END ATOM
M  V30 BEGIN BOND
M  V30 1 2 1 2
M  V30 2 1 2 3
M  V30 3 1 3 4
M  V30 4 2 4 5
M  V30 5 1 5 6
M  V30 6 2 6 7
M  V30 7 1 7 8
M  V30 8 2 8 9
M  V30 9 1 9 10
M  V30 10 1 2 11
M  V30 11 1 11 12
M  V30 12 2 12 13
M  V30 13 1 13 14
M  V30 14 1 14 15
M  V30 15 2 15 16
M  V30 16 1 16 17
M  V30 17 2 17 18
M  V30 18 1 18 19
M  V30 19 2 19 20
M  V30 20 2 14 21
M  V30 21 1 21 22
M  V30 22 1 9 4
M  V30 23 1 22 12
M  V30 24 1 20 15
M  V30 25 1 3 23
M  V30 26 1 3 24
M  V30 27 1 5 25
M  V30 28 1 6 26
M  V30 29 1 7 27
M  V30 30 1 8 28
M  V30 31 1 11 29
M  V30 32 1 16 30
M  V30 33 1 17 31
M  V30 34 1 19 32
M  V30 35 1 20 33
M  V30 36 1 21 34
M  V30 END BOND
M  V30 END CTAB
M  END
>  <Dataset>  (28) 
ChEMBL_PKA

>  <Ligand_Instance>  (28) 
nan

>  <PDB_ID>  (28) 
nan

>  <Standardized_SMILES>  (28) 
O=C(Cc1ccccc1F)Nc1nc(-c2ccncc2)cs1

>  <Name>  (28) 
nan

>  <Pocket>  (28) 
nan

>  <ATP_Site>  (28) 
nan

>  <Peripheral>  (28) 
nan

>  <Num_H_Atoms_ProtBoundConf>  (28) 
nan

>  <Num_Resolved_Atoms>  (28) 
nan

>  <Num_Not_Resolved_Atoms>  (28) 
nan

>  <2D_Mol_H>  (28) 
<rdkit.Chem.rdchem.Mol object at 0x72a239102dc0>

>  <MW>  (28) 
313.357

>  <HBA>  (28) 
4

>  <HBD>  (28) 
1

>  <LogP>  (28) 
3.5254

>  <NRB>  (28) 
4

>  <TPSA>  (28) 
54.88

>  <Num_Heavy_Atoms>  (28) 
22

>  <Ro5>  (28) 
[True, True, True, True, True, True]

>  <Ro5_Fulfilled>  (28) 
True

>  <Ro3>  (28) 
[False, False, True, False]

>  <Ro3_Fulfilled>  (28) 
False

>  <Fsp3>  (28) 
0.0625

>  <Fsp3_0.42>  (28) 
False

>  <Fsp3_0.45>  (28) 
False

>  <Stereogenic_Carbons>  (28) 
0

>  <C_Atoms>  (28) 
16

>  <FCStereo>  (28) 
0.0

>  <SPS>  (28) 
229

>  <nSPS>  (28) 
10.409091

>  <PBF>  (28) 
1.000941

>  <PBF_0.6>  (28) 
True

>  <nPBF>  (28) 
0.045497

>  <nPBF_0.016>  (28) 
True

>  <PMI1>  (28) 
999.142948

>  <PMI2>  (28) 
4474.62043

>  <PMI3>  (28) 
5018.727193

>  <NPR1>  (28) 
0.199083

>  <NPR2>  (28) 
0.891585

>  <Sum_NPR>  (28) 
1.090668

>  <Sum_NPR_1.07>  (28) 
True

>  <Sum_NPR_1.2>  (28) 
False

>  <MaxAbsEStateIndex>  (28) 
13.515263

>  <MaxEStateIndex>  (28) 
13.515263

>  <MinAbsEStateIndex>  (28) 
0.01702

>  <MinEStateIndex>  (28) 
-0.380312

>  <qed>  (28) 
0.801494

>  <MolWt>  (28) 
313.357

>  <HeavyAtomMolWt>  (28) 
301.261

>  <ExactMolWt>  (28) 
313.068511

>  <NumValenceElectrons>  (28) 
110

>  <NumRadicalElectrons>  (28) 
0

>  <MaxPartialCharge>  (28) 
0.230185

>  <MinPartialCharge>  (28) 
-0.301671

>  <MaxAbsPartialCharge>  (28) 
0.301671

>  <MinAbsPartialCharge>  (28) 
0.230185

>  <FpDensityMorgan1>  (28) 
1.181818

>  <FpDensityMorgan2>  (28) 
1.954545

>  <FpDensityMorgan3>  (28) 
2.727273

>  <BCUT2D_MWHI>  (28) 
32.13349

>  <BCUT2D_MWLOW>  (28) 
10.128386

>  <BCUT2D_CHGHI>  (28) 
2.103922

>  <BCUT2D_CHGLO>  (28) 
-2.026922

>  <BCUT2D_LOGPHI>  (28) 
2.239247

>  <BCUT2D_LOGPLOW>  (28) 
-2.14529

>  <BCUT2D_MRHI>  (28) 
7.137567

>  <BCUT2D_MRLOW>  (28) 
-0.115166

>  <AvgIpc>  (28) 
2.987609

>  <BalabanJ>  (28) 
1.678018

>  <BertzCT>  (28) 
788.84972

>  <Chi0>  (28) 
15.363597

>  <Chi0n>  (28) 
11.492147

>  <Chi0v>  (28) 
12.308644

>  <Chi1>  (28) 
10.720347

>  <Chi1n>  (28) 
6.613693

>  <Chi1v>  (28) 
7.493346

>  <Chi2n>  (28) 
4.59015

>  <Chi2v>  (28) 
5.448253

>  <Chi3n>  (28) 
3.035467

>  <Chi3v>  (28) 
3.793188

>  <Chi4n>  (28) 
1.964612

>  <Chi4v>  (28) 
2.700473

>  <HallKierAlpha>  (28) 
-2.6

>  <Ipc>  (28) 
173460.56351

>  <Kappa1>  (28) 
14.342004

>  <Kappa2>  (28) 
6.444981

>  <Kappa3>  (28) 
3.345752

>  <LabuteASA>  (28) 
130.232055

>  <PEOE_VSA1>  (28) 
5.316789

>  <PEOE_VSA10>  (28) 
5.817221

>  <PEOE_VSA11>  (28) 
5.131558

>  <PEOE_VSA12>  (28) 
5.90718

>  <PEOE_VSA13>  (28) 
0.0

>  <PEOE_VSA14>  (28) 
0.0

>  <PEOE_VSA2>  (28) 
9.778516

>  <PEOE_VSA3>  (28) 
9.374394

>  <PEOE_VSA4>  (28) 
0.0

>  <PEOE_VSA5>  (28) 
11.336786

>  <PEOE_VSA6>  (28) 
18.199101

>  <PEOE_VSA7>  (28) 
23.762553

>  <PEOE_VSA8>  (28) 
23.337201

>  <PEOE_VSA9>  (28) 
12.11475

>  <SMR_VSA1>  (28) 
9.184952

>  <SMR_VSA10>  (28) 
22.375524

>  <SMR_VSA2>  (28) 
0.0

>  <SMR_VSA3>  (28) 
9.967957

>  <SMR_VSA4>  (28) 
0.0

>  <SMR_VSA5>  (28) 
6.420822

>  <SMR_VSA6>  (28) 
5.316789

>  <SMR_VSA7>  (28) 
65.552625

>  <SMR_VSA8>  (28) 
0.0

>  <SMR_VSA9>  (28) 
11.257379

>  <SlogP_VSA1>  (28) 
5.316789

>  <SlogP_VSA10>  (28) 
9.521974

>  <SlogP_VSA11>  (28) 
0.0

>  <SlogP_VSA12>  (28) 
11.336786

>  <SlogP_VSA2>  (28) 
15.875137

>  <SlogP_VSA3>  (28) 
11.215359

>  <SlogP_VSA4>  (28) 
5.817221

>  <SlogP_VSA5>  (28) 
5.563451

>  <SlogP_VSA6>  (28) 
54.171952

>  <SlogP_VSA7>  (28) 
0.0

>  <SlogP_VSA8>  (28) 
11.257379

>  <SlogP_VSA9>  (28) 
0.0

>  <EState_VSA1>  (28) 
0.0

>  <EState_VSA10>  (28) 
9.184952

>  <EState_VSA11>  (28) 
0.0

>  <EState_VSA2>  (28) 
18.145222

>  <EState_VSA3>  (28) 
10.69501

>  <EState_VSA4>  (28) 
11.257379

>  <EState_VSA5>  (28) 
17.403153

>  <EState_VSA6>  (28) 
30.592788

>  <EState_VSA7>  (28) 
17.512797

>  <EState_VSA8>  (28) 
15.284746

>  <EState_VSA9>  (28) 
0.0

>  <VSA_EState1>  (28) 
13.515263

>  <VSA_EState10>  (28) 
1.330256

>  <VSA_EState2>  (28) 
20.259845

>  <VSA_EState3>  (28) 
5.042821

>  <VSA_EState4>  (28) 
2.069776

>  <VSA_EState5>  (28) 
-0.671304

>  <VSA_EState6>  (28) 
9.932438

>  <VSA_EState7>  (28) 
3.354239

>  <VSA_EState8>  (28) 
0.0

>  <VSA_EState9>  (28) 
0.0

>  <FractionCSP3>  (28) 
0.0625

>  <HeavyAtomCount>  (28) 
22

>  <NHOHCount>  (28) 
1

>  <NOCount>  (28) 
4

>  <NumAliphaticCarbocycles>  (28) 
0

>  <NumAliphaticHeterocycles>  (28) 
0

>  <NumAliphaticRings>  (28) 
0

>  <NumAromaticCarbocycles>  (28) 
1

>  <NumAromaticHeterocycles>  (28) 
2

>  <NumAromaticRings>  (28) 
3

>  <NumHAcceptors>  (28) 
4

>  <NumHDonors>  (28) 
1

>  <NumHeteroatoms>  (28) 
6

>  <NumRotatableBonds>  (28) 
4

>  <NumSaturatedCarbocycles>  (28) 
0

>  <NumSaturatedHeterocycles>  (28) 
0

>  <NumSaturatedRings>  (28) 
0

>  <RingCount>  (28) 
3

>  <MolLogP>  (28) 
3.5254

>  <MolMR>  (28) 
84.0787

>  <fr_Al_COO>  (28) 
0

>  <fr_Al_OH>  (28) 
0

>  <fr_Al_OH_noTert>  (28) 
0

>  <fr_ArN>  (28) 
0

>  <fr_Ar_COO>  (28) 
0

>  <fr_Ar_N>  (28) 
2

>  <fr_Ar_NH>  (28) 
0

>  <fr_Ar_OH>  (28) 
0

>  <fr_COO>  (28) 
0

>  <fr_COO2>  (28) 
0

>  <fr_C_O>  (28) 
1

>  <fr_C_O_noCOO>  (28) 
1

>  <fr_C_S>  (28) 
0

>  <fr_HOCCN>  (28) 
0

>  <fr_Imine>  (28) 
0

>  <fr_NH0>  (28) 
2

>  <fr_NH1>  (28) 
1

>  <fr_NH2>  (28) 
0

>  <fr_N_O>  (28) 
0

>  <fr_Ndealkylation1>  (28) 
0

>  <fr_Ndealkylation2>  (28) 
0

>  <fr_Nhpyrrole>  (28) 
0

>  <fr_SH>  (28) 
0

>  <fr_aldehyde>  (28) 
0

>  <fr_alkyl_carbamate>  (28) 
0

>  <fr_alkyl_halide>  (28) 
0

>  <fr_allylic_oxid>  (28) 
0

>  <fr_amide>  (28) 
1

>  <fr_amidine>  (28) 
0

>  <fr_aniline>  (28) 
1

>  <fr_aryl_methyl>  (28) 
0

>  <fr_azide>  (28) 
0

>  <fr_azo>  (28) 
0

>  <fr_barbitur>  (28) 
0

>  <fr_benzene>  (28) 
1

>  <fr_benzodiazepine>  (28) 
0

>  <fr_bicyclic>  (28) 
0

>  <fr_diazo>  (28) 
0

>  <fr_dihydropyridine>  (28) 
0

>  <fr_epoxide>  (28) 
0

>  <fr_ester>  (28) 
0

>  <fr_ether>  (28) 
0

>  <fr_furan>  (28) 
0

>  <fr_guanido>  (28) 
0

>  <fr_halogen>  (28) 
1

>  <fr_hdrzine>  (28) 
0

>  <fr_hdrzone>  (28) 
0

>  <fr_imidazole>  (28) 
0

>  <fr_imide>  (28) 
0

>  <fr_isocyan>  (28) 
0

>  <fr_isothiocyan>  (28) 
0

>  <fr_ketone>  (28) 
0

>  <fr_ketone_Topliss>  (28) 
0

>  <fr_lactam>  (28) 
0

>  <fr_lactone>  (28) 
0

>  <fr_methoxy>  (28) 
0

>  <fr_morpholine>  (28) 
0

>  <fr_nitrile>  (28) 
0

>  <fr_nitro>  (28) 
0

>  <fr_nitro_arom>  (28) 
0

>  <fr_nitro_arom_nonortho>  (28) 
0

>  <fr_nitroso>  (28) 
0

>  <fr_oxazole>  (28) 
0

>  <fr_oxime>  (28) 
0

>  <fr_para_hydroxylation>  (28) 
0

>  <fr_phenol>  (28) 
0

>  <fr_phenol_noOrthoHbond>  (28) 
0

>  <fr_phos_acid>  (28) 
0

>  <fr_phos_ester>  (28) 
0

>  <fr_piperdine>  (28) 
0

>  <fr_piperzine>  (28) 
0

>  <fr_priamide>  (28) 
0

>  <fr_prisulfonamd>  (28) 
0

>  <fr_pyridine>  (28) 
1

>  <fr_quatN>  (28) 
0

>  <fr_sulfide>  (28) 
0

>  <fr_sulfonamd>  (28) 
0

>  <fr_sulfone>  (28) 
0

>  <fr_term_acetylene>  (28) 
0

>  <fr_tetrazole>  (28) 
0

>  <fr_thiazole>  (28) 
1

>  <fr_thiocyan>  (28) 
0

>  <fr_thiophene>  (28) 
0

>  <fr_unbrch_alkane>  (28) 
0

>  <fr_urea>  (28) 
0

>  <NP_Likeness>  (28) 
-2.535047

$$$$
CHEMBL3581118
     RDKit          3D

  0  0  0  0  0  0  0  0  0  0999 V3000
M  V30 BEGIN CTAB
M  V30 COUNTS 34 36 0 0 0
M  V30 BEGIN ATOM
M  V30 1 O 0.069732 -1.942038 0.957425 0
M  V30 2 C 0.953861 -1.383979 1.669959 0
M  V30 3 C 2.290618 -2.001313 1.818043 0
M  V30 4 C 2.416739 -3.267982 1.063486 0
M  V30 5 C 2.089685 -4.487408 1.659042 0
M  V30 6 C 2.181054 -5.717939 1.017850 0
M  V30 7 C 2.626148 -5.714718 -0.293183 0
M  V30 8 C 2.947642 -4.512782 -0.877634 0
M  V30 9 F 3.379649 -4.580316 -2.171463 0
M  V30 10 C 2.863072 -3.280076 -0.255828 0
M  V30 11 N 0.761813 -0.159889 2.370779 0
M  V30 12 C -0.610280 0.436035 2.194783 0
M  V30 13 N -0.874543 1.242972 1.263887 0
M  V30 14 C -2.084683 1.749228 1.133722 0
M  V30 15 C -2.337814 2.688330 0.026714 0
M  V30 16 C -1.396371 3.086962 -0.899037 0
M  V30 17 C -1.683266 3.968153 -1.916282 0
M  V30 18 N -2.919469 4.481580 -2.044357 0
M  V30 19 C -3.889449 4.139224 -1.179134 0
M  V30 20 C -3.578368 3.255546 -0.169179 0
M  V30 21 C -3.057223 1.382754 2.031303 0
M  V30 22 S -2.038328 0.200534 3.120589 0
M  V30 23 H 2.416635 -2.247699 2.898133 0
M  V30 24 H 3.085838 -1.301906 1.499440 0
M  V30 25 H 1.748142 -4.423064 2.685257 0
M  V30 26 H 1.897871 -6.586630 1.590075 0
M  V30 27 H 2.694319 -6.659947 -0.779775 0
M  V30 28 H 3.125025 -2.366664 -0.751961 0
M  V30 29 H 1.503982 0.280681 2.951174 0
M  V30 30 H -0.383738 2.666174 -0.793848 0
M  V30 31 H -0.852511 4.205551 -2.584986 0
M  V30 32 H -4.865565 4.555262 -1.294042 0
M  V30 33 H -4.398039 3.022392 0.489204 0
M  V30 34 H -4.083786 1.729485 2.028087 0
M  V30 END ATOM
M  V30 BEGIN BOND
M  V30 1 2 1 2
M  V30 2 1 2 3
M  V30 3 1 3 4
M  V30 4 2 4 5
M  V30 5 1 5 6
M  V30 6 2 6 7
M  V30 7 1 7 8
M  V30 8 1 8 9
M  V30 9 2 8 10
M  V30 10 1 2 11
M  V30 11 1 11 12
M  V30 12 2 12 13
M  V30 13 1 13 14
M  V30 14 1 14 15
M  V30 15 2 15 16
M  V30 16 1 16 17
M  V30 17 2 17 18
M  V30 18 1 18 19
M  V30 19 2 19 20
M  V30 20 2 14 21
M  V30 21 1 21 22
M  V30 22 1 10 4
M  V30 23 1 22 12
M  V30 24 1 20 15
M  V30 25 1 3 23
M  V30 26 1 3 24
M  V30 27 1 5 25
M  V30 28 1 6 26
M  V30 29 1 7 27
M  V30 30 1 10 28
M  V30 31 1 11 29
M  V30 32 1 16 30
M  V30 33 1 17 31
M  V30 34 1 19 32
M  V30 35 1 20 33
M  V30 36 1 21 34
M  V30 END BOND
M  V30 END CTAB
M  END
>  <Dataset>  (29) 
ChEMBL_PKA

>  <Ligand_Instance>  (29) 
nan

>  <PDB_ID>  (29) 
nan

>  <Standardized_SMILES>  (29) 
O=C(Cc1cccc(F)c1)Nc1nc(-c2ccncc2)cs1

>  <Name>  (29) 
nan

>  <Pocket>  (29) 
nan

>  <ATP_Site>  (29) 
nan

>  <Peripheral>  (29) 
nan

>  <Num_H_Atoms_ProtBoundConf>  (29) 
nan

>  <Num_Resolved_Atoms>  (29) 
nan

>  <Num_Not_Resolved_Atoms>  (29) 
nan

>  <2D_Mol_H>  (29) 
<rdkit.Chem.rdchem.Mol object at 0x72a239102ea0>

>  <MW>  (29) 
313.357

>  <HBA>  (29) 
4

>  <HBD>  (29) 
1

>  <LogP>  (29) 
3.5254

>  <NRB>  (29) 
4

>  <TPSA>  (29) 
54.88

>  <Num_Heavy_Atoms>  (29) 
22

>  <Ro5>  (29) 
[True, True, True, True, True, True]

>  <Ro5_Fulfilled>  (29) 
True

>  <Ro3>  (29) 
[False, False, True, False]

>  <Ro3_Fulfilled>  (29) 
False

>  <Fsp3>  (29) 
0.0625

>  <Fsp3_0.42>  (29) 
False

>  <Fsp3_0.45>  (29) 
False

>  <Stereogenic_Carbons>  (29) 
0

>  <C_Atoms>  (29) 
16

>  <FCStereo>  (29) 
0.0

>  <SPS>  (29) 
229

>  <nSPS>  (29) 
10.409091

>  <PBF>  (29) 
0.910396

>  <PBF_0.6>  (29) 
True

>  <nPBF>  (29) 
0.041382

>  <nPBF_0.016>  (29) 
True

>  <PMI1>  (29) 
1061.331649

>  <PMI2>  (29) 
4954.189669

>  <PMI3>  (29) 
5673.845045

>  <NPR1>  (29) 
0.187057

>  <NPR2>  (29) 
0.873163

>  <Sum_NPR>  (29) 
1.06022

>  <Sum_NPR_1.07>  (29) 
False

>  <Sum_NPR_1.2>  (29) 
False

>  <MaxAbsEStateIndex>  (29) 
13.088422

>  <MaxEStateIndex>  (29) 
13.088422

>  <MinAbsEStateIndex>  (29) 
0.113026

>  <MinEStateIndex>  (29) 
-0.347665

>  <qed>  (29) 
0.801494

>  <MolWt>  (29) 
313.357

>  <HeavyAtomMolWt>  (29) 
301.261

>  <ExactMolWt>  (29) 
313.068511

>  <NumValenceElectrons>  (29) 
110

>  <NumRadicalElectrons>  (29) 
0

>  <MaxPartialCharge>  (29) 
0.230077

>  <MinPartialCharge>  (29) 
-0.301672

>  <MaxAbsPartialCharge>  (29) 
0.301672

>  <MinAbsPartialCharge>  (29) 
0.230077

>  <FpDensityMorgan1>  (29) 
1.227273

>  <FpDensityMorgan2>  (29) 
2.045455

>  <FpDensityMorgan3>  (29) 
2.818182

>  <BCUT2D_MWHI>  (29) 
32.13349

>  <BCUT2D_MWLOW>  (29) 
10.135225

>  <BCUT2D_CHGHI>  (29) 
2.087907

>  <BCUT2D_CHGLO>  (29) 
-2.018426

>  <BCUT2D_LOGPHI>  (29) 
2.238449

>  <BCUT2D_LOGPLOW>  (29) 
-2.137904

>  <BCUT2D_MRHI>  (29) 
7.137566

>  <BCUT2D_MRLOW>  (29) 
-0.115119

>  <AvgIpc>  (29) 
2.962541

>  <BalabanJ>  (29) 
1.662022

>  <BertzCT>  (29) 
788.84972

>  <Chi0>  (29) 
15.363597

>  <Chi0n>  (29) 
11.492147

>  <Chi0v>  (29) 
12.308644

>  <Chi1>  (29) 
10.70351

>  <Chi1n>  (29) 
6.60771

>  <Chi1v>  (29) 
7.487363

>  <Chi2n>  (29) 
4.628661

>  <Chi2v>  (29) 
5.486764

>  <Chi3n>  (29) 
2.980331

>  <Chi3v>  (29) 
3.738052

>  <Chi4n>  (29) 
1.982199

>  <Chi4v>  (29) 
2.718061

>  <HallKierAlpha>  (29) 
-2.6

>  <Ipc>  (29) 
165297.921115

>  <Kappa1>  (29) 
14.342004

>  <Kappa2>  (29) 
6.444981

>  <Kappa3>  (29) 
3.53211

>  <LabuteASA>  (29) 
130.232055

>  <PEOE_VSA1>  (29) 
5.316789

>  <PEOE_VSA10>  (29) 
5.817221

>  <PEOE_VSA11>  (29) 
5.131558

>  <PEOE_VSA12>  (29) 
5.90718

>  <PEOE_VSA13>  (29) 
0.0

>  <PEOE_VSA14>  (29) 
0.0

>  <PEOE_VSA2>  (29) 
9.778516

>  <PEOE_VSA3>  (29) 
9.374394

>  <PEOE_VSA4>  (29) 
0.0

>  <PEOE_VSA5>  (29) 
11.336786

>  <PEOE_VSA6>  (29) 
12.132734

>  <PEOE_VSA7>  (29) 
29.82892

>  <PEOE_VSA8>  (29) 
23.337201

>  <PEOE_VSA9>  (29) 
12.11475

>  <SMR_VSA1>  (29) 
9.184952

>  <SMR_VSA10>  (29) 
22.375524

>  <SMR_VSA2>  (29) 
0.0

>  <SMR_VSA3>  (29) 
9.967957

>  <SMR_VSA4>  (29) 
0.0

>  <SMR_VSA5>  (29) 
6.420822

>  <SMR_VSA6>  (29) 
5.316789

>  <SMR_VSA7>  (29) 
65.552625

>  <SMR_VSA8>  (29) 
0.0

>  <SMR_VSA9>  (29) 
11.257379

>  <SlogP_VSA1>  (29) 
5.316789

>  <SlogP_VSA10>  (29) 
9.521974

>  <SlogP_VSA11>  (29) 
0.0

>  <SlogP_VSA12>  (29) 
11.336786

>  <SlogP_VSA2>  (29) 
15.875137

>  <SlogP_VSA3>  (29) 
11.215359

>  <SlogP_VSA4>  (29) 
5.817221

>  <SlogP_VSA5>  (29) 
5.563451

>  <SlogP_VSA6>  (29) 
54.171952

>  <SlogP_VSA7>  (29) 
0.0

>  <SlogP_VSA8>  (29) 
11.257379

>  <SlogP_VSA9>  (29) 
0.0

>  <EState_VSA1>  (29) 
0.0

>  <EState_VSA10>  (29) 
9.184952

>  <EState_VSA11>  (29) 
0.0

>  <EState_VSA2>  (29) 
18.145222

>  <EState_VSA3>  (29) 
10.69501

>  <EState_VSA4>  (29) 
11.257379

>  <EState_VSA5>  (29) 
23.46952

>  <EState_VSA6>  (29) 
24.526421

>  <EState_VSA7>  (29) 
17.512797

>  <EState_VSA8>  (29) 
15.284746

>  <EState_VSA9>  (29) 
0.0

>  <VSA_EState1>  (29) 
13.088422

>  <VSA_EState10>  (29) 
1.348884

>  <VSA_EState2>  (29) 
20.281675

>  <VSA_EState3>  (29) 
5.120098

>  <VSA_EState4>  (29) 
2.355323

>  <VSA_EState5>  (29) 
-0.56875

>  <VSA_EState6>  (29) 
9.711949

>  <VSA_EState7>  (29) 
3.495732

>  <VSA_EState8>  (29) 
0.0

>  <VSA_EState9>  (29) 
0.0

>  <FractionCSP3>  (29) 
0.0625

>  <HeavyAtomCount>  (29) 
22

>  <NHOHCount>  (29) 
1

>  <NOCount>  (29) 
4

>  <NumAliphaticCarbocycles>  (29) 
0

>  <NumAliphaticHeterocycles>  (29) 
0

>  <NumAliphaticRings>  (29) 
0

>  <NumAromaticCarbocycles>  (29) 
1

>  <NumAromaticHeterocycles>  (29) 
2

>  <NumAromaticRings>  (29) 
3

>  <NumHAcceptors>  (29) 
4

>  <NumHDonors>  (29) 
1

>  <NumHeteroatoms>  (29) 
6

>  <NumRotatableBonds>  (29) 
4

>  <NumSaturatedCarbocycles>  (29) 
0

>  <NumSaturatedHeterocycles>  (29) 
0

>  <NumSaturatedRings>  (29) 
0

>  <RingCount>  (29) 
3

>  <MolLogP>  (29) 
3.5254

>  <MolMR>  (29) 
84.0787

>  <fr_Al_COO>  (29) 
0

>  <fr_Al_OH>  (29) 
0

>  <fr_Al_OH_noTert>  (29) 
0

>  <fr_ArN>  (29) 
0

>  <fr_Ar_COO>  (29) 
0

>  <fr_Ar_N>  (29) 
2

>  <fr_Ar_NH>  (29) 
0

>  <fr_Ar_OH>  (29) 
0

>  <fr_COO>  (29) 
0

>  <fr_COO2>  (29) 
0

>  <fr_C_O>  (29) 
1

>  <fr_C_O_noCOO>  (29) 
1

>  <fr_C_S>  (29) 
0

>  <fr_HOCCN>  (29) 
0

>  <fr_Imine>  (29) 
0

>  <fr_NH0>  (29) 
2

>  <fr_NH1>  (29) 
1

>  <fr_NH2>  (29) 
0

>  <fr_N_O>  (29) 
0

>  <fr_Ndealkylation1>  (29) 
0

>  <fr_Ndealkylation2>  (29) 
0

>  <fr_Nhpyrrole>  (29) 
0

>  <fr_SH>  (29) 
0

>  <fr_aldehyde>  (29) 
0

>  <fr_alkyl_carbamate>  (29) 
0

>  <fr_alkyl_halide>  (29) 
0

>  <fr_allylic_oxid>  (29) 
0

>  <fr_amide>  (29) 
1

>  <fr_amidine>  (29) 
0

>  <fr_aniline>  (29) 
1

>  <fr_aryl_methyl>  (29) 
0

>  <fr_azide>  (29) 
0

>  <fr_azo>  (29) 
0

>  <fr_barbitur>  (29) 
0

>  <fr_benzene>  (29) 
1

>  <fr_benzodiazepine>  (29) 
0

>  <fr_bicyclic>  (29) 
0

>  <fr_diazo>  (29) 
0

>  <fr_dihydropyridine>  (29) 
0

>  <fr_epoxide>  (29) 
0

>  <fr_ester>  (29) 
0

>  <fr_ether>  (29) 
0

>  <fr_furan>  (29) 
0

>  <fr_guanido>  (29) 
0

>  <fr_halogen>  (29) 
1

>  <fr_hdrzine>  (29) 
0

>  <fr_hdrzone>  (29) 
0

>  <fr_imidazole>  (29) 
0

>  <fr_imide>  (29) 
0

>  <fr_isocyan>  (29) 
0

>  <fr_isothiocyan>  (29) 
0

>  <fr_ketone>  (29) 
0

>  <fr_ketone_Topliss>  (29) 
0

>  <fr_lactam>  (29) 
0

>  <fr_lactone>  (29) 
0

>  <fr_methoxy>  (29) 
0

>  <fr_morpholine>  (29) 
0

>  <fr_nitrile>  (29) 
0

>  <fr_nitro>  (29) 
0

>  <fr_nitro_arom>  (29) 
0

>  <fr_nitro_arom_nonortho>  (29) 
0

>  <fr_nitroso>  (29) 
0

>  <fr_oxazole>  (29) 
0

>  <fr_oxime>  (29) 
0

>  <fr_para_hydroxylation>  (29) 
0

>  <fr_phenol>  (29) 
0

>  <fr_phenol_noOrthoHbond>  (29) 
0

>  <fr_phos_acid>  (29) 
0

>  <fr_phos_ester>  (29) 
0

>  <fr_piperdine>  (29) 
0

>  <fr_piperzine>  (29) 
0

>  <fr_priamide>  (29) 
0

>  <fr_prisulfonamd>  (29) 
0

>  <fr_pyridine>  (29) 
1

>  <fr_quatN>  (29) 
0

>  <fr_sulfide>  (29) 
0

>  <fr_sulfonamd>  (29) 
0

>  <fr_sulfone>  (29) 
0

>  <fr_term_acetylene>  (29) 
0

>  <fr_tetrazole>  (29) 
0

>  <fr_thiazole>  (29) 
1

>  <fr_thiocyan>  (29) 
0

>  <fr_thiophene>  (29) 
0

>  <fr_unbrch_alkane>  (29) 
0

>  <fr_urea>  (29) 
0

>  <NP_Likeness>  (29) 
-2.521933

$$$$
CHEMBL3581119
     RDKit          3D

  0  0  0  0  0  0  0  0  0  0999 V3000
M  V30 BEGIN CTAB
M  V30 COUNTS 34 36 0 0 0
M  V30 BEGIN ATOM
M  V30 1 O -0.406165 -1.605971 2.453756 0
M  V30 2 C 0.831208 -1.512710 2.498009 0
M  V30 3 C 1.893428 -2.542690 2.443798 0
M  V30 4 C 1.976750 -3.216901 1.122261 0
M  V30 5 C 1.424415 -4.385363 0.676230 0
M  V30 6 C 1.645894 -4.822975 -0.619939 0
M  V30 7 C 2.438879 -4.074730 -1.496684 0
M  V30 8 F 2.626017 -4.543386 -2.753425 0
M  V30 9 C 3.002230 -2.878549 -1.036645 0
M  V30 10 C 2.769630 -2.467309 0.247351 0
M  V30 11 N 1.255721 -0.149681 2.620091 0
M  V30 12 C 0.023451 0.712106 2.658779 0
M  V30 13 N -0.500612 1.039987 1.702703 0
M  V30 14 C -1.536605 1.773413 1.424774 0
M  V30 15 C -2.174861 2.146790 0.168793 0
M  V30 16 C -1.615766 1.648426 -0.990026 0
M  V30 17 C -2.103166 1.910338 -2.252322 0
M  V30 18 N -3.181013 2.698428 -2.295358 0
M  V30 19 C -3.755150 3.204358 -1.177789 0
M  V30 20 C -3.280237 2.951595 0.094933 0
M  V30 21 C -2.111719 2.252685 2.654192 0
M  V30 22 S -0.988071 1.511552 3.987349 0
M  V30 23 H 1.617527 -3.378551 3.165558 0
M  V30 24 H 2.846289 -2.115940 2.768088 0
M  V30 25 H 0.827674 -4.886747 1.435461 0
M  V30 26 H 1.170506 -5.764505 -0.897021 0
M  V30 27 H 3.610387 -2.344485 -1.782768 0
M  V30 28 H 3.268109 -1.530618 0.443553 0
M  V30 29 H 2.251853 0.169855 2.670451 0
M  V30 30 H -0.726424 0.996513 -0.944616 0
M  V30 31 H -1.645306 1.500205 -3.165544 0
M  V30 32 H -4.639746 3.850283 -1.230431 0
M  V30 33 H -3.733321 3.347449 0.990269 0
M  V30 34 H -3.083411 2.963642 2.874415 0
M  V30 END ATOM
M  V30 BEGIN BOND
M  V30 1 2 1 2
M  V30 2 1 2 3
M  V30 3 1 3 4
M  V30 4 2 4 5
M  V30 5 1 5 6
M  V30 6 2 6 7
M  V30 7 1 7 8
M  V30 8 1 7 9
M  V30 9 2 9 10
M  V30 10 1 2 11
M  V30 11 1 11 12
M  V30 12 2 12 13
M  V30 13 1 13 14
M  V30 14 1 14 15
M  V30 15 2 15 16
M  V30 16 1 16 17
M  V30 17 2 17 18
M  V30 18 1 18 19
M  V30 19 2 19 20
M  V30 20 2 14 21
M  V30 21 1 21 22
M  V30 22 1 10 4
M  V30 23 1 22 12
M  V30 24 1 20 15
M  V30 25 1 3 23
M  V30 26 1 3 24
M  V30 27 1 5 25
M  V30 28 1 6 26
M  V30 29 1 9 27
M  V30 30 1 10 28
M  V30 31 1 11 29
M  V30 32 1 16 30
M  V30 33 1 17 31
M  V30 34 1 19 32
M  V30 35 1 20 33
M  V30 36 1 21 34
M  V30 END BOND
M  V30 END CTAB
M  END
>  <Dataset>  (30) 
ChEMBL_PKA

>  <Ligand_Instance>  (30) 
nan

>  <PDB_ID>  (30) 
nan

>  <Standardized_SMILES>  (30) 
O=C(Cc1ccc(F)cc1)Nc1nc(-c2ccncc2)cs1

>  <Name>  (30) 
nan

>  <Pocket>  (30) 
nan

>  <ATP_Site>  (30) 
nan

>  <Peripheral>  (30) 
nan

>  <Num_H_Atoms_ProtBoundConf>  (30) 
nan

>  <Num_Resolved_Atoms>  (30) 
nan

>  <Num_Not_Resolved_Atoms>  (30) 
nan

>  <2D_Mol_H>  (30) 
<rdkit.Chem.rdchem.Mol object at 0x72a239102f80>

>  <MW>  (30) 
313.357

>  <HBA>  (30) 
4

>  <HBD>  (30) 
1

>  <LogP>  (30) 
3.5254

>  <NRB>  (30) 
4

>  <TPSA>  (30) 
54.88

>  <Num_Heavy_Atoms>  (30) 
22

>  <Ro5>  (30) 
[True, True, True, True, True, True]

>  <Ro5_Fulfilled>  (30) 
True

>  <Ro3>  (30) 
[False, False, True, False]

>  <Ro3_Fulfilled>  (30) 
False

>  <Fsp3>  (30) 
0.0625

>  <Fsp3_0.42>  (30) 
False

>  <Fsp3_0.45>  (30) 
False

>  <Stereogenic_Carbons>  (30) 
0

>  <C_Atoms>  (30) 
16

>  <FCStereo>  (30) 
0.0

>  <SPS>  (30) 
229

>  <nSPS>  (30) 
10.409091

>  <PBF>  (30) 
0.725027

>  <PBF_0.6>  (30) 
True

>  <nPBF>  (30) 
0.032956

>  <nPBF_0.016>  (30) 
True

>  <PMI1>  (30) 
1464.128944

>  <PMI2>  (30) 
3652.014957

>  <PMI3>  (30) 
4844.079449

>  <NPR1>  (30) 
0.302251

>  <NPR2>  (30) 
0.753913

>  <Sum_NPR>  (30) 
1.056164

>  <Sum_NPR_1.07>  (30) 
False

>  <Sum_NPR_1.2>  (30) 
False

>  <MaxAbsEStateIndex>  (30) 
12.821588

>  <MaxEStateIndex>  (30) 
12.821588

>  <MinAbsEStateIndex>  (30) 
0.178485

>  <MinEStateIndex>  (30) 
-0.31382

>  <qed>  (30) 
0.801494

>  <MolWt>  (30) 
313.357

>  <HeavyAtomMolWt>  (30) 
301.261

>  <ExactMolWt>  (30) 
313.068511

>  <NumValenceElectrons>  (30) 
110

>  <NumRadicalElectrons>  (30) 
0

>  <MaxPartialCharge>  (30) 
0.230075

>  <MinPartialCharge>  (30) 
-0.301672

>  <MaxAbsPartialCharge>  (30) 
0.301672

>  <MinAbsPartialCharge>  (30) 
0.230075

>  <FpDensityMorgan1>  (30) 
1.136364

>  <FpDensityMorgan2>  (30) 
1.863636

>  <FpDensityMorgan3>  (30) 
2.590909

>  <BCUT2D_MWHI>  (30) 
32.13349

>  <BCUT2D_MWLOW>  (30) 
10.136858

>  <BCUT2D_CHGHI>  (30) 
2.085149

>  <BCUT2D_CHGLO>  (30) 
-2.016859

>  <BCUT2D_LOGPHI>  (30) 
2.238291

>  <BCUT2D_LOGPLOW>  (30) 
-2.136862

>  <BCUT2D_MRHI>  (30) 
7.137566

>  <BCUT2D_MRLOW>  (30) 
-0.11512

>  <AvgIpc>  (30) 
2.987377

>  <BalabanJ>  (30) 
1.647214

>  <BertzCT>  (30) 
771.59972

>  <Chi0>  (30) 
15.363597

>  <Chi0n>  (30) 
11.492147

>  <Chi0v>  (30) 
12.308644

>  <Chi1>  (30) 
10.70351

>  <Chi1n>  (30) 
6.60771

>  <Chi1v>  (30) 
7.487363

>  <Chi2n>  (30) 
4.625207

>  <Chi2v>  (30) 
5.483309

>  <Chi3n>  (30) 
3.00456

>  <Chi3v>  (30) 
3.762281

>  <Chi4n>  (30) 
1.937529

>  <Chi4v>  (30) 
2.673391

>  <HallKierAlpha>  (30) 
-2.6

>  <Ipc>  (30) 
170065.387788

>  <Kappa1>  (30) 
14.342004

>  <Kappa2>  (30) 
6.444981

>  <Kappa3>  (30) 
3.53211

>  <LabuteASA>  (30) 
130.232055

>  <PEOE_VSA1>  (30) 
5.316789

>  <PEOE_VSA10>  (30) 
5.817221

>  <PEOE_VSA11>  (30) 
5.131558

>  <PEOE_VSA12>  (30) 
5.90718

>  <PEOE_VSA13>  (30) 
0.0

>  <PEOE_VSA14>  (30) 
0.0

>  <PEOE_VSA2>  (30) 
9.778516

>  <PEOE_VSA3>  (30) 
9.374394

>  <PEOE_VSA4>  (30) 
0.0

>  <PEOE_VSA5>  (30) 
11.336786

>  <PEOE_VSA6>  (30) 
12.132734

>  <PEOE_VSA7>  (30) 
29.82892

>  <PEOE_VSA8>  (30) 
23.337201

>  <PEOE_VSA9>  (30) 
12.11475

>  <SMR_VSA1>  (30) 
9.184952

>  <SMR_VSA10>  (30) 
22.375524

>  <SMR_VSA2>  (30) 
0.0

>  <SMR_VSA3>  (30) 
9.967957

>  <SMR_VSA4>  (30) 
0.0

>  <SMR_VSA5>  (30) 
6.420822

>  <SMR_VSA6>  (30) 
5.316789

>  <SMR_VSA7>  (30) 
65.552625

>  <SMR_VSA8>  (30) 
0.0

>  <SMR_VSA9>  (30) 
11.257379

>  <SlogP_VSA1>  (30) 
5.316789

>  <SlogP_VSA10>  (30) 
9.521974

>  <SlogP_VSA11>  (30) 
0.0

>  <SlogP_VSA12>  (30) 
11.336786

>  <SlogP_VSA2>  (30) 
15.875137

>  <SlogP_VSA3>  (30) 
11.215359

>  <SlogP_VSA4>  (30) 
5.817221

>  <SlogP_VSA5>  (30) 
5.563451

>  <SlogP_VSA6>  (30) 
54.171952

>  <SlogP_VSA7>  (30) 
0.0

>  <SlogP_VSA8>  (30) 
11.257379

>  <SlogP_VSA9>  (30) 
0.0

>  <EState_VSA1>  (30) 
0.0

>  <EState_VSA10>  (30) 
9.184952

>  <EState_VSA11>  (30) 
0.0

>  <EState_VSA2>  (30) 
18.145222

>  <EState_VSA3>  (30) 
5.131558

>  <EState_VSA4>  (30) 
16.820831

>  <EState_VSA5>  (30) 
23.46952

>  <EState_VSA6>  (30) 
24.526421

>  <EState_VSA7>  (30) 
17.512797

>  <EState_VSA8>  (30) 
15.284746

>  <EState_VSA9>  (30) 
0.0

>  <VSA_EState1>  (30) 
12.821588

>  <VSA_EState10>  (30) 
1.362256

>  <VSA_EState2>  (30) 
20.297654

>  <VSA_EState3>  (30) 
5.172755

>  <VSA_EState4>  (30) 
2.49961

>  <VSA_EState5>  (30) 
-0.492305

>  <VSA_EState6>  (30) 
9.595002

>  <VSA_EState7>  (30) 
3.576773

>  <VSA_EState8>  (30) 
0.0

>  <VSA_EState9>  (30) 
0.0

>  <FractionCSP3>  (30) 
0.0625

>  <HeavyAtomCount>  (30) 
22

>  <NHOHCount>  (30) 
1

>  <NOCount>  (30) 
4

>  <NumAliphaticCarbocycles>  (30) 
0

>  <NumAliphaticHeterocycles>  (30) 
0

>  <NumAliphaticRings>  (30) 
0

>  <NumAromaticCarbocycles>  (30) 
1

>  <NumAromaticHeterocycles>  (30) 
2

>  <NumAromaticRings>  (30) 
3

>  <NumHAcceptors>  (30) 
4

>  <NumHDonors>  (30) 
1

>  <NumHeteroatoms>  (30) 
6

>  <NumRotatableBonds>  (30) 
4

>  <NumSaturatedCarbocycles>  (30) 
0

>  <NumSaturatedHeterocycles>  (30) 
0

>  <NumSaturatedRings>  (30) 
0

>  <RingCount>  (30) 
3

>  <MolLogP>  (30) 
3.5254

>  <MolMR>  (30) 
84.0787

>  <fr_Al_COO>  (30) 
0

>  <fr_Al_OH>  (30) 
0

>  <fr_Al_OH_noTert>  (30) 
0

>  <fr_ArN>  (30) 
0

>  <fr_Ar_COO>  (30) 
0

>  <fr_Ar_N>  (30) 
2

>  <fr_Ar_NH>  (30) 
0

>  <fr_Ar_OH>  (30) 
0

>  <fr_COO>  (30) 
0

>  <fr_COO2>  (30) 
0

>  <fr_C_O>  (30) 
1

>  <fr_C_O_noCOO>  (30) 
1

>  <fr_C_S>  (30) 
0

>  <fr_HOCCN>  (30) 
0

>  <fr_Imine>  (30) 
0

>  <fr_NH0>  (30) 
2

>  <fr_NH1>  (30) 
1

>  <fr_NH2>  (30) 
0

>  <fr_N_O>  (30) 
0

>  <fr_Ndealkylation1>  (30) 
0

>  <fr_Ndealkylation2>  (30) 
0

>  <fr_Nhpyrrole>  (30) 
0

>  <fr_SH>  (30) 
0

>  <fr_aldehyde>  (30) 
0

>  <fr_alkyl_carbamate>  (30) 
0

>  <fr_alkyl_halide>  (30) 
0

>  <fr_allylic_oxid>  (30) 
0

>  <fr_amide>  (30) 
1

>  <fr_amidine>  (30) 
0

>  <fr_aniline>  (30) 
1

>  <fr_aryl_methyl>  (30) 
0

>  <fr_azide>  (30) 
0

>  <fr_azo>  (30) 
0

>  <fr_barbitur>  (30) 
0

>  <fr_benzene>  (30) 
1

>  <fr_benzodiazepine>  (30) 
0

>  <fr_bicyclic>  (30) 
0

>  <fr_diazo>  (30) 
0

>  <fr_dihydropyridine>  (30) 
0

>  <fr_epoxide>  (30) 
0

>  <fr_ester>  (30) 
0

>  <fr_ether>  (30) 
0

>  <fr_furan>  (30) 
0

>  <fr_guanido>  (30) 
0

>  <fr_halogen>  (30) 
1

>  <fr_hdrzine>  (30) 
0

>  <fr_hdrzone>  (30) 
0

>  <fr_imidazole>  (30) 
0

>  <fr_imide>  (30) 
0

>  <fr_isocyan>  (30) 
0

>  <fr_isothiocyan>  (30) 
0

>  <fr_ketone>  (30) 
0

>  <fr_ketone_Topliss>  (30) 
0

>  <fr_lactam>  (30) 
0

>  <fr_lactone>  (30) 
0

>  <fr_methoxy>  (30) 
0

>  <fr_morpholine>  (30) 
0

>  <fr_nitrile>  (30) 
0

>  <fr_nitro>  (30) 
0

>  <fr_nitro_arom>  (30) 
0

>  <fr_nitro_arom_nonortho>  (30) 
0

>  <fr_nitroso>  (30) 
0

>  <fr_oxazole>  (30) 
0

>  <fr_oxime>  (30) 
0

>  <fr_para_hydroxylation>  (30) 
0

>  <fr_phenol>  (30) 
0

>  <fr_phenol_noOrthoHbond>  (30) 
0

>  <fr_phos_acid>  (30) 
0

>  <fr_phos_ester>  (30) 
0

>  <fr_piperdine>  (30) 
0

>  <fr_piperzine>  (30) 
0

>  <fr_priamide>  (30) 
0

>  <fr_prisulfonamd>  (30) 
0

>  <fr_pyridine>  (30) 
1

>  <fr_quatN>  (30) 
0

>  <fr_sulfide>  (30) 
0

>  <fr_sulfonamd>  (30) 
0

>  <fr_sulfone>  (30) 
0

>  <fr_term_acetylene>  (30) 
0

>  <fr_tetrazole>  (30) 
0

>  <fr_thiazole>  (30) 
1

>  <fr_thiocyan>  (30) 
0

>  <fr_thiophene>  (30) 
0

>  <fr_unbrch_alkane>  (30) 
0

>  <fr_urea>  (30) 
0

>  <NP_Likeness>  (30) 
-2.345851

$$$$
CHEMBL3581121
     RDKit          3D

  0  0  0  0  0  0  0  0  0  0999 V3000
M  V30 BEGIN CTAB
M  V30 COUNTS 38 40 0 0 0
M  V30 BEGIN ATOM
M  V30 1 C 1.852830 -6.204006 0.926989 0
M  V30 2 O 1.523286 -5.025481 0.197723 0
M  V30 3 C 2.377483 -3.933731 0.162531 0
M  V30 4 C 3.599598 -3.929818 0.835684 0
M  V30 5 C 4.351126 -2.782836 0.718136 0
M  V30 6 C 3.966916 -1.686208 -0.003292 0
M  V30 7 C 2.764962 -1.685788 -0.667320 0
M  V30 8 C 2.259977 -0.545517 -1.475727 0
M  V30 9 C 1.466067 0.353962 -0.596075 0
M  V30 10 O 1.399950 -0.036803 0.598331 0
M  V30 11 N 0.862567 1.532646 -1.119004 0
M  V30 12 C 0.152209 2.195111 0.010757 0
M  V30 13 N -0.954317 2.043117 0.365929 0
M  V30 14 C -1.582692 2.623956 1.359171 0
M  V30 15 C -2.972894 2.342527 1.697993 0
M  V30 16 C -3.615408 2.964891 2.747362 0
M  V30 17 C -4.923318 2.740082 3.113514 0
M  V30 18 N -5.663148 1.857721 2.424566 0
M  V30 19 C -5.082562 1.224731 1.392559 0
M  V30 20 C -3.773827 1.445934 1.021725 0
M  V30 21 C -0.825589 3.531881 2.069974 0
M  V30 22 S 0.836357 3.441368 1.158276 0
M  V30 23 C 1.977999 -2.833310 -0.569093 0
M  V30 24 H 1.908025 -6.005635 2.014262 0
M  V30 25 H 2.861545 -6.599003 0.641995 0
M  V30 26 H 1.052921 -6.940152 0.690116 0
M  V30 27 H 3.851534 -4.818479 1.387489 0
M  V30 28 H 5.302719 -2.801330 1.252282 0
M  V30 29 H 4.591115 -0.798472 -0.070778 0
M  V30 30 H 1.538928 -0.950981 -2.232838 0
M  V30 31 H 3.052372 -0.020928 -2.038663 0
M  V30 32 H 0.958594 1.796855 -2.123444 0
M  V30 33 H -3.102065 3.685605 3.354120 0
M  V30 34 H -5.385636 3.250063 3.942334 0
M  V30 35 H -5.675627 0.516146 0.838761 0
M  V30 36 H -3.341299 0.906643 0.172541 0
M  V30 37 H -1.163467 4.158449 2.976870 0
M  V30 38 H 1.027490 -2.834342 -1.093578 0
M  V30 END ATOM
M  V30 BEGIN BOND
M  V30 1 1 1 2
M  V30 2 1 2 3
M  V30 3 2 3 4
M  V30 4 1 4 5
M  V30 5 2 5 6
M  V30 6 1 6 7
M  V30 7 1 7 8
M  V30 8 1 8 9
M  V30 9 2 9 10
M  V30 10 1 9 11
M  V30 11 1 11 12
M  V30 12 2 12 13
M  V30 13 1 13 14
M  V30 14 1 14 15
M  V30 15 2 15 16
M  V30 16 1 16 17
M  V30 17 2 17 18
M  V30 18 1 18 19
M  V30 19 2 19 20
M  V30 20 2 14 21
M  V30 21 1 21 22
M  V30 22 2 7 23
M  V30 23 1 23 3
M  V30 24 1 22 12
M  V30 25 1 20 15
M  V30 26 1 1 24
M  V30 27 1 1 25
M  V30 28 1 1 26
M  V30 29 1 4 27
M  V30 30 1 5 28
M  V30 31 1 6 29
M  V30 32 1 8 30
M  V30 33 1 8 31
M  V30 34 1 11 32
M  V30 35 1 16 33
M  V30 36 1 17 34
M  V30 37 1 19 35
M  V30 38 1 20 36
M  V30 39 1 21 37
M  V30 40 1 23 38
M  V30 END BOND
M  V30 END CTAB
M  END
>  <Dataset>  (31) 
ChEMBL_PKA

>  <Ligand_Instance>  (31) 
nan

>  <PDB_ID>  (31) 
nan

>  <Standardized_SMILES>  (31) 
COc1cccc(CC(=O)Nc2nc(-c3ccncc3)cs2)c1

>  <Name>  (31) 
nan

>  <Pocket>  (31) 
nan

>  <ATP_Site>  (31) 
nan

>  <Peripheral>  (31) 
nan

>  <Num_H_Atoms_ProtBoundConf>  (31) 
nan

>  <Num_Resolved_Atoms>  (31) 
nan

>  <Num_Not_Resolved_Atoms>  (31) 
nan

>  <2D_Mol_H>  (31) 
<rdkit.Chem.rdchem.Mol object at 0x72a239103060>

>  <MW>  (31) 
325.393

>  <HBA>  (31) 
5

>  <HBD>  (31) 
1

>  <LogP>  (31) 
3.3949

>  <NRB>  (31) 
6

>  <TPSA>  (31) 
64.11

>  <Num_Heavy_Atoms>  (31) 
23

>  <Ro5>  (31) 
[True, True, True, True, True, True]

>  <Ro5_Fulfilled>  (31) 
True

>  <Ro3>  (31) 
[False, False, True, False]

>  <Ro3_Fulfilled>  (31) 
False

>  <Fsp3>  (31) 
0.117647

>  <Fsp3_0.42>  (31) 
False

>  <Fsp3_0.45>  (31) 
False

>  <Stereogenic_Carbons>  (31) 
0

>  <C_Atoms>  (31) 
17

>  <FCStereo>  (31) 
0.0

>  <SPS>  (31) 
237

>  <nSPS>  (31) 
10.304348

>  <PBF>  (31) 
1.010247

>  <PBF_0.6>  (31) 
True

>  <nPBF>  (31) 
0.043924

>  <nPBF_0.016>  (31) 
True

>  <PMI1>  (31) 
1373.207886

>  <PMI2>  (31) 
4859.771505

>  <PMI3>  (31) 
5768.789376

>  <NPR1>  (31) 
0.238041

>  <NPR2>  (31) 
0.842425

>  <Sum_NPR>  (31) 
1.080466

>  <Sum_NPR_1.07>  (31) 
True

>  <Sum_NPR_1.2>  (31) 
False

>  <MaxAbsEStateIndex>  (31) 
12.131997

>  <MaxEStateIndex>  (31) 
12.131997

>  <MinAbsEStateIndex>  (31) 
0.102888

>  <MinEStateIndex>  (31) 
-0.102888

>  <qed>  (31) 
0.780739

>  <MolWt>  (31) 
325.393

>  <HeavyAtomMolWt>  (31) 
310.273

>  <ExactMolWt>  (31) 
325.088498

>  <NumValenceElectrons>  (31) 
116

>  <NumRadicalElectrons>  (31) 
0

>  <MaxPartialCharge>  (31) 
0.230077

>  <MinPartialCharge>  (31) 
-0.496758

>  <MaxAbsPartialCharge>  (31) 
0.496758

>  <MinAbsPartialCharge>  (31) 
0.230077

>  <FpDensityMorgan1>  (31) 
1.26087

>  <FpDensityMorgan2>  (31) 
2.086957

>  <FpDensityMorgan3>  (31) 
2.869565

>  <BCUT2D_MWHI>  (31) 
32.133491

>  <BCUT2D_MWLOW>  (31) 
10.129808

>  <BCUT2D_CHGHI>  (31) 
2.089283

>  <BCUT2D_CHGLO>  (31) 
-2.041626

>  <BCUT2D_LOGPHI>  (31) 
2.240393

>  <BCUT2D_LOGPLOW>  (31) 
-2.137344

>  <BCUT2D_MRHI>  (31) 
7.137569

>  <BCUT2D_MRLOW>  (31) 
-0.115118

>  <AvgIpc>  (31) 
3.038737

>  <BalabanJ>  (31) 
1.650954

>  <BertzCT>  (31) 
802.36287

>  <Chi0>  (31) 
16.070703

>  <Chi0n>  (31) 
12.522431

>  <Chi0v>  (31) 
13.338928

>  <Chi1>  (31) 
11.241515

>  <Chi1n>  (31) 
7.0311

>  <Chi1v>  (31) 
7.910753

>  <Chi2n>  (31) 
4.850269

>  <Chi2v>  (31) 
5.708372

>  <Chi3n>  (31) 
3.225452

>  <Chi3v>  (31) 
3.983173

>  <Chi4n>  (31) 
2.117694

>  <Chi4v>  (31) 
2.853556

>  <HallKierAlpha>  (31) 
-2.73

>  <Ipc>  (31) 
291147.481458

>  <Kappa1>  (31) 
15.176679

>  <Kappa2>  (31) 
7.019949

>  <Kappa3>  (31) 
3.924185

>  <LabuteASA>  (31) 
137.545007

>  <PEOE_VSA1>  (31) 
10.053652

>  <PEOE_VSA10>  (31) 
5.749512

>  <PEOE_VSA11>  (31) 
5.131558

>  <PEOE_VSA12>  (31) 
5.90718

>  <PEOE_VSA13>  (31) 
0.0

>  <PEOE_VSA14>  (31) 
0.0

>  <PEOE_VSA2>  (31) 
9.778516

>  <PEOE_VSA3>  (31) 
4.983979

>  <PEOE_VSA4>  (31) 
0.0

>  <PEOE_VSA5>  (31) 
11.336786

>  <PEOE_VSA6>  (31) 
12.132734

>  <PEOE_VSA7>  (31) 
29.82892

>  <PEOE_VSA8>  (31) 
23.337201

>  <PEOE_VSA9>  (31) 
19.224547

>  <SMR_VSA1>  (31) 
9.5314

>  <SMR_VSA10>  (31) 
22.375524

>  <SMR_VSA2>  (31) 
0.0

>  <SMR_VSA3>  (31) 
9.967957

>  <SMR_VSA4>  (31) 
0.0

>  <SMR_VSA5>  (31) 
6.420822

>  <SMR_VSA6>  (31) 
12.426586

>  <SMR_VSA7>  (31) 
59.735404

>  <SMR_VSA8>  (31) 
0.0

>  <SMR_VSA9>  (31) 
17.006891

>  <SlogP_VSA1>  (31) 
10.053652

>  <SlogP_VSA10>  (31) 
5.131558

>  <SlogP_VSA11>  (31) 
5.749512

>  <SlogP_VSA12>  (31) 
11.336786

>  <SlogP_VSA2>  (31) 
22.984934

>  <SlogP_VSA3>  (31) 
11.215359

>  <SlogP_VSA4>  (31) 
0.0

>  <SlogP_VSA5>  (31) 
5.563451

>  <SlogP_VSA6>  (31) 
54.171952

>  <SlogP_VSA7>  (31) 
0.0

>  <SlogP_VSA8>  (31) 
11.257379

>  <SlogP_VSA9>  (31) 
0.0

>  <EState_VSA1>  (31) 
0.0

>  <EState_VSA10>  (31) 
4.794537

>  <EState_VSA11>  (31) 
0.0

>  <EState_VSA2>  (31) 
12.328001

>  <EState_VSA3>  (31) 
5.131558

>  <EState_VSA4>  (31) 
22.570343

>  <EState_VSA5>  (31) 
11.336786

>  <EState_VSA6>  (31) 
19.503485

>  <EState_VSA7>  (31) 
41.778265

>  <EState_VSA8>  (31) 
15.284746

>  <EState_VSA9>  (31) 
4.736863

>  <VSA_EState1>  (31) 
5.159921

>  <VSA_EState10>  (31) 
1.402773

>  <VSA_EState2>  (31) 
20.544596

>  <VSA_EState3>  (31) 
5.330945

>  <VSA_EState4>  (31) 
2.70036

>  <VSA_EState5>  (31) 
0.63741

>  <VSA_EState6>  (31) 
11.235699

>  <VSA_EState7>  (31) 
3.715098

>  <VSA_EState8>  (31) 
0.0

>  <VSA_EState9>  (31) 
1.606532

>  <FractionCSP3>  (31) 
0.117647

>  <HeavyAtomCount>  (31) 
23

>  <NHOHCount>  (31) 
1

>  <NOCount>  (31) 
5

>  <NumAliphaticCarbocycles>  (31) 
0

>  <NumAliphaticHeterocycles>  (31) 
0

>  <NumAliphaticRings>  (31) 
0

>  <NumAromaticCarbocycles>  (31) 
1

>  <NumAromaticHeterocycles>  (31) 
2

>  <NumAromaticRings>  (31) 
3

>  <NumHAcceptors>  (31) 
5

>  <NumHDonors>  (31) 
1

>  <NumHeteroatoms>  (31) 
6

>  <NumRotatableBonds>  (31) 
5

>  <NumSaturatedCarbocycles>  (31) 
0

>  <NumSaturatedHeterocycles>  (31) 
0

>  <NumSaturatedRings>  (31) 
0

>  <RingCount>  (31) 
3

>  <MolLogP>  (31) 
3.3949

>  <MolMR>  (31) 
90.6727

>  <fr_Al_COO>  (31) 
0

>  <fr_Al_OH>  (31) 
0

>  <fr_Al_OH_noTert>  (31) 
0

>  <fr_ArN>  (31) 
0

>  <fr_Ar_COO>  (31) 
0

>  <fr_Ar_N>  (31) 
2

>  <fr_Ar_NH>  (31) 
0

>  <fr_Ar_OH>  (31) 
0

>  <fr_COO>  (31) 
0

>  <fr_COO2>  (31) 
0

>  <fr_C_O>  (31) 
1

>  <fr_C_O_noCOO>  (31) 
1

>  <fr_C_S>  (31) 
0

>  <fr_HOCCN>  (31) 
0

>  <fr_Imine>  (31) 
0

>  <fr_NH0>  (31) 
2

>  <fr_NH1>  (31) 
1

>  <fr_NH2>  (31) 
0

>  <fr_N_O>  (31) 
0

>  <fr_Ndealkylation1>  (31) 
0

>  <fr_Ndealkylation2>  (31) 
0

>  <fr_Nhpyrrole>  (31) 
0

>  <fr_SH>  (31) 
0

>  <fr_aldehyde>  (31) 
0

>  <fr_alkyl_carbamate>  (31) 
0

>  <fr_alkyl_halide>  (31) 
0

>  <fr_allylic_oxid>  (31) 
0

>  <fr_amide>  (31) 
1

>  <fr_amidine>  (31) 
0

>  <fr_aniline>  (31) 
1

>  <fr_aryl_methyl>  (31) 
0

>  <fr_azide>  (31) 
0

>  <fr_azo>  (31) 
0

>  <fr_barbitur>  (31) 
0

>  <fr_benzene>  (31) 
1

>  <fr_benzodiazepine>  (31) 
0

>  <fr_bicyclic>  (31) 
0

>  <fr_diazo>  (31) 
0

>  <fr_dihydropyridine>  (31) 
0

>  <fr_epoxide>  (31) 
0

>  <fr_ester>  (31) 
0

>  <fr_ether>  (31) 
1

>  <fr_furan>  (31) 
0

>  <fr_guanido>  (31) 
0

>  <fr_halogen>  (31) 
0

>  <fr_hdrzine>  (31) 
0

>  <fr_hdrzone>  (31) 
0

>  <fr_imidazole>  (31) 
0

>  <fr_imide>  (31) 
0

>  <fr_isocyan>  (31) 
0

>  <fr_isothiocyan>  (31) 
0

>  <fr_ketone>  (31) 
0

>  <fr_ketone_Topliss>  (31) 
0

>  <fr_lactam>  (31) 
0

>  <fr_lactone>  (31) 
0

>  <fr_methoxy>  (31) 
1

>  <fr_morpholine>  (31) 
0

>  <fr_nitrile>  (31) 
0

>  <fr_nitro>  (31) 
0

>  <fr_nitro_arom>  (31) 
0

>  <fr_nitro_arom_nonortho>  (31) 
0

>  <fr_nitroso>  (31) 
0

>  <fr_oxazole>  (31) 
0

>  <fr_oxime>  (31) 
0

>  <fr_para_hydroxylation>  (31) 
0

>  <fr_phenol>  (31) 
0

>  <fr_phenol_noOrthoHbond>  (31) 
0

>  <fr_phos_acid>  (31) 
0

>  <fr_phos_ester>  (31) 
0

>  <fr_piperdine>  (31) 
0

>  <fr_piperzine>  (31) 
0

>  <fr_priamide>  (31) 
0

>  <fr_prisulfonamd>  (31) 
0

>  <fr_pyridine>  (31) 
1

>  <fr_quatN>  (31) 
0

>  <fr_sulfide>  (31) 
0

>  <fr_sulfonamd>  (31) 
0

>  <fr_sulfone>  (31) 
0

>  <fr_term_acetylene>  (31) 
0

>  <fr_tetrazole>  (31) 
0

>  <fr_thiazole>  (31) 
1

>  <fr_thiocyan>  (31) 
0

>  <fr_thiophene>  (31) 
0

>  <fr_unbrch_alkane>  (31) 
0

>  <fr_urea>  (31) 
0

>  <NP_Likeness>  (31) 
-2.026649

$$$$
CHEMBL3581123
     RDKit          3D

  0  0  0  0  0  0  0  0  0  0999 V3000
M  V30 BEGIN CTAB
M  V30 COUNTS 35 37 0 0 0
M  V30 BEGIN ATOM
M  V30 1 O 0.737997 0.122960 3.345498 0
M  V30 2 C 0.549809 -1.083880 3.068809 0
M  V30 3 C 1.252629 -2.389505 3.143672 0
M  V30 4 C 2.287981 -2.526849 2.077279 0
M  V30 5 C 1.769879 -3.077803 0.890072 0
M  V30 6 C 2.511476 -3.320274 -0.255696 0
M  V30 7 C 3.838776 -2.975736 -0.159334 0
M  V30 8 C 4.422615 -2.424587 0.983415 0
M  V30 9 O 5.747721 -2.080108 1.073696 0
M  V30 10 C 3.627552 -2.210023 2.086978 0
M  V30 11 N -0.750420 -1.191956 2.501914 0
M  V30 12 C -1.869962 -0.221537 2.189297 0
M  V30 13 N -1.770686 0.332198 1.117195 0
M  V30 14 C -2.588206 1.190982 0.592389 0
M  V30 15 C -2.498759 1.881629 -0.678753 0
M  V30 16 C -1.409685 1.677572 -1.545648 0
M  V30 17 C -1.143157 2.210916 -2.762216 0
M  V30 18 N -2.092579 3.064995 -3.168990 0
M  V30 19 C -3.167509 3.345946 -2.447720 0
M  V30 20 C -3.414018 2.772916 -1.187299 0
M  V30 21 C -3.736388 1.471861 1.453029 0
M  V30 22 S -3.322601 0.340268 2.922898 0
M  V30 23 H 0.535830 -3.217032 3.054874 0
M  V30 24 H 1.718826 -2.537512 4.154080 0
M  V30 25 H 0.718812 -3.350827 0.808123 0
M  V30 26 H 2.050476 -3.744638 -1.127553 0
M  V30 27 H 4.494071 -3.128866 -1.000574 0
M  V30 28 H 6.376713 -2.056056 0.267526 0
M  V30 29 H 3.937716 -1.784356 3.049317 0
M  V30 30 H -1.165419 -2.101458 2.179606 0
M  V30 31 H -0.672677 0.959107 -1.134049 0
M  V30 32 H -0.231363 1.912133 -3.271649 0
M  V30 33 H -3.923035 4.047359 -2.803857 0
M  V30 34 H -4.291005 3.007163 -0.604560 0
M  V30 35 H -4.637248 2.213541 1.217519 0
M  V30 END ATOM
M  V30 BEGIN BOND
M  V30 1 2 1 2
M  V30 2 1 2 3
M  V30 3 1 3 4
M  V30 4 2 4 5
M  V30 5 1 5 6
M  V30 6 2 6 7
M  V30 7 1 7 8
M  V30 8 1 8 9
M  V30 9 2 8 10
M  V30 10 1 2 11
M  V30 11 1 11 12
M  V30 12 2 12 13
M  V30 13 1 13 14
M  V30 14 1 14 15
M  V30 15 2 15 16
M  V30 16 1 16 17
M  V30 17 2 17 18
M  V30 18 1 18 19
M  V30 19 2 19 20
M  V30 20 2 14 21
M  V30 21 1 21 22
M  V30 22 1 10 4
M  V30 23 1 22 12
M  V30 24 1 20 15
M  V30 25 1 3 23
M  V30 26 1 3 24
M  V30 27 1 5 25
M  V30 28 1 6 26
M  V30 29 1 7 27
M  V30 30 1 9 28
M  V30 31 1 10 29
M  V30 32 1 11 30
M  V30 33 1 16 31
M  V30 34 1 17 32
M  V30 35 1 19 33
M  V30 36 1 20 34
M  V30 37 1 21 35
M  V30 END BOND
M  V30 END CTAB
M  END
>  <Dataset>  (32) 
ChEMBL_PKA

>  <Ligand_Instance>  (32) 
nan

>  <PDB_ID>  (32) 
nan

>  <Standardized_SMILES>  (32) 
O=C(Cc1cccc(O)c1)Nc1nc(-c2ccncc2)cs1

>  <Name>  (32) 
nan

>  <Pocket>  (32) 
nan

>  <ATP_Site>  (32) 
nan

>  <Peripheral>  (32) 
nan

>  <Num_H_Atoms_ProtBoundConf>  (32) 
nan

>  <Num_Resolved_Atoms>  (32) 
nan

>  <Num_Not_Resolved_Atoms>  (32) 
nan

>  <2D_Mol_H>  (32) 
<rdkit.Chem.rdchem.Mol object at 0x72a239103140>

>  <MW>  (32) 
311.366

>  <HBA>  (32) 
5

>  <HBD>  (32) 
2

>  <LogP>  (32) 
3.0919

>  <NRB>  (32) 
5

>  <TPSA>  (32) 
75.11

>  <Num_Heavy_Atoms>  (32) 
22

>  <Ro5>  (32) 
[True, True, True, True, True, True]

>  <Ro5_Fulfilled>  (32) 
True

>  <Ro3>  (32) 
[False, False, True, False]

>  <Ro3_Fulfilled>  (32) 
False

>  <Fsp3>  (32) 
0.0625

>  <Fsp3_0.42>  (32) 
False

>  <Fsp3_0.45>  (32) 
False

>  <Stereogenic_Carbons>  (32) 
0

>  <C_Atoms>  (32) 
16

>  <FCStereo>  (32) 
0.0

>  <SPS>  (32) 
228

>  <nSPS>  (32) 
10.363636

>  <PBF>  (32) 
0.625819

>  <PBF_0.6>  (32) 
True

>  <nPBF>  (32) 
0.028446

>  <nPBF_0.016>  (32) 
True

>  <PMI1>  (32) 
1396.05295

>  <PMI2>  (32) 
3921.352803

>  <PMI3>  (32) 
4973.962331

>  <NPR1>  (32) 
0.280672

>  <NPR2>  (32) 
0.788376

>  <Sum_NPR>  (32) 
1.069048

>  <Sum_NPR_1.07>  (32) 
False

>  <Sum_NPR_1.2>  (32) 
False

>  <MaxAbsEStateIndex>  (32) 
12.002851

>  <MaxEStateIndex>  (32) 
12.002851

>  <MinAbsEStateIndex>  (32) 
0.152335

>  <MinEStateIndex>  (32) 
-0.165529

>  <qed>  (32) 
0.77615

>  <MolWt>  (32) 
311.366

>  <HeavyAtomMolWt>  (32) 
298.262

>  <ExactMolWt>  (32) 
311.072848

>  <NumValenceElectrons>  (32) 
110

>  <NumRadicalElectrons>  (32) 
0

>  <MaxPartialCharge>  (32) 
0.230077

>  <MinPartialCharge>  (32) 
-0.507956

>  <MaxAbsPartialCharge>  (32) 
0.507956

>  <MinAbsPartialCharge>  (32) 
0.230077

>  <FpDensityMorgan1>  (32) 
1.227273

>  <FpDensityMorgan2>  (32) 
2.045455

>  <FpDensityMorgan3>  (32) 
2.818182

>  <BCUT2D_MWHI>  (32) 
32.13349

>  <BCUT2D_MWLOW>  (32) 
10.1311

>  <BCUT2D_CHGHI>  (32) 
2.087131

>  <BCUT2D_CHGLO>  (32) 
-2.022404

>  <BCUT2D_LOGPHI>  (32) 
2.239819

>  <BCUT2D_LOGPLOW>  (32) 
-2.136183

>  <BCUT2D_MRHI>  (32) 
7.137567

>  <BCUT2D_MRLOW>  (32) 
-0.115117

>  <AvgIpc>  (32) 
2.962541

>  <BalabanJ>  (32) 
1.662022

>  <BertzCT>  (32) 
786.84972

>  <Chi0>  (32) 
15.363597

>  <Chi0n>  (32) 
11.561397

>  <Chi0v>  (32) 
12.377893

>  <Chi1>  (32) 
10.70351

>  <Chi1n>  (32) 
6.642335

>  <Chi1v>  (32) 
7.521988

>  <Chi2n>  (32) 
4.668642

>  <Chi2v>  (32) 
5.526745

>  <Chi3n>  (32) 
3.001868

>  <Chi3v>  (32) 
3.759589

>  <Chi4n>  (32) 
2.001701

>  <Chi4v>  (32) 
2.737563

>  <HallKierAlpha>  (32) 
-2.73

>  <Ipc>  (32) 
165297.921115

>  <Kappa1>  (32) 
14.217519

>  <Kappa2>  (32) 
6.360303

>  <Kappa3>  (32) 
3.47514

>  <LabuteASA>  (32) 
130.860753

>  <PEOE_VSA1>  (32) 
10.423316

>  <PEOE_VSA10>  (32) 
5.749512

>  <PEOE_VSA11>  (32) 
5.131558

>  <PEOE_VSA12>  (32) 
5.90718

>  <PEOE_VSA13>  (32) 
0.0

>  <PEOE_VSA14>  (32) 
0.0

>  <PEOE_VSA2>  (32) 
9.778516

>  <PEOE_VSA3>  (32) 
4.983979

>  <PEOE_VSA4>  (32) 
0.0

>  <PEOE_VSA5>  (32) 
11.336786

>  <PEOE_VSA6>  (32) 
12.132734

>  <PEOE_VSA7>  (32) 
29.82892

>  <PEOE_VSA8>  (32) 
23.337201

>  <PEOE_VSA9>  (32) 
12.11475

>  <SMR_VSA1>  (32) 
9.901065

>  <SMR_VSA10>  (32) 
22.375524

>  <SMR_VSA2>  (32) 
0.0

>  <SMR_VSA3>  (32) 
9.967957

>  <SMR_VSA4>  (32) 
0.0

>  <SMR_VSA5>  (32) 
6.420822

>  <SMR_VSA6>  (32) 
5.316789

>  <SMR_VSA7>  (32) 
59.735404

>  <SMR_VSA8>  (32) 
0.0

>  <SMR_VSA9>  (32) 
17.006891

>  <SlogP_VSA1>  (32) 
5.316789

>  <SlogP_VSA10>  (32) 
5.131558

>  <SlogP_VSA11>  (32) 
5.749512

>  <SlogP_VSA12>  (32) 
11.336786

>  <SlogP_VSA2>  (32) 
20.981664

>  <SlogP_VSA3>  (32) 
11.215359

>  <SlogP_VSA4>  (32) 
0.0

>  <SlogP_VSA5>  (32) 
5.563451

>  <SlogP_VSA6>  (32) 
54.171952

>  <SlogP_VSA7>  (32) 
0.0

>  <SlogP_VSA8>  (32) 
11.257379

>  <SlogP_VSA9>  (32) 
0.0

>  <EState_VSA1>  (32) 
0.0

>  <EState_VSA10>  (32) 
9.901065

>  <EState_VSA11>  (32) 
0.0

>  <EState_VSA2>  (32) 
18.077513

>  <EState_VSA3>  (32) 
5.131558

>  <EState_VSA4>  (32) 
16.820831

>  <EState_VSA5>  (32) 
11.336786

>  <EState_VSA6>  (32) 
36.659155

>  <EState_VSA7>  (32) 
17.512797

>  <EState_VSA8>  (32) 
15.284746

>  <EState_VSA9>  (32) 
0.0

>  <VSA_EState1>  (32) 
0.0

>  <VSA_EState10>  (32) 
1.373575

>  <VSA_EState2>  (32) 
20.357387

>  <VSA_EState3>  (32) 
14.610141

>  <VSA_EState4>  (32) 
2.516851

>  <VSA_EState5>  (32) 
-0.013194

>  <VSA_EState6>  (32) 
10.389171

>  <VSA_EState7>  (32) 
3.599401

>  <VSA_EState8>  (32) 
0.0

>  <VSA_EState9>  (32) 
0.0

>  <FractionCSP3>  (32) 
0.0625

>  <HeavyAtomCount>  (32) 
22

>  <NHOHCount>  (32) 
2

>  <NOCount>  (32) 
5

>  <NumAliphaticCarbocycles>  (32) 
0

>  <NumAliphaticHeterocycles>  (32) 
0

>  <NumAliphaticRings>  (32) 
0

>  <NumAromaticCarbocycles>  (32) 
1

>  <NumAromaticHeterocycles>  (32) 
2

>  <NumAromaticRings>  (32) 
3

>  <NumHAcceptors>  (32) 
5

>  <NumHDonors>  (32) 
2

>  <NumHeteroatoms>  (32) 
6

>  <NumRotatableBonds>  (32) 
4

>  <NumSaturatedCarbocycles>  (32) 
0

>  <NumSaturatedHeterocycles>  (32) 
0

>  <NumSaturatedRings>  (32) 
0

>  <RingCount>  (32) 
3

>  <MolLogP>  (32) 
3.0919

>  <MolMR>  (32) 
85.7855

>  <fr_Al_COO>  (32) 
0

>  <fr_Al_OH>  (32) 
0

>  <fr_Al_OH_noTert>  (32) 
0

>  <fr_ArN>  (32) 
0

>  <fr_Ar_COO>  (32) 
0

>  <fr_Ar_N>  (32) 
2

>  <fr_Ar_NH>  (32) 
0

>  <fr_Ar_OH>  (32) 
1

>  <fr_COO>  (32) 
0

>  <fr_COO2>  (32) 
0

>  <fr_C_O>  (32) 
1

>  <fr_C_O_noCOO>  (32) 
1

>  <fr_C_S>  (32) 
0

>  <fr_HOCCN>  (32) 
0

>  <fr_Imine>  (32) 
0

>  <fr_NH0>  (32) 
2

>  <fr_NH1>  (32) 
1

>  <fr_NH2>  (32) 
0

>  <fr_N_O>  (32) 
0

>  <fr_Ndealkylation1>  (32) 
0

>  <fr_Ndealkylation2>  (32) 
0

>  <fr_Nhpyrrole>  (32) 
0

>  <fr_SH>  (32) 
0

>  <fr_aldehyde>  (32) 
0

>  <fr_alkyl_carbamate>  (32) 
0

>  <fr_alkyl_halide>  (32) 
0

>  <fr_allylic_oxid>  (32) 
0

>  <fr_amide>  (32) 
1

>  <fr_amidine>  (32) 
0

>  <fr_aniline>  (32) 
1

>  <fr_aryl_methyl>  (32) 
0

>  <fr_azide>  (32) 
0

>  <fr_azo>  (32) 
0

>  <fr_barbitur>  (32) 
0

>  <fr_benzene>  (32) 
1

>  <fr_benzodiazepine>  (32) 
0

>  <fr_bicyclic>  (32) 
0

>  <fr_diazo>  (32) 
0

>  <fr_dihydropyridine>  (32) 
0

>  <fr_epoxide>  (32) 
0

>  <fr_ester>  (32) 
0

>  <fr_ether>  (32) 
0

>  <fr_furan>  (32) 
0

>  <fr_guanido>  (32) 
0

>  <fr_halogen>  (32) 
0

>  <fr_hdrzine>  (32) 
0

>  <fr_hdrzone>  (32) 
0

>  <fr_imidazole>  (32) 
0

>  <fr_imide>  (32) 
0

>  <fr_isocyan>  (32) 
0

>  <fr_isothiocyan>  (32) 
0

>  <fr_ketone>  (32) 
0

>  <fr_ketone_Topliss>  (32) 
0

>  <fr_lactam>  (32) 
0

>  <fr_lactone>  (32) 
0

>  <fr_methoxy>  (32) 
0

>  <fr_morpholine>  (32) 
0

>  <fr_nitrile>  (32) 
0

>  <fr_nitro>  (32) 
0

>  <fr_nitro_arom>  (32) 
0

>  <fr_nitro_arom_nonortho>  (32) 
0

>  <fr_nitroso>  (32) 
0

>  <fr_oxazole>  (32) 
0

>  <fr_oxime>  (32) 
0

>  <fr_para_hydroxylation>  (32) 
0

>  <fr_phenol>  (32) 
1

>  <fr_phenol_noOrthoHbond>  (32) 
1

>  <fr_phos_acid>  (32) 
0

>  <fr_phos_ester>  (32) 
0

>  <fr_piperdine>  (32) 
0

>  <fr_piperzine>  (32) 
0

>  <fr_priamide>  (32) 
0

>  <fr_prisulfonamd>  (32) 
0

>  <fr_pyridine>  (32) 
1

>  <fr_quatN>  (32) 
0

>  <fr_sulfide>  (32) 
0

>  <fr_sulfonamd>  (32) 
0

>  <fr_sulfone>  (32) 
0

>  <fr_term_acetylene>  (32) 
0

>  <fr_tetrazole>  (32) 
0

>  <fr_thiazole>  (32) 
1

>  <fr_thiocyan>  (32) 
0

>  <fr_thiophene>  (32) 
0

>  <fr_unbrch_alkane>  (32) 
0

>  <fr_urea>  (32) 
0

>  <NP_Likeness>  (32) 
-1.720257

$$$$
CHEMBL3581126
     RDKit          3D

  0  0  0  0  0  0  0  0  0  0999 V3000
M  V30 BEGIN CTAB
M  V30 COUNTS 37 40 0 0 0
M  V30 BEGIN ATOM
M  V30 1 O -0.161144 0.016742 0.591101 0
M  V30 2 C -1.180119 0.519628 1.176824 0
M  V30 3 C -1.275884 0.143496 2.605688 0
M  V30 4 C -0.150471 -0.733243 3.014564 0
M  V30 5 C 0.909653 -0.255816 3.757281 0
M  V30 6 C 1.982171 -1.056712 4.155094 0
M  V30 7 C 2.017144 -2.381721 3.810205 0
M  V30 8 C 0.954852 -2.880936 3.060311 0
M  V30 9 C -0.094837 -2.067754 2.679150 0
M  V30 10 Cl -1.437040 -2.697693 1.732570 0
M  V30 11 O 1.217564 -4.246551 2.835775 0
M  V30 12 C 2.638532 -4.390598 2.951820 0
M  V30 13 O 2.879816 -3.464195 4.009172 0
M  V30 14 N -2.122523 1.353833 0.521771 0
M  V30 15 C -1.672523 1.485132 -0.880275 0
M  V30 16 N -1.930973 0.825379 -1.830284 0
M  V30 17 C -1.486656 1.004142 -3.059292 0
M  V30 18 C -1.885182 0.115024 -4.145315 0
M  V30 19 C -2.736745 -0.970177 -4.025316 0
M  V30 20 C -3.112576 -1.806468 -5.045411 0
M  V30 21 N -2.603836 -1.542435 -6.270711 0
M  V30 22 C -1.770424 -0.522644 -6.515193 0
M  V30 23 C -1.436148 0.276243 -5.442705 0
M  V30 24 C -0.640810 2.060637 -3.251931 0
M  V30 25 S -0.556694 2.760776 -1.489424 0
M  V30 26 H -1.161627 1.103257 3.172577 0
M  V30 27 H -2.251613 -0.352120 2.847878 0
M  V30 28 H 0.945774 0.776962 4.062449 0
M  V30 29 H 2.789234 -0.658442 4.729876 0
M  V30 30 H 2.949590 -5.413635 3.182334 0
M  V30 31 H 3.148939 -3.941573 2.065235 0
M  V30 32 H -2.920948 1.732556 1.030473 0
M  V30 33 H -3.141417 -1.174469 -3.032276 0
M  V30 34 H -3.786109 -2.628531 -4.842458 0
M  V30 35 H -1.374680 -0.328839 -7.502308 0
M  V30 36 H -0.755958 1.096229 -5.676650 0
M  V30 37 H -0.147768 2.385736 -4.234103 0
M  V30 END ATOM
M  V30 BEGIN BOND
M  V30 1 2 1 2
M  V30 2 1 2 3
M  V30 3 1 3 4
M  V30 4 2 4 5
M  V30 5 1 5 6
M  V30 6 2 6 7
M  V30 7 1 7 8
M  V30 8 2 8 9
M  V30 9 1 9 10
M  V30 10 1 8 11
M  V30 11 1 11 12
M  V30 12 1 12 13
M  V30 13 1 2 14
M  V30 14 1 14 15
M  V30 15 2 15 16
M  V30 16 1 16 17
M  V30 17 1 17 18
M  V30 18 2 18 19
M  V30 19 1 19 20
M  V30 20 2 20 21
M  V30 21 1 21 22
M  V30 22 2 22 23
M  V30 23 2 17 24
M  V30 24 1 24 25
M  V30 25 1 9 4
M  V30 26 1 25 15
M  V30 27 1 13 7
M  V30 28 1 23 18
M  V30 29 1 3 26
M  V30 30 1 3 27
M  V30 31 1 5 28
M  V30 32 1 6 29
M  V30 33 1 12 30
M  V30 34 1 12 31
M  V30 35 1 14 32
M  V30 36 1 19 33
M  V30 37 1 20 34
M  V30 38 1 22 35
M  V30 39 1 23 36
M  V30 40 1 24 37
M  V30 END BOND
M  V30 END CTAB
M  END
>  <Dataset>  (33) 
ChEMBL_PKA

>  <Ligand_Instance>  (33) 
nan

>  <PDB_ID>  (33) 
nan

>  <Standardized_SMILES>  (33) 
O=C(Cc1ccc2c(c1Cl)OCO2)Nc1nc(-c2ccncc2)cs1

>  <Name>  (33) 
nan

>  <Pocket>  (33) 
nan

>  <ATP_Site>  (33) 
nan

>  <Peripheral>  (33) 
nan

>  <Num_H_Atoms_ProtBoundConf>  (33) 
nan

>  <Num_Resolved_Atoms>  (33) 
nan

>  <Num_Not_Resolved_Atoms>  (33) 
nan

>  <2D_Mol_H>  (33) 
<rdkit.Chem.rdchem.Mol object at 0x72a239103220>

>  <MW>  (33) 
373.821

>  <HBA>  (33) 
6

>  <HBD>  (33) 
1

>  <LogP>  (33) 
3.7684

>  <NRB>  (33) 
4

>  <TPSA>  (33) 
73.34

>  <Num_Heavy_Atoms>  (33) 
25

>  <Ro5>  (33) 
[True, True, True, True, True, True]

>  <Ro5_Fulfilled>  (33) 
True

>  <Ro3>  (33) 
[False, False, True, False]

>  <Ro3_Fulfilled>  (33) 
False

>  <Fsp3>  (33) 
0.117647

>  <Fsp3_0.42>  (33) 
False

>  <Fsp3_0.45>  (33) 
False

>  <Stereogenic_Carbons>  (33) 
0

>  <C_Atoms>  (33) 
17

>  <FCStereo>  (33) 
0.0

>  <SPS>  (33) 
305

>  <nSPS>  (33) 
12.2

>  <PBF>  (33) 
1.02934

>  <PBF_0.6>  (33) 
True

>  <nPBF>  (33) 
0.041174

>  <nPBF_0.016>  (33) 
True

>  <PMI1>  (33) 
1547.819611

>  <PMI2>  (33) 
5671.926037

>  <PMI3>  (33) 
6425.61231

>  <NPR1>  (33) 
0.240883

>  <NPR2>  (33) 
0.882706

>  <Sum_NPR>  (33) 
1.123589

>  <Sum_NPR_1.07>  (33) 
True

>  <Sum_NPR_1.2>  (33) 
False

>  <MaxAbsEStateIndex>  (33) 
12.29488

>  <MaxEStateIndex>  (33) 
12.29488

>  <MinAbsEStateIndex>  (33) 
0.124646

>  <MinEStateIndex>  (33) 
-0.197784

>  <qed>  (33) 
0.753181

>  <MolWt>  (33) 
373.821

>  <HeavyAtomMolWt>  (33) 
361.725

>  <ExactMolWt>  (33) 
373.02879

>  <NumValenceElectrons>  (33) 
126

>  <NumRadicalElectrons>  (33) 
0

>  <MaxPartialCharge>  (33) 
0.230884

>  <MinPartialCharge>  (33) 
-0.453534

>  <MaxAbsPartialCharge>  (33) 
0.453534

>  <MinAbsPartialCharge>  (33) 
0.230884

>  <FpDensityMorgan1>  (33) 
1.24

>  <FpDensityMorgan2>  (33) 
2.08

>  <FpDensityMorgan3>  (33) 
2.92

>  <BCUT2D_MWHI>  (33) 
35.495692

>  <BCUT2D_MWLOW>  (33) 
10.116297

>  <BCUT2D_CHGHI>  (33) 
2.206131

>  <BCUT2D_CHGLO>  (33) 
-2.064164

>  <BCUT2D_LOGPHI>  (33) 
2.405318

>  <BCUT2D_LOGPLOW>  (33) 
-2.140947

>  <BCUT2D_MRHI>  (33) 
7.137586

>  <BCUT2D_MRLOW>  (33) 
-0.115119

>  <AvgIpc>  (33) 
3.276998

>  <BalabanJ>  (33) 
1.457372

>  <BertzCT>  (33) 
930.142437

>  <Chi0>  (33) 
17.225404

>  <Chi0n>  (33) 
12.86105

>  <Chi0v>  (33) 
14.433476

>  <Chi1>  (33) 
12.20351

>  <Chi1n>  (33) 
7.432625

>  <Chi1v>  (33) 
8.690242

>  <Chi2n>  (33) 
5.271196

>  <Chi2v>  (33) 
6.507263

>  <Chi3n>  (33) 
3.636284

>  <Chi3v>  (33) 
4.808387

>  <Chi4n>  (33) 
2.438524

>  <Chi4v>  (33) 
3.45188

>  <HallKierAlpha>  (33) 
-2.64

>  <Ipc>  (33) 
1054551.080812

>  <Kappa1>  (33) 
15.862652

>  <Kappa2>  (33) 
6.697443

>  <Kappa3>  (33) 
3.285955

>  <LabuteASA>  (33) 
151.955987

>  <PEOE_VSA1>  (33) 
14.790515

>  <PEOE_VSA10>  (33) 
0.0

>  <PEOE_VSA11>  (33) 
16.630582

>  <PEOE_VSA12>  (33) 
12.700122

>  <PEOE_VSA13>  (33) 
0.0

>  <PEOE_VSA14>  (33) 
0.0

>  <PEOE_VSA2>  (33) 
9.778516

>  <PEOE_VSA3>  (33) 
4.983979

>  <PEOE_VSA4>  (33) 
0.0

>  <PEOE_VSA5>  (33) 
11.336786

>  <PEOE_VSA6>  (33) 
17.667307

>  <PEOE_VSA7>  (33) 
23.762553

>  <PEOE_VSA8>  (33) 
23.337201

>  <PEOE_VSA9>  (33) 
17.137383

>  <SMR_VSA1>  (33) 
14.268263

>  <SMR_VSA10>  (33) 
33.976464

>  <SMR_VSA2>  (33) 
0.0

>  <SMR_VSA3>  (33) 
9.967957

>  <SMR_VSA4>  (33) 
0.0

>  <SMR_VSA5>  (33) 
6.420822

>  <SMR_VSA6>  (33) 
12.109731

>  <SMR_VSA7>  (33) 
52.625303

>  <SMR_VSA8>  (33) 
0.0

>  <SMR_VSA9>  (33) 
22.756403

>  <SlogP_VSA1>  (33) 
14.790515

>  <SlogP_VSA10>  (33) 
5.131558

>  <SlogP_VSA11>  (33) 
11.499024

>  <SlogP_VSA12>  (33) 
22.937726

>  <SlogP_VSA2>  (33) 
22.668079

>  <SlogP_VSA3>  (33) 
11.215359

>  <SlogP_VSA4>  (33) 
0.0

>  <SlogP_VSA5>  (33) 
5.563451

>  <SlogP_VSA6>  (33) 
42.039218

>  <SlogP_VSA7>  (33) 
5.022633

>  <SlogP_VSA8>  (33) 
11.257379

>  <SlogP_VSA9>  (33) 
0.0

>  <EState_VSA1>  (33) 
0.0

>  <EState_VSA10>  (33) 
4.794537

>  <EState_VSA11>  (33) 
0.0

>  <EState_VSA2>  (33) 
19.120944

>  <EState_VSA3>  (33) 
27.216667

>  <EState_VSA4>  (33) 
11.257379

>  <EState_VSA5>  (33) 
11.336786

>  <EState_VSA6>  (33) 
24.526421

>  <EState_VSA7>  (33) 
17.512797

>  <EState_VSA8>  (33) 
15.284746

>  <EState_VSA9>  (33) 
21.074666

>  <VSA_EState1>  (33) 
10.580495

>  <VSA_EState10>  (33) 
7.647908

>  <VSA_EState2>  (33) 
20.698477

>  <VSA_EState3>  (33) 
5.62526

>  <VSA_EState4>  (33) 
2.420098

>  <VSA_EState5>  (33) 
0.883015

>  <VSA_EState6>  (33) 
7.251511

>  <VSA_EState7>  (33) 
3.530537

>  <VSA_EState8>  (33) 
0.140477

>  <VSA_EState9>  (33) 
0.0

>  <FractionCSP3>  (33) 
0.117647

>  <HeavyAtomCount>  (33) 
25

>  <NHOHCount>  (33) 
1

>  <NOCount>  (33) 
6

>  <NumAliphaticCarbocycles>  (33) 
0

>  <NumAliphaticHeterocycles>  (33) 
1

>  <NumAliphaticRings>  (33) 
1

>  <NumAromaticCarbocycles>  (33) 
1

>  <NumAromaticHeterocycles>  (33) 
2

>  <NumAromaticRings>  (33) 
3

>  <NumHAcceptors>  (33) 
6

>  <NumHDonors>  (33) 
1

>  <NumHeteroatoms>  (33) 
8

>  <NumRotatableBonds>  (33) 
4

>  <NumSaturatedCarbocycles>  (33) 
0

>  <NumSaturatedHeterocycles>  (33) 
0

>  <NumSaturatedRings>  (33) 
0

>  <RingCount>  (33) 
4

>  <MolLogP>  (33) 
3.7684

>  <MolMR>  (33) 
95.2537

>  <fr_Al_COO>  (33) 
0

>  <fr_Al_OH>  (33) 
0

>  <fr_Al_OH_noTert>  (33) 
0

>  <fr_ArN>  (33) 
0

>  <fr_Ar_COO>  (33) 
0

>  <fr_Ar_N>  (33) 
2

>  <fr_Ar_NH>  (33) 
0

>  <fr_Ar_OH>  (33) 
0

>  <fr_COO>  (33) 
0

>  <fr_COO2>  (33) 
0

>  <fr_C_O>  (33) 
1

>  <fr_C_O_noCOO>  (33) 
1

>  <fr_C_S>  (33) 
0

>  <fr_HOCCN>  (33) 
0

>  <fr_Imine>  (33) 
0

>  <fr_NH0>  (33) 
2

>  <fr_NH1>  (33) 
1

>  <fr_NH2>  (33) 
0

>  <fr_N_O>  (33) 
0

>  <fr_Ndealkylation1>  (33) 
0

>  <fr_Ndealkylation2>  (33) 
0

>  <fr_Nhpyrrole>  (33) 
0

>  <fr_SH>  (33) 
0

>  <fr_aldehyde>  (33) 
0

>  <fr_alkyl_carbamate>  (33) 
0

>  <fr_alkyl_halide>  (33) 
0

>  <fr_allylic_oxid>  (33) 
0

>  <fr_amide>  (33) 
1

>  <fr_amidine>  (33) 
0

>  <fr_aniline>  (33) 
1

>  <fr_aryl_methyl>  (33) 
0

>  <fr_azide>  (33) 
0

>  <fr_azo>  (33) 
0

>  <fr_barbitur>  (33) 
0

>  <fr_benzene>  (33) 
1

>  <fr_benzodiazepine>  (33) 
0

>  <fr_bicyclic>  (33) 
1

>  <fr_diazo>  (33) 
0

>  <fr_dihydropyridine>  (33) 
0

>  <fr_epoxide>  (33) 
0

>  <fr_ester>  (33) 
0

>  <fr_ether>  (33) 
2

>  <fr_furan>  (33) 
0

>  <fr_guanido>  (33) 
0

>  <fr_halogen>  (33) 
1

>  <fr_hdrzine>  (33) 
0

>  <fr_hdrzone>  (33) 
0

>  <fr_imidazole>  (33) 
0

>  <fr_imide>  (33) 
0

>  <fr_isocyan>  (33) 
0

>  <fr_isothiocyan>  (33) 
0

>  <fr_ketone>  (33) 
0

>  <fr_ketone_Topliss>  (33) 
0

>  <fr_lactam>  (33) 
0

>  <fr_lactone>  (33) 
0

>  <fr_methoxy>  (33) 
0

>  <fr_morpholine>  (33) 
0

>  <fr_nitrile>  (33) 
0

>  <fr_nitro>  (33) 
0

>  <fr_nitro_arom>  (33) 
0

>  <fr_nitro_arom_nonortho>  (33) 
0

>  <fr_nitroso>  (33) 
0

>  <fr_oxazole>  (33) 
0

>  <fr_oxime>  (33) 
0

>  <fr_para_hydroxylation>  (33) 
0

>  <fr_phenol>  (33) 
0

>  <fr_phenol_noOrthoHbond>  (33) 
0

>  <fr_phos_acid>  (33) 
0

>  <fr_phos_ester>  (33) 
0

>  <fr_piperdine>  (33) 
0

>  <fr_piperzine>  (33) 
0

>  <fr_priamide>  (33) 
0

>  <fr_prisulfonamd>  (33) 
0

>  <fr_pyridine>  (33) 
1

>  <fr_quatN>  (33) 
0

>  <fr_sulfide>  (33) 
0

>  <fr_sulfonamd>  (33) 
0

>  <fr_sulfone>  (33) 
0

>  <fr_term_acetylene>  (33) 
0

>  <fr_tetrazole>  (33) 
0

>  <fr_thiazole>  (33) 
1

>  <fr_thiocyan>  (33) 
0

>  <fr_thiophene>  (33) 
0

>  <fr_unbrch_alkane>  (33) 
0

>  <fr_urea>  (33) 
0

>  <NP_Likeness>  (33) 
-1.587389

$$$$
CHEMBL3581129
     RDKit          3D

  0  0  0  0  0  0  0  0  0  0999 V3000
M  V30 BEGIN CTAB
M  V30 COUNTS 45 48 0 0 0
M  V30 BEGIN ATOM
M  V30 1 C 2.436469 -3.653736 4.461459 0
M  V30 2 O 2.460978 -4.463607 3.322206 0
M  V30 3 C 2.426671 -3.985848 2.017898 0
M  V30 4 C 2.461166 -4.978234 1.060363 0
M  V30 5 C 2.432599 -4.635193 -0.275016 0
M  V30 6 C 2.368953 -3.271797 -0.584963 0
M  V30 7 C 2.334061 -2.269850 0.377337 0
M  V30 8 C 2.267223 -0.854678 -0.057961 0 CFG=2
M  V30 9 C 3.457172 -0.042663 0.319494 0
M  V30 10 C 3.234617 0.893130 1.461281 0
M  V30 11 C 2.136979 1.893030 1.199571 0
M  V30 12 N 1.006949 1.167065 0.716990 0
M  V30 13 C -0.314777 1.796128 0.605381 0
M  V30 14 N -1.390552 1.450981 0.253331 0
M  V30 15 C -2.485960 2.170559 0.220937 0
M  V30 16 C -3.752028 1.608237 -0.240736 0
M  V30 17 C -3.939029 0.312884 -0.677677 0
M  V30 18 C -5.152608 -0.178910 -1.105899 0
M  V30 19 N -6.236513 0.616316 -1.112891 0
M  V30 20 C -6.135698 1.898881 -0.699613 0
M  V30 21 C -4.910590 2.356294 -0.279193 0
M  V30 22 C -2.357146 3.480554 0.649271 0
M  V30 23 S -0.538634 3.536184 1.083692 0
M  V30 24 C 1.005694 -0.180001 0.304517 0
M  V30 25 O -0.056496 -0.884205 0.220023 0
M  V30 26 C 2.363971 -2.645562 1.701219 0
M  V30 27 H 3.484499 -3.490649 4.833201 0
M  V30 28 H 1.911481 -4.259046 5.253811 0
M  V30 29 H 1.909850 -2.699434 4.335102 0
M  V30 30 H 2.510525 -6.043583 1.260648 0
M  V30 31 H 2.457657 -5.372716 -1.046036 0
M  V30 32 H 2.348458 -3.052389 -1.660736 0
M  V30 33 H 2.261512 -0.901353 -1.186907 0
M  V30 34 H 3.898597 0.525254 -0.525442 0
M  V30 35 H 4.270301 -0.749150 0.653153 0
M  V30 36 H 4.172792 1.480128 1.578788 0
M  V30 37 H 3.076640 0.365337 2.432600 0
M  V30 38 H 2.500562 2.545982 0.352928 0
M  V30 39 H 1.971312 2.455180 2.123377 0
M  V30 40 H -3.068955 -0.345289 -0.678005 0
M  V30 41 H -5.171691 -1.226737 -1.428949 0
M  V30 42 H -7.022585 2.517281 -0.715168 0
M  V30 43 H -4.916505 3.384318 0.032056 0
M  V30 44 H -3.228334 4.274729 0.691047 0
M  V30 45 H 2.339247 -1.916827 2.473657 0
M  V30 END ATOM
M  V30 BEGIN BOND
M  V30 1 1 1 2
M  V30 2 1 2 3
M  V30 3 2 3 4
M  V30 4 1 4 5
M  V30 5 2 5 6
M  V30 6 1 6 7
M  V30 7 1 7 8
M  V30 8 1 8 9
M  V30 9 1 9 10
M  V30 10 1 10 11
M  V30 11 1 11 12
M  V30 12 1 12 13
M  V30 13 2 13 14
M  V30 14 1 14 15
M  V30 15 1 15 16
M  V30 16 2 16 17
M  V30 17 1 17 18
M  V30 18 2 18 19
M  V30 19 1 19 20
M  V30 20 2 20 21
M  V30 21 2 15 22
M  V30 22 1 22 23
M  V30 23 1 12 24
M  V30 24 2 24 25
M  V30 25 2 7 26
M  V30 26 1 26 3
M  V30 27 1 24 8
M  V30 28 1 23 13
M  V30 29 1 21 16
M  V30 30 1 1 27
M  V30 31 1 1 28
M  V30 32 1 1 29
M  V30 33 1 4 30
M  V30 34 1 5 31
M  V30 35 1 6 32
M  V30 36 1 8 33 CFG=3
M  V30 37 1 9 34
M  V30 38 1 9 35
M  V30 39 1 10 36
M  V30 40 1 10 37
M  V30 41 1 11 38
M  V30 42 1 11 39
M  V30 43 1 17 40
M  V30 44 1 18 41
M  V30 45 1 20 42
M  V30 46 1 21 43
M  V30 47 1 22 44
M  V30 48 1 26 45
M  V30 END BOND
M  V30 END CTAB
M  END
>  <Dataset>  (34) 
ChEMBL_PKA

>  <Ligand_Instance>  (34) 
nan

>  <PDB_ID>  (34) 
nan

>  <Standardized_SMILES>  (34) 
COc1cccc(C2CCCN(c3nc(-c4ccncc4)cs3)C2=O)c1

>  <Name>  (34) 
nan

>  <Pocket>  (34) 
nan

>  <ATP_Site>  (34) 
nan

>  <Peripheral>  (34) 
nan

>  <Num_H_Atoms_ProtBoundConf>  (34) 
nan

>  <Num_Resolved_Atoms>  (34) 
nan

>  <Num_Not_Resolved_Atoms>  (34) 
nan

>  <2D_Mol_H>  (34) 
<rdkit.Chem.rdchem.Mol object at 0x72a239103300>

>  <MW>  (34) 
365.458

>  <HBA>  (34) 
5

>  <HBD>  (34) 
0

>  <LogP>  (34) 
4.1243

>  <NRB>  (34) 
5

>  <TPSA>  (34) 
55.32

>  <Num_Heavy_Atoms>  (34) 
26

>  <Ro5>  (34) 
[True, True, True, True, True, True]

>  <Ro5_Fulfilled>  (34) 
True

>  <Ro3>  (34) 
[False, False, True, False]

>  <Ro3_Fulfilled>  (34) 
False

>  <Fsp3>  (34) 
0.25

>  <Fsp3_0.42>  (34) 
False

>  <Fsp3_0.45>  (34) 
False

>  <Stereogenic_Carbons>  (34) 
1

>  <C_Atoms>  (34) 
20

>  <FCStereo>  (34) 
0.05

>  <SPS>  (34) 
451

>  <nSPS>  (34) 
17.346154

>  <PBF>  (34) 
1.028578

>  <PBF_0.6>  (34) 
True

>  <nPBF>  (34) 
0.039561

>  <nPBF_0.016>  (34) 
True

>  <PMI1>  (34) 
1728.576617

>  <PMI2>  (34) 
5215.160603

>  <PMI3>  (34) 
6169.79057

>  <NPR1>  (34) 
0.280168

>  <NPR2>  (34) 
0.845274

>  <Sum_NPR>  (34) 
1.125441

>  <Sum_NPR_1.07>  (34) 
True

>  <Sum_NPR_1.2>  (34) 
False

>  <MaxAbsEStateIndex>  (34) 
13.113571

>  <MaxEStateIndex>  (34) 
13.113571

>  <MinAbsEStateIndex>  (34) 
0.111233

>  <MinEStateIndex>  (34) 
-0.14618

>  <qed>  (34) 
0.697686

>  <MolWt>  (34) 
365.458

>  <HeavyAtomMolWt>  (34) 
346.306

>  <ExactMolWt>  (34) 
365.119798

>  <NumValenceElectrons>  (34) 
132

>  <NumRadicalElectrons>  (34) 
0

>  <MaxPartialCharge>  (34) 
0.235814

>  <MinPartialCharge>  (34) 
-0.496758

>  <MaxAbsPartialCharge>  (34) 
0.496758

>  <MinAbsPartialCharge>  (34) 
0.235814

>  <FpDensityMorgan1>  (34) 
1.230769

>  <FpDensityMorgan2>  (34) 
2.076923

>  <FpDensityMorgan3>  (34) 
2.884615

>  <BCUT2D_MWHI>  (34) 
32.133491

>  <BCUT2D_MWLOW>  (34) 
9.896618

>  <BCUT2D_CHGHI>  (34) 
2.320649

>  <BCUT2D_CHGLO>  (34) 
-2.304224

>  <BCUT2D_LOGPHI>  (34) 
2.347857

>  <BCUT2D_LOGPLOW>  (34) 
-2.397255

>  <BCUT2D_MRHI>  (34) 
7.138136

>  <BCUT2D_MRLOW>  (34) 
-0.120682

>  <AvgIpc>  (34) 
3.187059

>  <BalabanJ>  (34) 
1.59384

>  <BertzCT>  (34) 
910.184468

>  <Chi0>  (34) 
17.932511

>  <Chi0n>  (34) 
14.461209

>  <Chi0v>  (34) 
15.277705

>  <Chi1>  (34) 
12.758351

>  <Chi1n>  (34) 
8.573034

>  <Chi1v>  (34) 
9.452686

>  <Chi2n>  (34) 
6.212513

>  <Chi2v>  (34) 
7.049066

>  <Chi3n>  (34) 
4.63386

>  <Chi3v>  (34) 
5.497463

>  <Chi4n>  (34) 
3.276233

>  <Chi4v>  (34) 
4.141613

>  <HallKierAlpha>  (34) 
-2.73

>  <Ipc>  (34) 
1794021.154963

>  <Kappa1>  (34) 
16.723096

>  <Kappa2>  (34) 
7.253313

>  <Kappa3>  (34) 
3.198674

>  <LabuteASA>  (34) 
155.843973

>  <PEOE_VSA1>  (34) 
4.736863

>  <PEOE_VSA10>  (34) 
5.749512

>  <PEOE_VSA11>  (34) 
5.131558

>  <PEOE_VSA12>  (34) 
5.90718

>  <PEOE_VSA13>  (34) 
0.0

>  <PEOE_VSA14>  (34) 
0.0

>  <PEOE_VSA2>  (34) 
14.678425

>  <PEOE_VSA3>  (34) 
4.983979

>  <PEOE_VSA4>  (34) 
0.0

>  <PEOE_VSA5>  (34) 
11.336786

>  <PEOE_VSA6>  (34) 
12.132734

>  <PEOE_VSA7>  (34) 
42.670563

>  <PEOE_VSA8>  (34) 
29.881958

>  <PEOE_VSA9>  (34) 
18.721632

>  <SMR_VSA1>  (34) 
9.5314

>  <SMR_VSA10>  (34) 
22.375524

>  <SMR_VSA2>  (34) 
0.0

>  <SMR_VSA3>  (34) 
9.967957

>  <SMR_VSA4>  (34) 
0.0

>  <SMR_VSA5>  (34) 
18.759549

>  <SMR_VSA6>  (34) 
18.554464

>  <SMR_VSA7>  (34) 
59.735404

>  <SMR_VSA8>  (34) 
0.0

>  <SMR_VSA9>  (34) 
17.006891

>  <SlogP_VSA1>  (34) 
9.636773

>  <SlogP_VSA10>  (34) 
5.131558

>  <SlogP_VSA11>  (34) 
5.749512

>  <SlogP_VSA12>  (34) 
11.336786

>  <SlogP_VSA2>  (34) 
29.529691

>  <SlogP_VSA3>  (34) 
4.794537

>  <SlogP_VSA4>  (34) 
0.0

>  <SlogP_VSA5>  (34) 
24.323001

>  <SlogP_VSA6>  (34) 
54.171952

>  <SlogP_VSA7>  (34) 
0.0

>  <SlogP_VSA8>  (34) 
11.257379

>  <SlogP_VSA9>  (34) 
0.0

>  <EState_VSA1>  (34) 
0.0

>  <EState_VSA10>  (34) 
4.794537

>  <EState_VSA11>  (34) 
0.0

>  <EState_VSA2>  (34) 
11.825086

>  <EState_VSA3>  (34) 
6.544756

>  <EState_VSA4>  (34) 
40.543545

>  <EState_VSA5>  (34) 
11.336786

>  <EState_VSA6>  (34) 
19.503485

>  <EState_VSA7>  (34) 
46.678175

>  <EState_VSA8>  (34) 
9.967957

>  <EState_VSA9>  (34) 
4.736863

>  <VSA_EState1>  (34) 
5.304414

>  <VSA_EState10>  (34) 
1.508421

>  <VSA_EState2>  (34) 
23.661624

>  <VSA_EState3>  (34) 
2.751871

>  <VSA_EState4>  (34) 
2.893492

>  <VSA_EState5>  (34) 
0.744354

>  <VSA_EState6>  (34) 
11.641554

>  <VSA_EState7>  (34) 
5.306862

>  <VSA_EState8>  (34) 
0.710913

>  <VSA_EState9>  (34) 
1.643163

>  <FractionCSP3>  (34) 
0.25

>  <HeavyAtomCount>  (34) 
26

>  <NHOHCount>  (34) 
0

>  <NOCount>  (34) 
5

>  <NumAliphaticCarbocycles>  (34) 
0

>  <NumAliphaticHeterocycles>  (34) 
1

>  <NumAliphaticRings>  (34) 
1

>  <NumAromaticCarbocycles>  (34) 
1

>  <NumAromaticHeterocycles>  (34) 
2

>  <NumAromaticRings>  (34) 
3

>  <NumHAcceptors>  (34) 
5

>  <NumHDonors>  (34) 
0

>  <NumHeteroatoms>  (34) 
6

>  <NumRotatableBonds>  (34) 
4

>  <NumSaturatedCarbocycles>  (34) 
0

>  <NumSaturatedHeterocycles>  (34) 
1

>  <NumSaturatedRings>  (34) 
1

>  <RingCount>  (34) 
4

>  <MolLogP>  (34) 
4.1243

>  <MolMR>  (34) 
102.667

>  <fr_Al_COO>  (34) 
0

>  <fr_Al_OH>  (34) 
0

>  <fr_Al_OH_noTert>  (34) 
0

>  <fr_ArN>  (34) 
0

>  <fr_Ar_COO>  (34) 
0

>  <fr_Ar_N>  (34) 
2

>  <fr_Ar_NH>  (34) 
0

>  <fr_Ar_OH>  (34) 
0

>  <fr_COO>  (34) 
0

>  <fr_COO2>  (34) 
0

>  <fr_C_O>  (34) 
1

>  <fr_C_O_noCOO>  (34) 
1

>  <fr_C_S>  (34) 
0

>  <fr_HOCCN>  (34) 
0

>  <fr_Imine>  (34) 
0

>  <fr_NH0>  (34) 
3

>  <fr_NH1>  (34) 
0

>  <fr_NH2>  (34) 
0

>  <fr_N_O>  (34) 
0

>  <fr_Ndealkylation1>  (34) 
0

>  <fr_Ndealkylation2>  (34) 
0

>  <fr_Nhpyrrole>  (34) 
0

>  <fr_SH>  (34) 
0

>  <fr_aldehyde>  (34) 
0

>  <fr_alkyl_carbamate>  (34) 
0

>  <fr_alkyl_halide>  (34) 
0

>  <fr_allylic_oxid>  (34) 
0

>  <fr_amide>  (34) 
1

>  <fr_amidine>  (34) 
0

>  <fr_aniline>  (34) 
1

>  <fr_aryl_methyl>  (34) 
0

>  <fr_azide>  (34) 
0

>  <fr_azo>  (34) 
0

>  <fr_barbitur>  (34) 
0

>  <fr_benzene>  (34) 
1

>  <fr_benzodiazepine>  (34) 
0

>  <fr_bicyclic>  (34) 
0

>  <fr_diazo>  (34) 
0

>  <fr_dihydropyridine>  (34) 
0

>  <fr_epoxide>  (34) 
0

>  <fr_ester>  (34) 
0

>  <fr_ether>  (34) 
1

>  <fr_furan>  (34) 
0

>  <fr_guanido>  (34) 
0

>  <fr_halogen>  (34) 
0

>  <fr_hdrzine>  (34) 
0

>  <fr_hdrzone>  (34) 
0

>  <fr_imidazole>  (34) 
0

>  <fr_imide>  (34) 
0

>  <fr_isocyan>  (34) 
0

>  <fr_isothiocyan>  (34) 
0

>  <fr_ketone>  (34) 
0

>  <fr_ketone_Topliss>  (34) 
0

>  <fr_lactam>  (34) 
0

>  <fr_lactone>  (34) 
0

>  <fr_methoxy>  (34) 
1

>  <fr_morpholine>  (34) 
0

>  <fr_nitrile>  (34) 
0

>  <fr_nitro>  (34) 
0

>  <fr_nitro_arom>  (34) 
0

>  <fr_nitro_arom_nonortho>  (34) 
0

>  <fr_nitroso>  (34) 
0

>  <fr_oxazole>  (34) 
0

>  <fr_oxime>  (34) 
0

>  <fr_para_hydroxylation>  (34) 
0

>  <fr_phenol>  (34) 
0

>  <fr_phenol_noOrthoHbond>  (34) 
0

>  <fr_phos_acid>  (34) 
0

>  <fr_phos_ester>  (34) 
0

>  <fr_piperdine>  (34) 
1

>  <fr_piperzine>  (34) 
0

>  <fr_priamide>  (34) 
0

>  <fr_prisulfonamd>  (34) 
0

>  <fr_pyridine>  (34) 
1

>  <fr_quatN>  (34) 
0

>  <fr_sulfide>  (34) 
0

>  <fr_sulfonamd>  (34) 
0

>  <fr_sulfone>  (34) 
0

>  <fr_term_acetylene>  (34) 
0

>  <fr_tetrazole>  (34) 
0

>  <fr_thiazole>  (34) 
1

>  <fr_thiocyan>  (34) 
0

>  <fr_thiophene>  (34) 
0

>  <fr_unbrch_alkane>  (34) 
0

>  <fr_urea>  (34) 
0

>  <NP_Likeness>  (34) 
-1.219745

$$$$
CHEMBL3581131
     RDKit          3D

  0  0  0  0  0  0  0  0  0  0999 V3000
M  V30 BEGIN CTAB
M  V30 COUNTS 38 40 0 0 0
M  V30 BEGIN ATOM
M  V30 1 C -0.575535 -6.114455 -0.210492 0
M  V30 2 O 0.795709 -5.856395 -0.434934 0
M  V30 3 C 1.274637 -4.691322 -0.992575 0
M  V30 4 C 2.645808 -4.637607 -1.125908 0
M  V30 5 C 3.279399 -3.554452 -1.659365 0
M  V30 6 C 2.513473 -2.486418 -2.074434 0
M  V30 7 C 1.140156 -2.485970 -1.965083 0
M  V30 8 C 0.266935 -1.345748 -2.403857 0
M  V30 9 C 0.144130 -0.466803 -1.208764 0
M  V30 10 O 0.879507 -1.385566 -0.765951 0
M  V30 11 N -0.573230 0.733839 -1.108357 0
M  V30 12 C -0.572502 1.453423 0.152148 0
M  V30 13 C 0.370523 2.402493 0.440211 0
M  V30 14 N 0.295977 3.007431 1.609658 0
M  V30 15 C -0.511019 2.806345 2.434597 0
M  V30 16 C -0.773160 3.359709 3.787424 0
M  V30 17 C 0.051902 4.339223 4.301260 0
M  V30 18 C -0.245410 4.810897 5.562384 0
M  V30 19 N -1.286783 4.349892 6.273580 0
M  V30 20 C -2.068223 3.404859 5.756555 0
M  V30 21 C -1.852288 2.870055 4.503473 0
M  V30 22 S -1.596829 1.476430 1.687112 0
M  V30 23 C 0.534460 -3.606710 -1.417094 0
M  V30 24 H -1.122392 -5.187373 0.015831 0
M  V30 25 H -0.735004 -6.815904 0.635132 0
M  V30 26 H -0.961876 -6.585154 -1.134154 0
M  V30 27 H 3.304447 -5.450980 -0.815848 0
M  V30 28 H 4.352224 -3.444197 -1.794109 0
M  V30 29 H 2.938924 -1.574175 -2.515089 0
M  V30 30 H -0.695357 -1.726716 -2.774883 0
M  V30 31 H 0.821184 -0.751560 -3.174686 0
M  V30 32 H -1.059834 1.018438 -1.967258 0
M  V30 33 H 1.197337 2.714226 -0.219687 0
M  V30 34 H 0.859831 4.642504 3.654124 0
M  V30 35 H 0.423539 5.579077 5.933440 0
M  V30 36 H -2.934111 2.993711 6.299068 0
M  V30 37 H -2.499102 2.092491 4.083617 0
M  V30 38 H -0.552724 -3.708669 -1.284907 0
M  V30 END ATOM
M  V30 BEGIN BOND
M  V30 1 1 1 2
M  V30 2 1 2 3
M  V30 3 2 3 4
M  V30 4 1 4 5
M  V30 5 2 5 6
M  V30 6 1 6 7
M  V30 7 1 7 8
M  V30 8 1 8 9
M  V30 9 2 9 10
M  V30 10 1 9 11
M  V30 11 1 11 12
M  V30 12 2 12 13
M  V30 13 1 13 14
M  V30 14 2 14 15
M  V30 15 1 15 16
M  V30 16 2 16 17
M  V30 17 1 17 18
M  V30 18 2 18 19
M  V30 19 1 19 20
M  V30 20 2 20 21
M  V30 21 1 15 22
M  V30 22 2 7 23
M  V30 23 1 23 3
M  V30 24 1 22 12
M  V30 25 1 21 16
M  V30 26 1 1 24
M  V30 27 1 1 25
M  V30 28 1 1 26
M  V30 29 1 4 27
M  V30 30 1 5 28
M  V30 31 1 6 29
M  V30 32 1 8 30
M  V30 33 1 8 31
M  V30 34 1 11 32
M  V30 35 1 13 33
M  V30 36 1 17 34
M  V30 37 1 18 35
M  V30 38 1 20 36
M  V30 39 1 21 37
M  V30 40 1 23 38
M  V30 END BOND
M  V30 END CTAB
M  END
>  <Dataset>  (35) 
ChEMBL_PKA

>  <Ligand_Instance>  (35) 
nan

>  <PDB_ID>  (35) 
nan

>  <Standardized_SMILES>  (35) 
COc1cccc(CC(=O)Nc2cnc(-c3ccncc3)s2)c1

>  <Name>  (35) 
nan

>  <Pocket>  (35) 
nan

>  <ATP_Site>  (35) 
nan

>  <Peripheral>  (35) 
nan

>  <Num_H_Atoms_ProtBoundConf>  (35) 
nan

>  <Num_Resolved_Atoms>  (35) 
nan

>  <Num_Not_Resolved_Atoms>  (35) 
nan

>  <2D_Mol_H>  (35) 
<rdkit.Chem.rdchem.Mol object at 0x72a2391033e0>

>  <MW>  (35) 
325.393

>  <HBA>  (35) 
5

>  <HBD>  (35) 
1

>  <LogP>  (35) 
3.3949

>  <NRB>  (35) 
6

>  <TPSA>  (35) 
64.11

>  <Num_Heavy_Atoms>  (35) 
23

>  <Ro5>  (35) 
[True, True, True, True, True, True]

>  <Ro5_Fulfilled>  (35) 
True

>  <Ro3>  (35) 
[False, False, True, False]

>  <Ro3_Fulfilled>  (35) 
False

>  <Fsp3>  (35) 
0.117647

>  <Fsp3_0.42>  (35) 
False

>  <Fsp3_0.45>  (35) 
False

>  <Stereogenic_Carbons>  (35) 
0

>  <C_Atoms>  (35) 
17

>  <FCStereo>  (35) 
0.0

>  <SPS>  (35) 
237

>  <nSPS>  (35) 
10.304348

>  <PBF>  (35) 
0.997615

>  <PBF_0.6>  (35) 
True

>  <nPBF>  (35) 
0.043375

>  <nPBF_0.016>  (35) 
True

>  <PMI1>  (35) 
984.579675

>  <PMI2>  (35) 
6115.82128

>  <PMI3>  (35) 
6456.667934

>  <NPR1>  (35) 
0.15249

>  <NPR2>  (35) 
0.94721

>  <Sum_NPR>  (35) 
1.0997

>  <Sum_NPR_1.07>  (35) 
True

>  <Sum_NPR_1.2>  (35) 
False

>  <MaxAbsEStateIndex>  (35) 
12.144219

>  <MaxEStateIndex>  (35) 
12.144219

>  <MinAbsEStateIndex>  (35) 
0.080388

>  <MinEStateIndex>  (35) 
-0.080388

>  <qed>  (35) 
0.780739

>  <MolWt>  (35) 
325.393

>  <HeavyAtomMolWt>  (35) 
310.273

>  <ExactMolWt>  (35) 
325.088498

>  <NumValenceElectrons>  (35) 
116

>  <NumRadicalElectrons>  (35) 
0

>  <MaxPartialCharge>  (35) 
0.228942

>  <MinPartialCharge>  (35) 
-0.496758

>  <MaxAbsPartialCharge>  (35) 
0.496758

>  <MinAbsPartialCharge>  (35) 
0.228942

>  <FpDensityMorgan1>  (35) 
1.26087

>  <FpDensityMorgan2>  (35) 
2.086957

>  <FpDensityMorgan3>  (35) 
2.869565

>  <BCUT2D_MWHI>  (35) 
32.133577

>  <BCUT2D_MWLOW>  (35) 
10.129306

>  <BCUT2D_CHGHI>  (35) 
2.08773

>  <BCUT2D_CHGLO>  (35) 
-2.04319

>  <BCUT2D_LOGPHI>  (35) 
2.275326

>  <BCUT2D_LOGPLOW>  (35) 
-2.129605

>  <BCUT2D_MRHI>  (35) 
7.186088

>  <BCUT2D_MRLOW>  (35) 
-0.1151

>  <AvgIpc>  (35) 
3.038737

>  <BalabanJ>  (35) 
1.650954

>  <BertzCT>  (35) 
802.36287

>  <Chi0>  (35) 
16.070703

>  <Chi0n>  (35) 
12.522431

>  <Chi0v>  (35) 
13.338928

>  <Chi1>  (35) 
11.241515

>  <Chi1n>  (35) 
7.034114

>  <Chi1v>  (35) 
7.850611

>  <Chi2n>  (35) 
4.842035

>  <Chi2v>  (35) 
5.872684

>  <Chi3n>  (35) 
3.19441

>  <Chi3v>  (35) 
4.156256

>  <Chi4n>  (35) 
2.109278

>  <Chi4v>  (35) 
2.947202

>  <HallKierAlpha>  (35) 
-2.73

>  <Ipc>  (35) 
291147.481458

>  <Kappa1>  (35) 
15.176679

>  <Kappa2>  (35) 
7.019949

>  <Kappa3>  (35) 
3.924185

>  <LabuteASA>  (35) 
137.545007

>  <PEOE_VSA1>  (35) 
10.053652

>  <PEOE_VSA10>  (35) 
15.758218

>  <PEOE_VSA11>  (35) 
0.0

>  <PEOE_VSA12>  (35) 
5.90718

>  <PEOE_VSA13>  (35) 
0.0

>  <PEOE_VSA14>  (35) 
0.0

>  <PEOE_VSA2>  (35) 
9.778516

>  <PEOE_VSA3>  (35) 
4.983979

>  <PEOE_VSA4>  (35) 
0.0

>  <PEOE_VSA5>  (35) 
0.0

>  <PEOE_VSA6>  (35) 
23.46952

>  <PEOE_VSA7>  (35) 
29.82892

>  <PEOE_VSA8>  (35) 
17.957139

>  <PEOE_VSA9>  (35) 
19.727463

>  <SMR_VSA1>  (35) 
9.5314

>  <SMR_VSA10>  (35) 
22.245048

>  <SMR_VSA2>  (35) 
0.0

>  <SMR_VSA3>  (35) 
9.967957

>  <SMR_VSA4>  (35) 
0.0

>  <SMR_VSA5>  (35) 
6.420822

>  <SMR_VSA6>  (35) 
12.426586

>  <SMR_VSA7>  (35) 
60.552185

>  <SMR_VSA8>  (35) 
0.0

>  <SMR_VSA9>  (35) 
16.320587

>  <SlogP_VSA1>  (35) 
10.053652

>  <SlogP_VSA10>  (35) 
5.001082

>  <SlogP_VSA11>  (35) 
5.749512

>  <SlogP_VSA12>  (35) 
11.336786

>  <SlogP_VSA2>  (35) 
22.984934

>  <SlogP_VSA3>  (35) 
11.215359

>  <SlogP_VSA4>  (35) 
0.0

>  <SlogP_VSA5>  (35) 
5.563451

>  <SlogP_VSA6>  (35) 
54.988733

>  <SlogP_VSA7>  (35) 
0.0

>  <SlogP_VSA8>  (35) 
10.571075

>  <SlogP_VSA9>  (35) 
0.0

>  <EState_VSA1>  (35) 
0.0

>  <EState_VSA10>  (35) 
4.794537

>  <EState_VSA11>  (35) 
0.0

>  <EState_VSA2>  (35) 
5.90718

>  <EState_VSA3>  (35) 
6.420822

>  <EState_VSA4>  (35) 
26.88512

>  <EState_VSA5>  (35) 
11.336786

>  <EState_VSA6>  (35) 
25.700328

>  <EState_VSA7>  (35) 
36.398202

>  <EState_VSA8>  (35) 
15.284746

>  <EState_VSA9>  (35) 
4.736863

>  <VSA_EState1>  (35) 
5.162267

>  <VSA_EState10>  (35) 
1.436999

>  <VSA_EState2>  (35) 
20.458048

>  <VSA_EState3>  (35) 
4.456258

>  <VSA_EState4>  (35) 
1.887979

>  <VSA_EState5>  (35) 
0.66319

>  <VSA_EState6>  (35) 
11.258391

>  <VSA_EState7>  (35) 
5.401935

>  <VSA_EState8>  (35) 
0.0

>  <VSA_EState9>  (35) 
1.608267

>  <FractionCSP3>  (35) 
0.117647

>  <HeavyAtomCount>  (35) 
23

>  <NHOHCount>  (35) 
1

>  <NOCount>  (35) 
5

>  <NumAliphaticCarbocycles>  (35) 
0

>  <NumAliphaticHeterocycles>  (35) 
0

>  <NumAliphaticRings>  (35) 
0

>  <NumAromaticCarbocycles>  (35) 
1

>  <NumAromaticHeterocycles>  (35) 
2

>  <NumAromaticRings>  (35) 
3

>  <NumHAcceptors>  (35) 
5

>  <NumHDonors>  (35) 
1

>  <NumHeteroatoms>  (35) 
6

>  <NumRotatableBonds>  (35) 
5

>  <NumSaturatedCarbocycles>  (35) 
0

>  <NumSaturatedHeterocycles>  (35) 
0

>  <NumSaturatedRings>  (35) 
0

>  <RingCount>  (35) 
3

>  <MolLogP>  (35) 
3.3949

>  <MolMR>  (35) 
90.6727

>  <fr_Al_COO>  (35) 
0

>  <fr_Al_OH>  (35) 
0

>  <fr_Al_OH_noTert>  (35) 
0

>  <fr_ArN>  (35) 
0

>  <fr_Ar_COO>  (35) 
0

>  <fr_Ar_N>  (35) 
2

>  <fr_Ar_NH>  (35) 
0

>  <fr_Ar_OH>  (35) 
0

>  <fr_COO>  (35) 
0

>  <fr_COO2>  (35) 
0

>  <fr_C_O>  (35) 
1

>  <fr_C_O_noCOO>  (35) 
1

>  <fr_C_S>  (35) 
0

>  <fr_HOCCN>  (35) 
0

>  <fr_Imine>  (35) 
0

>  <fr_NH0>  (35) 
2

>  <fr_NH1>  (35) 
1

>  <fr_NH2>  (35) 
0

>  <fr_N_O>  (35) 
0

>  <fr_Ndealkylation1>  (35) 
0

>  <fr_Ndealkylation2>  (35) 
0

>  <fr_Nhpyrrole>  (35) 
0

>  <fr_SH>  (35) 
0

>  <fr_aldehyde>  (35) 
0

>  <fr_alkyl_carbamate>  (35) 
0

>  <fr_alkyl_halide>  (35) 
0

>  <fr_allylic_oxid>  (35) 
0

>  <fr_amide>  (35) 
1

>  <fr_amidine>  (35) 
0

>  <fr_aniline>  (35) 
1

>  <fr_aryl_methyl>  (35) 
0

>  <fr_azide>  (35) 
0

>  <fr_azo>  (35) 
0

>  <fr_barbitur>  (35) 
0

>  <fr_benzene>  (35) 
1

>  <fr_benzodiazepine>  (35) 
0

>  <fr_bicyclic>  (35) 
0

>  <fr_diazo>  (35) 
0

>  <fr_dihydropyridine>  (35) 
0

>  <fr_epoxide>  (35) 
0

>  <fr_ester>  (35) 
0

>  <fr_ether>  (35) 
1

>  <fr_furan>  (35) 
0

>  <fr_guanido>  (35) 
0

>  <fr_halogen>  (35) 
0

>  <fr_hdrzine>  (35) 
0

>  <fr_hdrzone>  (35) 
0

>  <fr_imidazole>  (35) 
0

>  <fr_imide>  (35) 
0

>  <fr_isocyan>  (35) 
0

>  <fr_isothiocyan>  (35) 
0

>  <fr_ketone>  (35) 
0

>  <fr_ketone_Topliss>  (35) 
0

>  <fr_lactam>  (35) 
0

>  <fr_lactone>  (35) 
0

>  <fr_methoxy>  (35) 
1

>  <fr_morpholine>  (35) 
0

>  <fr_nitrile>  (35) 
0

>  <fr_nitro>  (35) 
0

>  <fr_nitro_arom>  (35) 
0

>  <fr_nitro_arom_nonortho>  (35) 
0

>  <fr_nitroso>  (35) 
0

>  <fr_oxazole>  (35) 
0

>  <fr_oxime>  (35) 
0

>  <fr_para_hydroxylation>  (35) 
0

>  <fr_phenol>  (35) 
0

>  <fr_phenol_noOrthoHbond>  (35) 
0

>  <fr_phos_acid>  (35) 
0

>  <fr_phos_ester>  (35) 
0

>  <fr_piperdine>  (35) 
0

>  <fr_piperzine>  (35) 
0

>  <fr_priamide>  (35) 
0

>  <fr_prisulfonamd>  (35) 
0

>  <fr_pyridine>  (35) 
1

>  <fr_quatN>  (35) 
0

>  <fr_sulfide>  (35) 
0

>  <fr_sulfonamd>  (35) 
0

>  <fr_sulfone>  (35) 
0

>  <fr_term_acetylene>  (35) 
0

>  <fr_tetrazole>  (35) 
0

>  <fr_thiazole>  (35) 
1

>  <fr_thiocyan>  (35) 
0

>  <fr_thiophene>  (35) 
0

>  <fr_unbrch_alkane>  (35) 
0

>  <fr_urea>  (35) 
0

>  <NP_Likeness>  (35) 
-1.429935

$$$$
CHEMBL3581132
     RDKit          3D

  0  0  0  0  0  0  0  0  0  0999 V3000
M  V30 BEGIN CTAB
M  V30 COUNTS 39 41 0 0 0
M  V30 BEGIN ATOM
M  V30 1 C -0.124638 -5.872989 -0.169207 0
M  V30 2 O 1.260688 -5.684900 -0.298901 0
M  V30 3 C 1.729134 -4.488758 -0.830761 0
M  V30 4 C 3.095781 -4.280834 -0.967329 0
M  V30 5 C 3.564773 -3.092274 -1.495463 0
M  V30 6 C 2.676645 -2.114654 -1.886217 0
M  V30 7 C 1.297066 -2.312657 -1.753454 0
M  V30 8 C 0.365123 -1.220143 -2.189074 0
M  V30 9 C 0.063977 -0.346203 -1.044977 0
M  V30 10 O 0.607993 -0.653859 0.046822 0
M  V30 11 N -0.787044 0.786888 -1.132639 0
M  V30 12 C -1.093528 1.660538 -0.001138 0
M  V30 13 C -0.736389 1.666334 1.259537 0
M  V30 14 C -1.225873 2.664431 2.064455 0
M  V30 15 C -0.880003 2.757126 3.509163 0
M  V30 16 C 0.365729 2.321779 3.918894 0
M  V30 17 C 0.736052 2.381699 5.247495 0
M  V30 18 N -0.143460 2.876816 6.154612 0
M  V30 19 C -1.342351 3.296142 5.762743 0
M  V30 20 C -1.766398 3.258604 4.439675 0
M  V30 21 C -2.053381 3.602684 1.537369 0
M  V30 22 S -2.141487 3.009245 -0.263885 0
M  V30 23 C 0.852622 -3.492281 -1.229816 0
M  V30 24 H -0.585573 -4.994258 0.330477 0
M  V30 25 H -0.360290 -6.735963 0.512392 0
M  V30 26 H -0.580034 -5.992670 -1.160279 0
M  V30 27 H 3.814699 -5.044357 -0.663321 0
M  V30 28 H 4.624697 -2.916256 -1.608174 0
M  V30 29 H 3.016301 -1.156169 -2.310203 0
M  V30 30 H -0.536049 -1.686922 -2.632193 0
M  V30 31 H 0.877228 -0.709357 -3.034299 0
M  V30 32 H -1.164645 0.929653 -2.070151 0
M  V30 33 H -0.074433 0.887963 1.612383 0
M  V30 34 H 1.031938 1.935224 3.159564 0
M  V30 35 H 1.732694 2.025892 5.528496 0
M  V30 36 H -2.050247 3.691279 6.472412 0
M  V30 37 H -2.735053 3.590973 4.081892 0
M  V30 38 H -2.532694 4.442946 1.982520 0
M  V30 39 H -0.212604 -3.631514 -1.133310 0
M  V30 END ATOM
M  V30 BEGIN BOND
M  V30 1 1 1 2
M  V30 2 1 2 3
M  V30 3 2 3 4
M  V30 4 1 4 5
M  V30 5 2 5 6
M  V30 6 1 6 7
M  V30 7 1 7 8
M  V30 8 1 8 9
M  V30 9 2 9 10
M  V30 10 1 9 11
M  V30 11 1 11 12
M  V30 12 2 12 13
M  V30 13 1 13 14
M  V30 14 1 14 15
M  V30 15 2 15 16
M  V30 16 1 16 17
M  V30 17 2 17 18
M  V30 18 1 18 19
M  V30 19 2 19 20
M  V30 20 2 14 21
M  V30 21 1 21 22
M  V30 22 2 7 23
M  V30 23 1 23 3
M  V30 24 1 22 12
M  V30 25 1 20 15
M  V30 26 1 1 24
M  V30 27 1 1 25
M  V30 28 1 1 26
M  V30 29 1 4 27
M  V30 30 1 5 28
M  V30 31 1 6 29
M  V30 32 1 8 30
M  V30 33 1 8 31
M  V30 34 1 11 32
M  V30 35 1 13 33
M  V30 36 1 16 34
M  V30 37 1 17 35
M  V30 38 1 19 36
M  V30 39 1 20 37
M  V30 40 1 21 38
M  V30 41 1 23 39
M  V30 END BOND
M  V30 END CTAB
M  END
>  <Dataset>  (36) 
ChEMBL_PKA

>  <Ligand_Instance>  (36) 
nan

>  <PDB_ID>  (36) 
nan

>  <Standardized_SMILES>  (36) 
COc1cccc(CC(=O)Nc2cc(-c3ccncc3)cs2)c1

>  <Name>  (36) 
nan

>  <Pocket>  (36) 
nan

>  <ATP_Site>  (36) 
nan

>  <Peripheral>  (36) 
nan

>  <Num_H_Atoms_ProtBoundConf>  (36) 
nan

>  <Num_Resolved_Atoms>  (36) 
nan

>  <Num_Not_Resolved_Atoms>  (36) 
nan

>  <2D_Mol_H>  (36) 
<rdkit.Chem.rdchem.Mol object at 0x72a2391034c0>

>  <MW>  (36) 
324.405

>  <HBA>  (36) 
4

>  <HBD>  (36) 
1

>  <LogP>  (36) 
3.9999

>  <NRB>  (36) 
6

>  <TPSA>  (36) 
51.22

>  <Num_Heavy_Atoms>  (36) 
23

>  <Ro5>  (36) 
[True, True, True, True, True, True]

>  <Ro5_Fulfilled>  (36) 
True

>  <Ro3>  (36) 
[False, False, True, False]

>  <Ro3_Fulfilled>  (36) 
False

>  <Fsp3>  (36) 
0.111111

>  <Fsp3_0.42>  (36) 
False

>  <Fsp3_0.45>  (36) 
False

>  <Stereogenic_Carbons>  (36) 
0

>  <C_Atoms>  (36) 
18

>  <FCStereo>  (36) 
0.0

>  <SPS>  (36) 
237

>  <nSPS>  (36) 
10.304348

>  <PBF>  (36) 
1.078871

>  <PBF_0.6>  (36) 
True

>  <nPBF>  (36) 
0.046907

>  <nPBF_0.016>  (36) 
True

>  <PMI1>  (36) 
1376.782227

>  <PMI2>  (36) 
5096.361723

>  <PMI3>  (36) 
5838.20339

>  <NPR1>  (36) 
0.235823

>  <NPR2>  (36) 
0.872933

>  <Sum_NPR>  (36) 
1.108756

>  <Sum_NPR_1.07>  (36) 
True

>  <Sum_NPR_1.2>  (36) 
False

>  <MaxAbsEStateIndex>  (36) 
12.171997

>  <MaxEStateIndex>  (36) 
12.171997

>  <MinAbsEStateIndex>  (36) 
0.040388

>  <MinEStateIndex>  (36) 
-0.040388

>  <qed>  (36) 
0.771565

>  <MolWt>  (36) 
324.405

>  <HeavyAtomMolWt>  (36) 
308.277

>  <ExactMolWt>  (36) 
324.093249

>  <NumValenceElectrons>  (36) 
116

>  <NumRadicalElectrons>  (36) 
0

>  <MaxPartialCharge>  (36) 
0.228899

>  <MinPartialCharge>  (36) 
-0.496758

>  <MaxAbsPartialCharge>  (36) 
0.496758

>  <MinAbsPartialCharge>  (36) 
0.228899

>  <FpDensityMorgan1>  (36) 
1.173913

>  <FpDensityMorgan2>  (36) 
2.0

>  <FpDensityMorgan3>  (36) 
2.782609

>  <BCUT2D_MWHI>  (36) 
32.133484

>  <BCUT2D_MWLOW>  (36) 
10.122183

>  <BCUT2D_CHGHI>  (36) 
2.077356

>  <BCUT2D_CHGLO>  (36) 
-2.046424

>  <BCUT2D_LOGPHI>  (36) 
2.283034

>  <BCUT2D_LOGPLOW>  (36) 
-2.129468

>  <BCUT2D_MRHI>  (36) 
7.143281

>  <BCUT2D_MRLOW>  (36) 
-0.115098

>  <AvgIpc>  (36) 
3.038737

>  <BalabanJ>  (36) 
1.650954

>  <BertzCT>  (36) 
799.545976

>  <Chi0>  (36) 
16.070703

>  <Chi0n>  (36) 
12.652568

>  <Chi0v>  (36) 
13.469065

>  <Chi1>  (36) 
11.241515

>  <Chi1n>  (36) 
7.161237

>  <Chi1v>  (36) 
8.04089

>  <Chi2n>  (36) 
5.012003

>  <Chi2v>  (36) 
5.923234

>  <Chi3n>  (36) 
3.37456

>  <Chi3v>  (36) 
4.220192

>  <Chi4n>  (36) 
2.246953

>  <Chi4v>  (36) 
3.07278

>  <HallKierAlpha>  (36) 
-2.66

>  <Ipc>  (36) 
291147.481458

>  <Kappa1>  (36) 
15.243951

>  <Kappa2>  (36) 
7.066819

>  <Kappa3>  (36) 
3.955947

>  <LabuteASA>  (36) 
138.325359

>  <PEOE_VSA1>  (36) 
10.053652

>  <PEOE_VSA10>  (36) 
5.749512

>  <PEOE_VSA11>  (36) 
0.0

>  <PEOE_VSA12>  (36) 
5.90718

>  <PEOE_VSA13>  (36) 
0.0

>  <PEOE_VSA14>  (36) 
0.0

>  <PEOE_VSA2>  (36) 
9.778516

>  <PEOE_VSA3>  (36) 
0.0

>  <PEOE_VSA4>  (36) 
0.0

>  <PEOE_VSA5>  (36) 
11.336786

>  <PEOE_VSA6>  (36) 
12.132734

>  <PEOE_VSA7>  (36) 
47.02219

>  <PEOE_VSA8>  (36) 
17.77375

>  <PEOE_VSA9>  (36) 
18.531701

>  <SMR_VSA1>  (36) 
9.5314

>  <SMR_VSA10>  (36) 
22.245048

>  <SMR_VSA2>  (36) 
0.0

>  <SMR_VSA3>  (36) 
4.983979

>  <SMR_VSA4>  (36) 
0.0

>  <SMR_VSA5>  (36) 
6.420822

>  <SMR_VSA6>  (36) 
12.426586

>  <SMR_VSA7>  (36) 
65.801771

>  <SMR_VSA8>  (36) 
0.0

>  <SMR_VSA9>  (36) 
16.876415

>  <SlogP_VSA1>  (36) 
10.053652

>  <SlogP_VSA10>  (36) 
5.001082

>  <SlogP_VSA11>  (36) 
5.749512

>  <SlogP_VSA12>  (36) 
11.336786

>  <SlogP_VSA2>  (36) 
18.000956

>  <SlogP_VSA3>  (36) 
11.215359

>  <SlogP_VSA4>  (36) 
0.0

>  <SlogP_VSA5>  (36) 
5.563451

>  <SlogP_VSA6>  (36) 
60.238319

>  <SlogP_VSA7>  (36) 
0.0

>  <SlogP_VSA8>  (36) 
11.126903

>  <SlogP_VSA9>  (36) 
0.0

>  <EState_VSA1>  (36) 
0.0

>  <EState_VSA10>  (36) 
4.794537

>  <EState_VSA11>  (36) 
0.0

>  <EState_VSA2>  (36) 
5.90718

>  <EState_VSA3>  (36) 
6.420822

>  <EState_VSA4>  (36) 
27.440948

>  <EState_VSA5>  (36) 
11.336786

>  <EState_VSA6>  (36) 
19.503485

>  <EState_VSA7>  (36) 
47.844632

>  <EState_VSA8>  (36) 
10.300767

>  <EState_VSA9>  (36) 
4.736863

>  <VSA_EState1>  (36) 
5.172267

>  <VSA_EState10>  (36) 
1.513884

>  <VSA_EState2>  (36) 
16.182445

>  <VSA_EState3>  (36) 
5.803167

>  <VSA_EState4>  (36) 
3.089249

>  <VSA_EState5>  (36) 
0.715535

>  <VSA_EState6>  (36) 
13.405157

>  <VSA_EState7>  (36) 
3.835098

>  <VSA_EState8>  (36) 
0.0

>  <VSA_EState9>  (36) 
1.616532

>  <FractionCSP3>  (36) 
0.111111

>  <HeavyAtomCount>  (36) 
23

>  <NHOHCount>  (36) 
1

>  <NOCount>  (36) 
4

>  <NumAliphaticCarbocycles>  (36) 
0

>  <NumAliphaticHeterocycles>  (36) 
0

>  <NumAliphaticRings>  (36) 
0

>  <NumAromaticCarbocycles>  (36) 
1

>  <NumAromaticHeterocycles>  (36) 
2

>  <NumAromaticRings>  (36) 
3

>  <NumHAcceptors>  (36) 
4

>  <NumHDonors>  (36) 
1

>  <NumHeteroatoms>  (36) 
5

>  <NumRotatableBonds>  (36) 
5

>  <NumSaturatedCarbocycles>  (36) 
0

>  <NumSaturatedHeterocycles>  (36) 
0

>  <NumSaturatedRings>  (36) 
0

>  <RingCount>  (36) 
3

>  <MolLogP>  (36) 
3.9999

>  <MolMR>  (36) 
92.8777

>  <fr_Al_COO>  (36) 
0

>  <fr_Al_OH>  (36) 
0

>  <fr_Al_OH_noTert>  (36) 
0

>  <fr_ArN>  (36) 
0

>  <fr_Ar_COO>  (36) 
0

>  <fr_Ar_N>  (36) 
1

>  <fr_Ar_NH>  (36) 
0

>  <fr_Ar_OH>  (36) 
0

>  <fr_COO>  (36) 
0

>  <fr_COO2>  (36) 
0

>  <fr_C_O>  (36) 
1

>  <fr_C_O_noCOO>  (36) 
1

>  <fr_C_S>  (36) 
0

>  <fr_HOCCN>  (36) 
0

>  <fr_Imine>  (36) 
0

>  <fr_NH0>  (36) 
1

>  <fr_NH1>  (36) 
1

>  <fr_NH2>  (36) 
0

>  <fr_N_O>  (36) 
0

>  <fr_Ndealkylation1>  (36) 
0

>  <fr_Ndealkylation2>  (36) 
0

>  <fr_Nhpyrrole>  (36) 
0

>  <fr_SH>  (36) 
0

>  <fr_aldehyde>  (36) 
0

>  <fr_alkyl_carbamate>  (36) 
0

>  <fr_alkyl_halide>  (36) 
0

>  <fr_allylic_oxid>  (36) 
0

>  <fr_amide>  (36) 
1

>  <fr_amidine>  (36) 
0

>  <fr_aniline>  (36) 
1

>  <fr_aryl_methyl>  (36) 
0

>  <fr_azide>  (36) 
0

>  <fr_azo>  (36) 
0

>  <fr_barbitur>  (36) 
0

>  <fr_benzene>  (36) 
1

>  <fr_benzodiazepine>  (36) 
0

>  <fr_bicyclic>  (36) 
0

>  <fr_diazo>  (36) 
0

>  <fr_dihydropyridine>  (36) 
0

>  <fr_epoxide>  (36) 
0

>  <fr_ester>  (36) 
0

>  <fr_ether>  (36) 
1

>  <fr_furan>  (36) 
0

>  <fr_guanido>  (36) 
0

>  <fr_halogen>  (36) 
0

>  <fr_hdrzine>  (36) 
0

>  <fr_hdrzone>  (36) 
0

>  <fr_imidazole>  (36) 
0

>  <fr_imide>  (36) 
0

>  <fr_isocyan>  (36) 
0

>  <fr_isothiocyan>  (36) 
0

>  <fr_ketone>  (36) 
0

>  <fr_ketone_Topliss>  (36) 
0

>  <fr_lactam>  (36) 
0

>  <fr_lactone>  (36) 
0

>  <fr_methoxy>  (36) 
1

>  <fr_morpholine>  (36) 
0

>  <fr_nitrile>  (36) 
0

>  <fr_nitro>  (36) 
0

>  <fr_nitro_arom>  (36) 
0

>  <fr_nitro_arom_nonortho>  (36) 
0

>  <fr_nitroso>  (36) 
0

>  <fr_oxazole>  (36) 
0

>  <fr_oxime>  (36) 
0

>  <fr_para_hydroxylation>  (36) 
0

>  <fr_phenol>  (36) 
0

>  <fr_phenol_noOrthoHbond>  (36) 
0

>  <fr_phos_acid>  (36) 
0

>  <fr_phos_ester>  (36) 
0

>  <fr_piperdine>  (36) 
0

>  <fr_piperzine>  (36) 
0

>  <fr_priamide>  (36) 
0

>  <fr_prisulfonamd>  (36) 
0

>  <fr_pyridine>  (36) 
1

>  <fr_quatN>  (36) 
0

>  <fr_sulfide>  (36) 
0

>  <fr_sulfonamd>  (36) 
0

>  <fr_sulfone>  (36) 
0

>  <fr_term_acetylene>  (36) 
0

>  <fr_tetrazole>  (36) 
0

>  <fr_thiazole>  (36) 
0

>  <fr_thiocyan>  (36) 
0

>  <fr_thiophene>  (36) 
1

>  <fr_unbrch_alkane>  (36) 
0

>  <fr_urea>  (36) 
0

>  <NP_Likeness>  (36) 
-1.24099

$$$$
CHEMBL3581133
     RDKit          3D

  0  0  0  0  0  0  0  0  0  0999 V3000
M  V30 BEGIN CTAB
M  V30 COUNTS 39 41 0 0 0
M  V30 BEGIN ATOM
M  V30 1 C 0.966090 -5.274277 -0.998083 0
M  V30 2 O 2.168702 -4.957801 -0.316768 0
M  V30 3 C 2.722814 -3.682165 -0.370232 0
M  V30 4 C 3.892291 -3.257531 0.255228 0
M  V30 5 C 4.393168 -1.986318 0.166751 0
M  V30 6 C 3.709547 -1.058362 -0.583380 0
M  V30 7 C 2.548908 -1.369339 -1.239291 0
M  V30 8 C 1.664180 -0.537286 -2.107070 0
M  V30 9 C 0.813585 0.255364 -1.206871 0
M  V30 10 O 1.298285 1.170816 -0.513662 0
M  V30 11 N -0.588142 0.077793 -1.027301 0
M  V30 12 C -1.232887 0.951138 -0.110436 0
M  V30 13 C -1.842318 2.086259 -0.690060 0
M  V30 14 S -2.565889 2.978478 0.816420 0
M  V30 15 C -2.004334 1.810812 1.938482 0
M  V30 16 C -2.228837 1.879382 3.426052 0
M  V30 17 C -2.943530 2.968859 3.847094 0
M  V30 18 C -3.168020 3.067305 5.201778 0
M  V30 19 N -2.692474 2.123935 6.020931 0
M  V30 20 C -2.000837 1.085960 5.537712 0
M  V30 21 C -1.697332 0.857437 4.182155 0
M  V30 22 C -1.371249 0.899344 1.249757 0
M  V30 23 C 2.085874 -2.677073 -1.114054 0
M  V30 24 H 0.130972 -4.620386 -0.660177 0
M  V30 25 H 0.710583 -6.332713 -0.805940 0
M  V30 26 H 1.175529 -5.206121 -2.076522 0
M  V30 27 H 4.407288 -4.010361 0.840173 0
M  V30 28 H 5.287932 -1.696680 0.654947 0
M  V30 29 H 4.000769 -0.019875 -0.733996 0
M  V30 30 H 2.357584 0.175432 -2.615796 0
M  V30 31 H 1.150450 -1.114852 -2.871417 0
M  V30 32 H -1.055796 -0.681827 -1.576590 0
M  V30 33 H -1.909147 2.419315 -1.757737 0
M  V30 34 H -3.330263 3.731136 3.204408 0
M  V30 35 H -3.730530 3.915307 5.549067 0
M  V30 36 H -1.646709 0.358952 6.276308 0
M  V30 37 H -1.141995 0.019185 3.816274 0
M  V30 38 H -0.914151 0.033819 1.740857 0
M  V30 39 H 1.166850 -3.023865 -1.602897 0
M  V30 END ATOM
M  V30 BEGIN BOND
M  V30 1 1 1 2
M  V30 2 1 2 3
M  V30 3 2 3 4
M  V30 4 1 4 5
M  V30 5 2 5 6
M  V30 6 1 6 7
M  V30 7 1 7 8
M  V30 8 1 8 9
M  V30 9 2 9 10
M  V30 10 1 9 11
M  V30 11 1 11 12
M  V30 12 2 12 13
M  V30 13 1 13 14
M  V30 14 1 14 15
M  V30 15 1 15 16
M  V30 16 2 16 17
M  V30 17 1 17 18
M  V30 18 2 18 19
M  V30 19 1 19 20
M  V30 20 2 20 21
M  V30 21 2 15 22
M  V30 22 2 7 23
M  V30 23 1 23 3
M  V30 24 1 22 12
M  V30 25 1 21 16
M  V30 26 1 1 24
M  V30 27 1 1 25
M  V30 28 1 1 26
M  V30 29 1 4 27
M  V30 30 1 5 28
M  V30 31 1 6 29
M  V30 32 1 8 30
M  V30 33 1 8 31
M  V30 34 1 11 32
M  V30 35 1 13 33
M  V30 36 1 17 34
M  V30 37 1 18 35
M  V30 38 1 20 36
M  V30 39 1 21 37
M  V30 40 1 22 38
M  V30 41 1 23 39
M  V30 END BOND
M  V30 END CTAB
M  END
>  <Dataset>  (37) 
ChEMBL_PKA

>  <Ligand_Instance>  (37) 
nan

>  <PDB_ID>  (37) 
nan

>  <Standardized_SMILES>  (37) 
COc1cccc(CC(=O)Nc2csc(-c3ccncc3)c2)c1

>  <Name>  (37) 
nan

>  <Pocket>  (37) 
nan

>  <ATP_Site>  (37) 
nan

>  <Peripheral>  (37) 
nan

>  <Num_H_Atoms_ProtBoundConf>  (37) 
nan

>  <Num_Resolved_Atoms>  (37) 
nan

>  <Num_Not_Resolved_Atoms>  (37) 
nan

>  <2D_Mol_H>  (37) 
<rdkit.Chem.rdchem.Mol object at 0x72a2391035a0>

>  <MW>  (37) 
324.405

>  <HBA>  (37) 
4

>  <HBD>  (37) 
1

>  <LogP>  (37) 
3.9999

>  <NRB>  (37) 
6

>  <TPSA>  (37) 
51.22

>  <Num_Heavy_Atoms>  (37) 
23

>  <Ro5>  (37) 
[True, True, True, True, True, True]

>  <Ro5_Fulfilled>  (37) 
True

>  <Ro3>  (37) 
[False, False, True, False]

>  <Ro3_Fulfilled>  (37) 
False

>  <Fsp3>  (37) 
0.111111

>  <Fsp3_0.42>  (37) 
False

>  <Fsp3_0.45>  (37) 
False

>  <Stereogenic_Carbons>  (37) 
0

>  <C_Atoms>  (37) 
18

>  <FCStereo>  (37) 
0.0

>  <SPS>  (37) 
237

>  <nSPS>  (37) 
10.304348

>  <PBF>  (37) 
1.006453

>  <PBF_0.6>  (37) 
True

>  <nPBF>  (37) 
0.043759

>  <nPBF_0.016>  (37) 
True

>  <PMI1>  (37) 
1311.288855

>  <PMI2>  (37) 
4855.215997

>  <PMI3>  (37) 
5446.46167

>  <NPR1>  (37) 
0.24076

>  <NPR2>  (37) 
0.891444

>  <Sum_NPR>  (37) 
1.132204

>  <Sum_NPR_1.07>  (37) 
True

>  <Sum_NPR_1.2>  (37) 
False

>  <MaxAbsEStateIndex>  (37) 
12.16996

>  <MaxEStateIndex>  (37) 
12.16996

>  <MinAbsEStateIndex>  (37) 
0.044138

>  <MinEStateIndex>  (37) 
-0.044138

>  <qed>  (37) 
0.771565

>  <MolWt>  (37) 
324.405

>  <HeavyAtomMolWt>  (37) 
308.277

>  <ExactMolWt>  (37) 
324.093249

>  <NumValenceElectrons>  (37) 
116

>  <NumRadicalElectrons>  (37) 
0

>  <MaxPartialCharge>  (37) 
0.228319

>  <MinPartialCharge>  (37) 
-0.496758

>  <MaxAbsPartialCharge>  (37) 
0.496758

>  <MinAbsPartialCharge>  (37) 
0.228319

>  <FpDensityMorgan1>  (37) 
1.217391

>  <FpDensityMorgan2>  (37) 
2.043478

>  <FpDensityMorgan3>  (37) 
2.826087

>  <BCUT2D_MWHI>  (37) 
32.133474

>  <BCUT2D_MWLOW>  (37) 
10.125369

>  <BCUT2D_CHGHI>  (37) 
2.076223

>  <BCUT2D_CHGLO>  (37) 
-2.048361

>  <BCUT2D_LOGPHI>  (37) 
2.289392

>  <BCUT2D_LOGPLOW>  (37) 
-2.133138

>  <BCUT2D_MRHI>  (37) 
7.136345

>  <BCUT2D_MRLOW>  (37) 
-0.115115

>  <AvgIpc>  (37) 
3.038737

>  <BalabanJ>  (37) 
1.650954

>  <BertzCT>  (37) 
799.545976

>  <Chi0>  (37) 
16.070703

>  <Chi0n>  (37) 
12.652568

>  <Chi0v>  (37) 
13.469065

>  <Chi1>  (37) 
11.241515

>  <Chi1n>  (37) 
7.161237

>  <Chi1v>  (37) 
8.04089

>  <Chi2n>  (37) 
5.012003

>  <Chi2v>  (37) 
5.923234

>  <Chi3n>  (37) 
3.346882

>  <Chi3v>  (37) 
4.326154

>  <Chi4n>  (37) 
2.242345

>  <Chi4v>  (37) 
3.09042

>  <HallKierAlpha>  (37) 
-2.66

>  <Ipc>  (37) 
291147.481458

>  <Kappa1>  (37) 
15.243951

>  <Kappa2>  (37) 
7.066819

>  <Kappa3>  (37) 
3.955947

>  <LabuteASA>  (37) 
138.325359

>  <PEOE_VSA1>  (37) 
10.053652

>  <PEOE_VSA10>  (37) 
5.749512

>  <PEOE_VSA11>  (37) 
0.0

>  <PEOE_VSA12>  (37) 
5.90718

>  <PEOE_VSA13>  (37) 
0.0

>  <PEOE_VSA14>  (37) 
0.0

>  <PEOE_VSA2>  (37) 
9.778516

>  <PEOE_VSA3>  (37) 
0.0

>  <PEOE_VSA4>  (37) 
0.0

>  <PEOE_VSA5>  (37) 
11.336786

>  <PEOE_VSA6>  (37) 
12.132734

>  <PEOE_VSA7>  (37) 
41.458738

>  <PEOE_VSA8>  (37) 
22.650897

>  <PEOE_VSA9>  (37) 
19.218005

>  <SMR_VSA1>  (37) 
9.5314

>  <SMR_VSA10>  (37) 
22.931352

>  <SMR_VSA2>  (37) 
0.0

>  <SMR_VSA3>  (37) 
4.983979

>  <SMR_VSA4>  (37) 
0.0

>  <SMR_VSA5>  (37) 
6.420822

>  <SMR_VSA6>  (37) 
12.426586

>  <SMR_VSA7>  (37) 
65.801771

>  <SMR_VSA8>  (37) 
0.0

>  <SMR_VSA9>  (37) 
16.190111

>  <SlogP_VSA1>  (37) 
10.053652

>  <SlogP_VSA10>  (37) 
5.687386

>  <SlogP_VSA11>  (37) 
5.749512

>  <SlogP_VSA12>  (37) 
11.336786

>  <SlogP_VSA2>  (37) 
18.000956

>  <SlogP_VSA3>  (37) 
11.215359

>  <SlogP_VSA4>  (37) 
0.0

>  <SlogP_VSA5>  (37) 
5.563451

>  <SlogP_VSA6>  (37) 
60.238319

>  <SlogP_VSA7>  (37) 
0.0

>  <SlogP_VSA8>  (37) 
10.440599

>  <SlogP_VSA9>  (37) 
0.0

>  <EState_VSA1>  (37) 
0.0

>  <EState_VSA10>  (37) 
4.794537

>  <EState_VSA11>  (37) 
0.0

>  <EState_VSA2>  (37) 
5.90718

>  <EState_VSA3>  (37) 
6.420822

>  <EState_VSA4>  (37) 
27.440948

>  <EState_VSA5>  (37) 
0.0

>  <EState_VSA6>  (37) 
30.840271

>  <EState_VSA7>  (37) 
47.844632

>  <EState_VSA8>  (37) 
10.300767

>  <EState_VSA9>  (37) 
4.736863

>  <VSA_EState1>  (37) 
5.171876

>  <VSA_EState10>  (37) 
1.594501

>  <VSA_EState2>  (37) 
17.282637

>  <VSA_EState3>  (37) 
4.876764

>  <VSA_EState4>  (37) 
2.832815

>  <VSA_EState5>  (37) 
0.711239

>  <VSA_EState6>  (37) 
13.410126

>  <VSA_EState7>  (37) 
3.837135

>  <VSA_EState8>  (37) 
0.0

>  <VSA_EState9>  (37) 
1.616242

>  <FractionCSP3>  (37) 
0.111111

>  <HeavyAtomCount>  (37) 
23

>  <NHOHCount>  (37) 
1

>  <NOCount>  (37) 
4

>  <NumAliphaticCarbocycles>  (37) 
0

>  <NumAliphaticHeterocycles>  (37) 
0

>  <NumAliphaticRings>  (37) 
0

>  <NumAromaticCarbocycles>  (37) 
1

>  <NumAromaticHeterocycles>  (37) 
2

>  <NumAromaticRings>  (37) 
3

>  <NumHAcceptors>  (37) 
4

>  <NumHDonors>  (37) 
1

>  <NumHeteroatoms>  (37) 
5

>  <NumRotatableBonds>  (37) 
5

>  <NumSaturatedCarbocycles>  (37) 
0

>  <NumSaturatedHeterocycles>  (37) 
0

>  <NumSaturatedRings>  (37) 
0

>  <RingCount>  (37) 
3

>  <MolLogP>  (37) 
3.9999

>  <MolMR>  (37) 
92.8777

>  <fr_Al_COO>  (37) 
0

>  <fr_Al_OH>  (37) 
0

>  <fr_Al_OH_noTert>  (37) 
0

>  <fr_ArN>  (37) 
0

>  <fr_Ar_COO>  (37) 
0

>  <fr_Ar_N>  (37) 
1

>  <fr_Ar_NH>  (37) 
0

>  <fr_Ar_OH>  (37) 
0

>  <fr_COO>  (37) 
0

>  <fr_COO2>  (37) 
0

>  <fr_C_O>  (37) 
1

>  <fr_C_O_noCOO>  (37) 
1

>  <fr_C_S>  (37) 
0

>  <fr_HOCCN>  (37) 
0

>  <fr_Imine>  (37) 
0

>  <fr_NH0>  (37) 
1

>  <fr_NH1>  (37) 
1

>  <fr_NH2>  (37) 
0

>  <fr_N_O>  (37) 
0

>  <fr_Ndealkylation1>  (37) 
0

>  <fr_Ndealkylation2>  (37) 
0

>  <fr_Nhpyrrole>  (37) 
0

>  <fr_SH>  (37) 
0

>  <fr_aldehyde>  (37) 
0

>  <fr_alkyl_carbamate>  (37) 
0

>  <fr_alkyl_halide>  (37) 
0

>  <fr_allylic_oxid>  (37) 
0

>  <fr_amide>  (37) 
1

>  <fr_amidine>  (37) 
0

>  <fr_aniline>  (37) 
1

>  <fr_aryl_methyl>  (37) 
0

>  <fr_azide>  (37) 
0

>  <fr_azo>  (37) 
0

>  <fr_barbitur>  (37) 
0

>  <fr_benzene>  (37) 
1

>  <fr_benzodiazepine>  (37) 
0

>  <fr_bicyclic>  (37) 
0

>  <fr_diazo>  (37) 
0

>  <fr_dihydropyridine>  (37) 
0

>  <fr_epoxide>  (37) 
0

>  <fr_ester>  (37) 
0

>  <fr_ether>  (37) 
1

>  <fr_furan>  (37) 
0

>  <fr_guanido>  (37) 
0

>  <fr_halogen>  (37) 
0

>  <fr_hdrzine>  (37) 
0

>  <fr_hdrzone>  (37) 
0

>  <fr_imidazole>  (37) 
0

>  <fr_imide>  (37) 
0

>  <fr_isocyan>  (37) 
0

>  <fr_isothiocyan>  (37) 
0

>  <fr_ketone>  (37) 
0

>  <fr_ketone_Topliss>  (37) 
0

>  <fr_lactam>  (37) 
0

>  <fr_lactone>  (37) 
0

>  <fr_methoxy>  (37) 
1

>  <fr_morpholine>  (37) 
0

>  <fr_nitrile>  (37) 
0

>  <fr_nitro>  (37) 
0

>  <fr_nitro_arom>  (37) 
0

>  <fr_nitro_arom_nonortho>  (37) 
0

>  <fr_nitroso>  (37) 
0

>  <fr_oxazole>  (37) 
0

>  <fr_oxime>  (37) 
0

>  <fr_para_hydroxylation>  (37) 
0

>  <fr_phenol>  (37) 
0

>  <fr_phenol_noOrthoHbond>  (37) 
0

>  <fr_phos_acid>  (37) 
0

>  <fr_phos_ester>  (37) 
0

>  <fr_piperdine>  (37) 
0

>  <fr_piperzine>  (37) 
0

>  <fr_priamide>  (37) 
0

>  <fr_prisulfonamd>  (37) 
0

>  <fr_pyridine>  (37) 
1

>  <fr_quatN>  (37) 
0

>  <fr_sulfide>  (37) 
0

>  <fr_sulfonamd>  (37) 
0

>  <fr_sulfone>  (37) 
0

>  <fr_term_acetylene>  (37) 
0

>  <fr_tetrazole>  (37) 
0

>  <fr_thiazole>  (37) 
0

>  <fr_thiocyan>  (37) 
0

>  <fr_thiophene>  (37) 
1

>  <fr_unbrch_alkane>  (37) 
0

>  <fr_urea>  (37) 
0

>  <NP_Likeness>  (37) 
-1.287606

$$$$
CHEMBL3581134
     RDKit          3D

  0  0  0  0  0  0  0  0  0  0999 V3000
M  V30 BEGIN CTAB
M  V30 COUNTS 39 41 0 0 0
M  V30 BEGIN ATOM
M  V30 1 C -0.018473 -5.841794 0.053910 0
M  V30 2 O 1.396601 -5.756066 -0.085975 0
M  V30 3 C 1.894896 -4.612519 -0.729041 0
M  V30 4 C 3.266590 -4.505578 -0.877343 0
M  V30 5 C 3.727224 -3.389605 -1.503198 0
M  V30 6 C 2.934758 -2.357714 -2.000830 0
M  V30 7 C 1.566342 -2.489137 -1.839689 0
M  V30 8 C 0.585037 -1.477290 -2.314046 0
M  V30 9 C 0.372696 -0.505305 -1.205380 0
M  V30 10 O 1.057330 -0.766837 -0.159385 0
M  V30 11 N -0.498875 0.609818 -1.278748 0
M  V30 12 C -0.512565 1.382368 -0.065285 0
M  V30 13 C 0.241554 2.426968 0.320340 0
M  V30 14 C 0.016128 2.984142 1.545733 0
M  V30 15 C -0.938601 2.488584 2.332636 0
M  V30 16 C -1.380206 2.884698 3.660841 0
M  V30 17 C -0.793489 3.947308 4.346299 0
M  V30 18 C -1.229402 4.305667 5.607020 0
M  V30 19 N -2.237069 3.632326 6.205636 0
M  V30 20 C -2.805402 2.599607 5.536408 0
M  V30 21 C -2.408929 2.193757 4.266527 0
M  V30 22 S -1.650728 1.135786 1.403542 0
M  V30 23 C 1.067732 -3.601985 -1.212977 0
M  V30 24 H -0.485204 -5.879721 -0.963793 0
M  V30 25 H -0.284713 -6.804921 0.545353 0
M  V30 26 H -0.447909 -5.018325 0.644940 0
M  V30 27 H 3.963236 -5.266790 -0.517700 0
M  V30 28 H 4.804589 -3.225884 -1.662194 0
M  V30 29 H 3.325021 -1.496059 -2.486349 0
M  V30 30 H -0.360698 -1.970058 -2.593953 0
M  V30 31 H 1.027502 -0.938997 -3.186496 0
M  V30 32 H -1.031522 0.770319 -2.161730 0
M  V30 33 H 1.010426 2.779138 -0.385728 0
M  V30 34 H 0.603410 3.842463 1.915175 0
M  V30 35 H 0.020420 4.462772 3.818991 0
M  V30 36 H -0.688672 5.159368 6.045051 0
M  V30 37 H -3.615041 2.056162 6.013652 0
M  V30 38 H -2.904506 1.353659 3.776116 0
M  V30 39 H -0.002523 -3.751132 -1.062215 0
M  V30 END ATOM
M  V30 BEGIN BOND
M  V30 1 1 1 2
M  V30 2 1 2 3
M  V30 3 2 3 4
M  V30 4 1 4 5
M  V30 5 2 5 6
M  V30 6 1 6 7
M  V30 7 1 7 8
M  V30 8 1 8 9
M  V30 9 2 9 10
M  V30 10 1 9 11
M  V30 11 1 11 12
M  V30 12 2 12 13
M  V30 13 1 13 14
M  V30 14 2 14 15
M  V30 15 1 15 16
M  V30 16 2 16 17
M  V30 17 1 17 18
M  V30 18 2 18 19
M  V30 19 1 19 20
M  V30 20 2 20 21
M  V30 21 1 15 22
M  V30 22 2 7 23
M  V30 23 1 23 3
M  V30 24 1 22 12
M  V30 25 1 21 16
M  V30 26 1 1 24
M  V30 27 1 1 25
M  V30 28 1 1 26
M  V30 29 1 4 27
M  V30 30 1 5 28
M  V30 31 1 6 29
M  V30 32 1 8 30
M  V30 33 1 8 31
M  V30 34 1 11 32
M  V30 35 1 13 33
M  V30 36 1 14 34
M  V30 37 1 17 35
M  V30 38 1 18 36
M  V30 39 1 20 37
M  V30 40 1 21 38
M  V30 41 1 23 39
M  V30 END BOND
M  V30 END CTAB
M  END
>  <Dataset>  (38) 
ChEMBL_PKA

>  <Ligand_Instance>  (38) 
nan

>  <PDB_ID>  (38) 
nan

>  <Standardized_SMILES>  (38) 
COc1cccc(CC(=O)Nc2ccc(-c3ccncc3)s2)c1

>  <Name>  (38) 
nan

>  <Pocket>  (38) 
nan

>  <ATP_Site>  (38) 
nan

>  <Peripheral>  (38) 
nan

>  <Num_H_Atoms_ProtBoundConf>  (38) 
nan

>  <Num_Resolved_Atoms>  (38) 
nan

>  <Num_Not_Resolved_Atoms>  (38) 
nan

>  <2D_Mol_H>  (38) 
<rdkit.Chem.rdchem.Mol object at 0x72a239103680>

>  <MW>  (38) 
324.405

>  <HBA>  (38) 
4

>  <HBD>  (38) 
1

>  <LogP>  (38) 
3.9999

>  <NRB>  (38) 
6

>  <TPSA>  (38) 
51.22

>  <Num_Heavy_Atoms>  (38) 
23

>  <Ro5>  (38) 
[True, True, True, True, True, True]

>  <Ro5_Fulfilled>  (38) 
True

>  <Ro3>  (38) 
[False, False, True, False]

>  <Ro3_Fulfilled>  (38) 
False

>  <Fsp3>  (38) 
0.111111

>  <Fsp3_0.42>  (38) 
False

>  <Fsp3_0.45>  (38) 
False

>  <Stereogenic_Carbons>  (38) 
0

>  <C_Atoms>  (38) 
18

>  <FCStereo>  (38) 
0.0

>  <SPS>  (38) 
237

>  <nSPS>  (38) 
10.304348

>  <PBF>  (38) 
0.992773

>  <PBF_0.6>  (38) 
True

>  <nPBF>  (38) 
0.043164

>  <nPBF_0.016>  (38) 
True

>  <PMI1>  (38) 
1049.310971

>  <PMI2>  (38) 
5705.519258

>  <PMI3>  (38) 
6147.457455

>  <NPR1>  (38) 
0.17069

>  <NPR2>  (38) 
0.92811

>  <Sum_NPR>  (38) 
1.098801

>  <Sum_NPR_1.07>  (38) 
True

>  <Sum_NPR_1.2>  (38) 
False

>  <MaxAbsEStateIndex>  (38) 
12.171997

>  <MaxEStateIndex>  (38) 
12.171997

>  <MinAbsEStateIndex>  (38) 
0.040388

>  <MinEStateIndex>  (38) 
-0.040388

>  <qed>  (38) 
0.771565

>  <MolWt>  (38) 
324.405

>  <HeavyAtomMolWt>  (38) 
308.277

>  <ExactMolWt>  (38) 
324.093249

>  <NumValenceElectrons>  (38) 
116

>  <NumRadicalElectrons>  (38) 
0

>  <MaxPartialCharge>  (38) 
0.228899

>  <MinPartialCharge>  (38) 
-0.496758

>  <MaxAbsPartialCharge>  (38) 
0.496758

>  <MinAbsPartialCharge>  (38) 
0.228899

>  <FpDensityMorgan1>  (38) 
1.173913

>  <FpDensityMorgan2>  (38) 
2.0

>  <FpDensityMorgan3>  (38) 
2.782609

>  <BCUT2D_MWHI>  (38) 
32.13357

>  <BCUT2D_MWLOW>  (38) 
10.128826

>  <BCUT2D_CHGHI>  (38) 
2.078126

>  <BCUT2D_CHGLO>  (38) 
-2.046914

>  <BCUT2D_LOGPHI>  (38) 
2.305145

>  <BCUT2D_LOGPLOW>  (38) 
-2.129089

>  <BCUT2D_MRHI>  (38) 
7.190871

>  <BCUT2D_MRLOW>  (38) 
-0.115098

>  <AvgIpc>  (38) 
3.038737

>  <BalabanJ>  (38) 
1.650954

>  <BertzCT>  (38) 
799.545976

>  <Chi0>  (38) 
16.070703

>  <Chi0n>  (38) 
12.652568

>  <Chi0v>  (38) 
13.469065

>  <Chi1>  (38) 
11.241515

>  <Chi1n>  (38) 
7.174317

>  <Chi1v>  (38) 
7.990814

>  <Chi2n>  (38) 
4.976268

>  <Chi2v>  (38) 
6.060045

>  <Chi3n>  (38) 
3.332284

>  <Chi3v>  (38) 
4.38204

>  <Chi4n>  (38) 
2.225815

>  <Chi4v>  (38) 
3.153705

>  <HallKierAlpha>  (38) 
-2.66

>  <Ipc>  (38) 
291147.481458

>  <Kappa1>  (38) 
15.243951

>  <Kappa2>  (38) 
7.066819

>  <Kappa3>  (38) 
3.955947

>  <LabuteASA>  (38) 
138.325359

>  <PEOE_VSA1>  (38) 
10.053652

>  <PEOE_VSA10>  (38) 
5.749512

>  <PEOE_VSA11>  (38) 
0.0

>  <PEOE_VSA12>  (38) 
5.90718

>  <PEOE_VSA13>  (38) 
0.0

>  <PEOE_VSA14>  (38) 
0.0

>  <PEOE_VSA2>  (38) 
9.778516

>  <PEOE_VSA3>  (38) 
0.0

>  <PEOE_VSA4>  (38) 
0.0

>  <PEOE_VSA5>  (38) 
11.336786

>  <PEOE_VSA6>  (38) 
12.132734

>  <PEOE_VSA7>  (38) 
47.525105

>  <PEOE_VSA8>  (38) 
17.270834

>  <PEOE_VSA9>  (38) 
18.531701

>  <SMR_VSA1>  (38) 
9.5314

>  <SMR_VSA10>  (38) 
22.245048

>  <SMR_VSA2>  (38) 
0.0

>  <SMR_VSA3>  (38) 
4.983979

>  <SMR_VSA4>  (38) 
0.0

>  <SMR_VSA5>  (38) 
6.420822

>  <SMR_VSA6>  (38) 
12.426586

>  <SMR_VSA7>  (38) 
66.488075

>  <SMR_VSA8>  (38) 
0.0

>  <SMR_VSA9>  (38) 
16.190111

>  <SlogP_VSA1>  (38) 
10.053652

>  <SlogP_VSA10>  (38) 
5.001082

>  <SlogP_VSA11>  (38) 
5.749512

>  <SlogP_VSA12>  (38) 
11.336786

>  <SlogP_VSA2>  (38) 
18.000956

>  <SlogP_VSA3>  (38) 
11.215359

>  <SlogP_VSA4>  (38) 
0.0

>  <SlogP_VSA5>  (38) 
5.563451

>  <SlogP_VSA6>  (38) 
60.924624

>  <SlogP_VSA7>  (38) 
0.0

>  <SlogP_VSA8>  (38) 
10.440599

>  <SlogP_VSA9>  (38) 
0.0

>  <EState_VSA1>  (38) 
0.0

>  <EState_VSA10>  (38) 
4.794537

>  <EState_VSA11>  (38) 
0.0

>  <EState_VSA2>  (38) 
5.90718

>  <EState_VSA3>  (38) 
6.420822

>  <EState_VSA4>  (38) 
26.754644

>  <EState_VSA5>  (38) 
0.0

>  <EState_VSA6>  (38) 
30.840271

>  <EState_VSA7>  (38) 
48.530937

>  <EState_VSA8>  (38) 
10.300767

>  <EState_VSA9>  (38) 
4.736863

>  <VSA_EState1>  (38) 
5.172267

>  <VSA_EState10>  (38) 
1.54811

>  <VSA_EState2>  (38) 
17.284674

>  <VSA_EState3>  (38) 
3.778869

>  <VSA_EState4>  (38) 
2.019498

>  <VSA_EState5>  (38) 
0.715535

>  <VSA_EState6>  (38) 
15.358677

>  <VSA_EState7>  (38) 
3.839172

>  <VSA_EState8>  (38) 
0.0

>  <VSA_EState9>  (38) 
1.616532

>  <FractionCSP3>  (38) 
0.111111

>  <HeavyAtomCount>  (38) 
23

>  <NHOHCount>  (38) 
1

>  <NOCount>  (38) 
4

>  <NumAliphaticCarbocycles>  (38) 
0

>  <NumAliphaticHeterocycles>  (38) 
0

>  <NumAliphaticRings>  (38) 
0

>  <NumAromaticCarbocycles>  (38) 
1

>  <NumAromaticHeterocycles>  (38) 
2

>  <NumAromaticRings>  (38) 
3

>  <NumHAcceptors>  (38) 
4

>  <NumHDonors>  (38) 
1

>  <NumHeteroatoms>  (38) 
5

>  <NumRotatableBonds>  (38) 
5

>  <NumSaturatedCarbocycles>  (38) 
0

>  <NumSaturatedHeterocycles>  (38) 
0

>  <NumSaturatedRings>  (38) 
0

>  <RingCount>  (38) 
3

>  <MolLogP>  (38) 
3.9999

>  <MolMR>  (38) 
92.8777

>  <fr_Al_COO>  (38) 
0

>  <fr_Al_OH>  (38) 
0

>  <fr_Al_OH_noTert>  (38) 
0

>  <fr_ArN>  (38) 
0

>  <fr_Ar_COO>  (38) 
0

>  <fr_Ar_N>  (38) 
1

>  <fr_Ar_NH>  (38) 
0

>  <fr_Ar_OH>  (38) 
0

>  <fr_COO>  (38) 
0

>  <fr_COO2>  (38) 
0

>  <fr_C_O>  (38) 
1

>  <fr_C_O_noCOO>  (38) 
1

>  <fr_C_S>  (38) 
0

>  <fr_HOCCN>  (38) 
0

>  <fr_Imine>  (38) 
0

>  <fr_NH0>  (38) 
1

>  <fr_NH1>  (38) 
1

>  <fr_NH2>  (38) 
0

>  <fr_N_O>  (38) 
0

>  <fr_Ndealkylation1>  (38) 
0

>  <fr_Ndealkylation2>  (38) 
0

>  <fr_Nhpyrrole>  (38) 
0

>  <fr_SH>  (38) 
0

>  <fr_aldehyde>  (38) 
0

>  <fr_alkyl_carbamate>  (38) 
0

>  <fr_alkyl_halide>  (38) 
0

>  <fr_allylic_oxid>  (38) 
0

>  <fr_amide>  (38) 
1

>  <fr_amidine>  (38) 
0

>  <fr_aniline>  (38) 
1

>  <fr_aryl_methyl>  (38) 
0

>  <fr_azide>  (38) 
0

>  <fr_azo>  (38) 
0

>  <fr_barbitur>  (38) 
0

>  <fr_benzene>  (38) 
1

>  <fr_benzodiazepine>  (38) 
0

>  <fr_bicyclic>  (38) 
0

>  <fr_diazo>  (38) 
0

>  <fr_dihydropyridine>  (38) 
0

>  <fr_epoxide>  (38) 
0

>  <fr_ester>  (38) 
0

>  <fr_ether>  (38) 
1

>  <fr_furan>  (38) 
0

>  <fr_guanido>  (38) 
0

>  <fr_halogen>  (38) 
0

>  <fr_hdrzine>  (38) 
0

>  <fr_hdrzone>  (38) 
0

>  <fr_imidazole>  (38) 
0

>  <fr_imide>  (38) 
0

>  <fr_isocyan>  (38) 
0

>  <fr_isothiocyan>  (38) 
0

>  <fr_ketone>  (38) 
0

>  <fr_ketone_Topliss>  (38) 
0

>  <fr_lactam>  (38) 
0

>  <fr_lactone>  (38) 
0

>  <fr_methoxy>  (38) 
1

>  <fr_morpholine>  (38) 
0

>  <fr_nitrile>  (38) 
0

>  <fr_nitro>  (38) 
0

>  <fr_nitro_arom>  (38) 
0

>  <fr_nitro_arom_nonortho>  (38) 
0

>  <fr_nitroso>  (38) 
0

>  <fr_oxazole>  (38) 
0

>  <fr_oxime>  (38) 
0

>  <fr_para_hydroxylation>  (38) 
0

>  <fr_phenol>  (38) 
0

>  <fr_phenol_noOrthoHbond>  (38) 
0

>  <fr_phos_acid>  (38) 
0

>  <fr_phos_ester>  (38) 
0

>  <fr_piperdine>  (38) 
0

>  <fr_piperzine>  (38) 
0

>  <fr_priamide>  (38) 
0

>  <fr_prisulfonamd>  (38) 
0

>  <fr_pyridine>  (38) 
1

>  <fr_quatN>  (38) 
0

>  <fr_sulfide>  (38) 
0

>  <fr_sulfonamd>  (38) 
0

>  <fr_sulfone>  (38) 
0

>  <fr_term_acetylene>  (38) 
0

>  <fr_tetrazole>  (38) 
0

>  <fr_thiazole>  (38) 
0

>  <fr_thiocyan>  (38) 
0

>  <fr_thiophene>  (38) 
1

>  <fr_unbrch_alkane>  (38) 
0

>  <fr_urea>  (38) 
0

>  <NP_Likeness>  (38) 
-1.354586

$$$$
CHEMBL3581135
     RDKit          3D

  0  0  0  0  0  0  0  0  0  0999 V3000
M  V30 BEGIN CTAB
M  V30 COUNTS 37 39 0 0 0
M  V30 BEGIN ATOM
M  V30 1 C 1.631003 -6.254012 1.249632 0
M  V30 2 O 1.383311 -5.111001 0.455672 0
M  V30 3 C 2.239489 -4.039673 0.463444 0
M  V30 4 C 3.375986 -4.029623 1.243191 0
M  V30 5 C 4.233940 -2.938744 1.241534 0
M  V30 6 C 3.955459 -1.835212 0.447799 0
M  V30 7 C 2.797167 -1.895264 -0.319760 0
M  V30 8 C 2.495439 -0.714503 -1.171667 0
M  V30 9 C 1.658895 0.263819 -0.396315 0
M  V30 10 O 1.469590 -0.221295 0.744801 0
M  V30 11 N 1.263208 1.467409 -1.042159 0
M  V30 12 C 0.446285 2.234227 -0.027260 0
M  V30 13 N -0.840739 1.962243 -0.066820 0
M  V30 14 C -1.527958 2.656781 0.841722 0
M  V30 15 C -2.978371 2.591245 1.063936 0
M  V30 16 C -3.906507 3.581851 0.830436 0
M  V30 17 C -5.236993 3.343623 1.099085 0
M  V30 18 N -5.643688 2.146522 1.590282 0
M  V30 19 C -4.753016 1.155904 1.828911 0
M  V30 20 C -3.406026 1.366841 1.567935 0
M  V30 21 N -0.943843 3.592994 1.759457 0
M  V30 22 S 0.796104 3.345020 1.131355 0
M  V30 23 C 1.921126 -2.965455 -0.341870 0
M  V30 24 H 1.705122 -6.019246 2.319837 0
M  V30 25 H 2.570738 -6.744214 0.918817 0
M  V30 26 H 0.818504 -6.998493 1.135292 0
M  V30 27 H 3.606317 -4.872193 1.861461 0
M  V30 28 H 5.131632 -2.921973 1.852622 0
M  V30 29 H 4.586812 -0.945821 0.399368 0
M  V30 30 H 1.904067 -1.005410 -2.054513 0
M  V30 31 H 3.444995 -0.242423 -1.535543 0
M  V30 32 H 1.559909 1.624783 -2.006516 0
M  V30 33 H -3.495529 4.501726 0.439522 0
M  V30 34 H -5.922282 4.153139 0.898258 0
M  V30 35 H -5.059739 0.178935 2.226338 0
M  V30 36 H -2.726080 0.529225 1.779715 0
M  V30 37 H 1.043320 -2.898155 -0.985024 0
M  V30 END ATOM
M  V30 BEGIN BOND
M  V30 1 1 1 2
M  V30 2 1 2 3
M  V30 3 2 3 4
M  V30 4 1 4 5
M  V30 5 2 5 6
M  V30 6 1 6 7
M  V30 7 1 7 8
M  V30 8 1 8 9
M  V30 9 2 9 10
M  V30 10 1 9 11
M  V30 11 1 11 12
M  V30 12 2 12 13
M  V30 13 1 13 14
M  V30 14 1 14 15
M  V30 15 2 15 16
M  V30 16 1 16 17
M  V30 17 2 17 18
M  V30 18 1 18 19
M  V30 19 2 19 20
M  V30 20 2 14 21
M  V30 21 1 21 22
M  V30 22 2 7 23
M  V30 23 1 23 3
M  V30 24 1 22 12
M  V30 25 1 20 15
M  V30 26 1 1 24
M  V30 27 1 1 25
M  V30 28 1 1 26
M  V30 29 1 4 27
M  V30 30 1 5 28
M  V30 31 1 6 29
M  V30 32 1 8 30
M  V30 33 1 8 31
M  V30 34 1 11 32
M  V30 35 1 16 33
M  V30 36 1 17 34
M  V30 37 1 19 35
M  V30 38 1 20 36
M  V30 39 1 23 37
M  V30 END BOND
M  V30 END CTAB
M  END
>  <Dataset>  (39) 
ChEMBL_PKA

>  <Ligand_Instance>  (39) 
nan

>  <PDB_ID>  (39) 
nan

>  <Standardized_SMILES>  (39) 
COc1cccc(CC(=O)Nc2nc(-c3ccncc3)ns2)c1

>  <Name>  (39) 
nan

>  <Pocket>  (39) 
nan

>  <ATP_Site>  (39) 
nan

>  <Peripheral>  (39) 
nan

>  <Num_H_Atoms_ProtBoundConf>  (39) 
nan

>  <Num_Resolved_Atoms>  (39) 
nan

>  <Num_Not_Resolved_Atoms>  (39) 
nan

>  <2D_Mol_H>  (39) 
<rdkit.Chem.rdchem.Mol object at 0x72a239103760>

>  <MW>  (39) 
326.381

>  <HBA>  (39) 
6

>  <HBD>  (39) 
1

>  <LogP>  (39) 
2.7899

>  <NRB>  (39) 
6

>  <TPSA>  (39) 
77.0

>  <Num_Heavy_Atoms>  (39) 
23

>  <Ro5>  (39) 
[True, True, True, True, True, True]

>  <Ro5_Fulfilled>  (39) 
True

>  <Ro3>  (39) 
[False, False, True, True]

>  <Ro3_Fulfilled>  (39) 
False

>  <Fsp3>  (39) 
0.125

>  <Fsp3_0.42>  (39) 
False

>  <Fsp3_0.45>  (39) 
False

>  <Stereogenic_Carbons>  (39) 
0

>  <C_Atoms>  (39) 
16

>  <FCStereo>  (39) 
0.0

>  <SPS>  (39) 
237

>  <nSPS>  (39) 
10.304348

>  <PBF>  (39) 
0.727927

>  <PBF_0.6>  (39) 
True

>  <nPBF>  (39) 
0.031649

>  <nPBF_0.016>  (39) 
True

>  <PMI1>  (39) 
1291.098715

>  <PMI2>  (39) 
4849.721741

>  <PMI3>  (39) 
5777.593887

>  <NPR1>  (39) 
0.223467

>  <NPR2>  (39) 
0.839402

>  <Sum_NPR>  (39) 
1.062868

>  <Sum_NPR_1.07>  (39) 
False

>  <Sum_NPR_1.2>  (39) 
False

>  <MaxAbsEStateIndex>  (39) 
12.104219

>  <MaxEStateIndex>  (39) 
12.104219

>  <MinAbsEStateIndex>  (39) 
0.142888

>  <MinEStateIndex>  (39) 
-0.142888

>  <qed>  (39) 
0.779938

>  <MolWt>  (39) 
326.381

>  <HeavyAtomMolWt>  (39) 
312.269

>  <ExactMolWt>  (39) 
326.083747

>  <NumValenceElectrons>  (39) 
116

>  <NumRadicalElectrons>  (39) 
0

>  <MaxPartialCharge>  (39) 
0.230116

>  <MinPartialCharge>  (39) 
-0.496758

>  <MaxAbsPartialCharge>  (39) 
0.496758

>  <MinAbsPartialCharge>  (39) 
0.230116

>  <FpDensityMorgan1>  (39) 
1.26087

>  <FpDensityMorgan2>  (39) 
2.086957

>  <FpDensityMorgan3>  (39) 
2.869565

>  <BCUT2D_MWHI>  (39) 
32.137139

>  <BCUT2D_MWLOW>  (39) 
10.129888

>  <BCUT2D_CHGHI>  (39) 
2.100995

>  <BCUT2D_CHGLO>  (39) 
-2.038218

>  <BCUT2D_LOGPHI>  (39) 
2.203466

>  <BCUT2D_LOGPLOW>  (39) 
-2.13737

>  <BCUT2D_MRHI>  (39) 
7.096221

>  <BCUT2D_MRLOW>  (39) 
-0.115118

>  <AvgIpc>  (39) 
3.038737

>  <BalabanJ>  (39) 
1.650954

>  <BertzCT>  (39) 
804.604626

>  <Chi0>  (39) 
16.070703

>  <Chi0n>  (39) 
12.392295

>  <Chi0v>  (39) 
13.208791

>  <Chi1>  (39) 
11.241515

>  <Chi1n>  (39) 
6.912904

>  <Chi1v>  (39) 
7.686301

>  <Chi2n>  (39) 
4.735508

>  <Chi2v>  (39) 
5.487354

>  <Chi3n>  (39) 
3.109729

>  <Chi3v>  (39) 
3.740239

>  <Chi4n>  (39) 
2.023771

>  <Chi4v>  (39) 
2.629714

>  <HallKierAlpha>  (39) 
-2.8

>  <Ipc>  (39) 
291147.481458

>  <Kappa1>  (39) 
15.109423

>  <Kappa2>  (39) 
6.973168

>  <Kappa3>  (39) 
3.892525

>  <LabuteASA>  (39) 
136.905745

>  <PEOE_VSA1>  (39) 
10.053652

>  <PEOE_VSA10>  (39) 
5.749512

>  <PEOE_VSA11>  (39) 
5.824404

>  <PEOE_VSA12>  (39) 
11.038738

>  <PEOE_VSA13>  (39) 
0.0

>  <PEOE_VSA14>  (39) 
0.0

>  <PEOE_VSA2>  (39) 
9.778516

>  <PEOE_VSA3>  (39) 
0.0

>  <PEOE_VSA4>  (39) 
9.357519

>  <PEOE_VSA5>  (39) 
0.0

>  <PEOE_VSA6>  (39) 
12.132734

>  <PEOE_VSA7>  (39) 
29.82892

>  <PEOE_VSA8>  (39) 
29.489625

>  <PEOE_VSA9>  (39) 
13.530619

>  <SMR_VSA1>  (39) 
9.5314

>  <SMR_VSA10>  (39) 
22.571225

>  <SMR_VSA2>  (39) 
0.0

>  <SMR_VSA3>  (39) 
14.341497

>  <SMR_VSA4>  (39) 
0.0

>  <SMR_VSA5>  (39) 
6.420822

>  <SMR_VSA6>  (39) 
12.426586

>  <SMR_VSA7>  (39) 
54.355341

>  <SMR_VSA8>  (39) 
0.0

>  <SMR_VSA9>  (39) 
17.137368

>  <SlogP_VSA1>  (39) 
10.053652

>  <SlogP_VSA10>  (39) 
5.131558

>  <SlogP_VSA11>  (39) 
5.749512

>  <SlogP_VSA12>  (39) 
11.532487

>  <SlogP_VSA2>  (39) 
27.358474

>  <SlogP_VSA3>  (39) 
11.215359

>  <SlogP_VSA4>  (39) 
0.0

>  <SlogP_VSA5>  (39) 
5.563451

>  <SlogP_VSA6>  (39) 
48.79189

>  <SlogP_VSA7>  (39) 
0.0

>  <SlogP_VSA8>  (39) 
11.387856

>  <SlogP_VSA9>  (39) 
0.0

>  <EState_VSA1>  (39) 
0.0

>  <EState_VSA10>  (39) 
4.794537

>  <EState_VSA11>  (39) 
0.0

>  <EState_VSA2>  (39) 
12.328001

>  <EState_VSA3>  (39) 
10.955963

>  <EState_VSA4>  (39) 
28.408901

>  <EState_VSA5>  (39) 
0.0

>  <EState_VSA6>  (39) 
19.503485

>  <EState_VSA7>  (39) 
36.398202

>  <EState_VSA8>  (39) 
19.658286

>  <EState_VSA9>  (39) 
4.736863

>  <VSA_EState1>  (39) 
9.391888

>  <VSA_EState10>  (39) 
1.152773

>  <VSA_EState2>  (39) 
20.37793

>  <VSA_EState3>  (39) 
3.244147

>  <VSA_EState4>  (39) 
1.740988

>  <VSA_EState5>  (39) 
1.162917

>  <VSA_EState6>  (39) 
11.057104

>  <VSA_EState7>  (39) 
3.60732

>  <VSA_EState8>  (39) 
0.0

>  <VSA_EState9>  (39) 
1.598267

>  <FractionCSP3>  (39) 
0.125

>  <HeavyAtomCount>  (39) 
23

>  <NHOHCount>  (39) 
1

>  <NOCount>  (39) 
6

>  <NumAliphaticCarbocycles>  (39) 
0

>  <NumAliphaticHeterocycles>  (39) 
0

>  <NumAliphaticRings>  (39) 
0

>  <NumAromaticCarbocycles>  (39) 
1

>  <NumAromaticHeterocycles>  (39) 
2

>  <NumAromaticRings>  (39) 
3

>  <NumHAcceptors>  (39) 
6

>  <NumHDonors>  (39) 
1

>  <NumHeteroatoms>  (39) 
7

>  <NumRotatableBonds>  (39) 
5

>  <NumSaturatedCarbocycles>  (39) 
0

>  <NumSaturatedHeterocycles>  (39) 
0

>  <NumSaturatedRings>  (39) 
0

>  <RingCount>  (39) 
3

>  <MolLogP>  (39) 
2.7899

>  <MolMR>  (39) 
88.4677

>  <fr_Al_COO>  (39) 
0

>  <fr_Al_OH>  (39) 
0

>  <fr_Al_OH_noTert>  (39) 
0

>  <fr_ArN>  (39) 
0

>  <fr_Ar_COO>  (39) 
0

>  <fr_Ar_N>  (39) 
3

>  <fr_Ar_NH>  (39) 
0

>  <fr_Ar_OH>  (39) 
0

>  <fr_COO>  (39) 
0

>  <fr_COO2>  (39) 
0

>  <fr_C_O>  (39) 
1

>  <fr_C_O_noCOO>  (39) 
1

>  <fr_C_S>  (39) 
0

>  <fr_HOCCN>  (39) 
0

>  <fr_Imine>  (39) 
0

>  <fr_NH0>  (39) 
3

>  <fr_NH1>  (39) 
1

>  <fr_NH2>  (39) 
0

>  <fr_N_O>  (39) 
0

>  <fr_Ndealkylation1>  (39) 
0

>  <fr_Ndealkylation2>  (39) 
0

>  <fr_Nhpyrrole>  (39) 
0

>  <fr_SH>  (39) 
0

>  <fr_aldehyde>  (39) 
0

>  <fr_alkyl_carbamate>  (39) 
0

>  <fr_alkyl_halide>  (39) 
0

>  <fr_allylic_oxid>  (39) 
0

>  <fr_amide>  (39) 
1

>  <fr_amidine>  (39) 
0

>  <fr_aniline>  (39) 
1

>  <fr_aryl_methyl>  (39) 
0

>  <fr_azide>  (39) 
0

>  <fr_azo>  (39) 
0

>  <fr_barbitur>  (39) 
0

>  <fr_benzene>  (39) 
1

>  <fr_benzodiazepine>  (39) 
0

>  <fr_bicyclic>  (39) 
0

>  <fr_diazo>  (39) 
0

>  <fr_dihydropyridine>  (39) 
0

>  <fr_epoxide>  (39) 
0

>  <fr_ester>  (39) 
0

>  <fr_ether>  (39) 
1

>  <fr_furan>  (39) 
0

>  <fr_guanido>  (39) 
0

>  <fr_halogen>  (39) 
0

>  <fr_hdrzine>  (39) 
0

>  <fr_hdrzone>  (39) 
0

>  <fr_imidazole>  (39) 
0

>  <fr_imide>  (39) 
0

>  <fr_isocyan>  (39) 
0

>  <fr_isothiocyan>  (39) 
0

>  <fr_ketone>  (39) 
0

>  <fr_ketone_Topliss>  (39) 
0

>  <fr_lactam>  (39) 
0

>  <fr_lactone>  (39) 
0

>  <fr_methoxy>  (39) 
1

>  <fr_morpholine>  (39) 
0

>  <fr_nitrile>  (39) 
0

>  <fr_nitro>  (39) 
0

>  <fr_nitro_arom>  (39) 
0

>  <fr_nitro_arom_nonortho>  (39) 
0

>  <fr_nitroso>  (39) 
0

>  <fr_oxazole>  (39) 
0

>  <fr_oxime>  (39) 
0

>  <fr_para_hydroxylation>  (39) 
0

>  <fr_phenol>  (39) 
0

>  <fr_phenol_noOrthoHbond>  (39) 
0

>  <fr_phos_acid>  (39) 
0

>  <fr_phos_ester>  (39) 
0

>  <fr_piperdine>  (39) 
0

>  <fr_piperzine>  (39) 
0

>  <fr_priamide>  (39) 
0

>  <fr_prisulfonamd>  (39) 
0

>  <fr_pyridine>  (39) 
1

>  <fr_quatN>  (39) 
0

>  <fr_sulfide>  (39) 
0

>  <fr_sulfonamd>  (39) 
0

>  <fr_sulfone>  (39) 
0

>  <fr_term_acetylene>  (39) 
0

>  <fr_tetrazole>  (39) 
0

>  <fr_thiazole>  (39) 
0

>  <fr_thiocyan>  (39) 
0

>  <fr_thiophene>  (39) 
0

>  <fr_unbrch_alkane>  (39) 
0

>  <fr_urea>  (39) 
0

>  <NP_Likeness>  (39) 
-2.064489

$$$$
CHEMBL3581136
     RDKit          3D

  0  0  0  0  0  0  0  0  0  0999 V3000
M  V30 BEGIN CTAB
M  V30 COUNTS 37 39 0 0 0
M  V30 BEGIN ATOM
M  V30 1 C 3.896319 -6.201622 0.648095 0
M  V30 2 O 3.288144 -5.153459 -0.077400 0
M  V30 3 C 3.650560 -3.839479 0.179755 0
M  V30 4 C 4.579043 -3.410645 1.103995 0
M  V30 5 C 4.899927 -2.109740 1.319211 0
M  V30 6 C 4.254170 -1.149944 0.562696 0
M  V30 7 C 3.306726 -1.494470 -0.388817 0
M  V30 8 C 2.598358 -0.459411 -1.217274 0
M  V30 9 C 1.342587 -0.027389 -0.506710 0
M  V30 10 O 0.860963 -0.398634 0.599465 0
M  V30 11 N 0.606240 0.960833 -1.230947 0
M  V30 12 C -0.619548 1.347304 -0.482487 0
M  V30 13 N -0.683079 2.210337 0.298191 0
M  V30 14 N -1.721897 2.588475 0.977125 0
M  V30 15 C -2.783659 2.102402 0.903161 0
M  V30 16 C -4.151488 2.173591 1.421775 0
M  V30 17 C -4.456664 3.144727 2.377611 0
M  V30 18 C -5.735043 3.239450 2.887325 0
M  V30 19 N -6.723625 2.416866 2.493676 0
M  V30 20 C -6.455594 1.459463 1.562314 0
M  V30 21 C -5.183311 1.349235 1.041005 0
M  V30 22 S -2.441577 0.757310 -0.394611 0
M  V30 23 C 3.020658 -2.851124 -0.562895 0
M  V30 24 H 4.035013 -5.971252 1.725701 0
M  V30 25 H 4.917945 -6.446834 0.241894 0
M  V30 26 H 3.278104 -7.127839 0.634456 0
M  V30 27 H 5.070366 -4.187527 1.683843 0
M  V30 28 H 5.635082 -1.807498 2.054373 0
M  V30 29 H 4.438445 -0.088268 0.657832 0
M  V30 30 H 3.278229 0.413039 -1.264059 0
M  V30 31 H 2.287845 -0.864536 -2.185474 0
M  V30 32 H 0.780048 1.415824 -2.128602 0
M  V30 33 H -3.646687 3.784189 2.669795 0
M  V30 34 H -5.890311 4.028388 3.632863 0
M  V30 35 H -7.219316 0.770062 1.210820 0
M  V30 36 H -4.983642 0.597943 0.313742 0
M  V30 37 H 2.268317 -3.126193 -1.318473 0
M  V30 END ATOM
M  V30 BEGIN BOND
M  V30 1 1 1 2
M  V30 2 1 2 3
M  V30 3 2 3 4
M  V30 4 1 4 5
M  V30 5 2 5 6
M  V30 6 1 6 7
M  V30 7 1 7 8
M  V30 8 1 8 9
M  V30 9 2 9 10
M  V30 10 1 9 11
M  V30 11 1 11 12
M  V30 12 2 12 13
M  V30 13 1 13 14
M  V30 14 2 14 15
M  V30 15 1 15 16
M  V30 16 2 16 17
M  V30 17 1 17 18
M  V30 18 2 18 19
M  V30 19 1 19 20
M  V30 20 2 20 21
M  V30 21 1 15 22
M  V30 22 2 7 23
M  V30 23 1 23 3
M  V30 24 1 22 12
M  V30 25 1 21 16
M  V30 26 1 1 24
M  V30 27 1 1 25
M  V30 28 1 1 26
M  V30 29 1 4 27
M  V30 30 1 5 28
M  V30 31 1 6 29
M  V30 32 1 8 30
M  V30 33 1 8 31
M  V30 34 1 11 32
M  V30 35 1 17 33
M  V30 36 1 18 34
M  V30 37 1 20 35
M  V30 38 1 21 36
M  V30 39 1 23 37
M  V30 END BOND
M  V30 END CTAB
M  END
>  <Dataset>  (40) 
ChEMBL_PKA

>  <Ligand_Instance>  (40) 
nan

>  <PDB_ID>  (40) 
nan

>  <Standardized_SMILES>  (40) 
COc1cccc(CC(=O)Nc2nnc(-c3ccncc3)s2)c1

>  <Name>  (40) 
nan

>  <Pocket>  (40) 
nan

>  <ATP_Site>  (40) 
nan

>  <Peripheral>  (40) 
nan

>  <Num_H_Atoms_ProtBoundConf>  (40) 
nan

>  <Num_Resolved_Atoms>  (40) 
nan

>  <Num_Not_Resolved_Atoms>  (40) 
nan

>  <2D_Mol_H>  (40) 
<rdkit.Chem.rdchem.Mol object at 0x72a239103840>

>  <MW>  (40) 
326.381

>  <HBA>  (40) 
6

>  <HBD>  (40) 
1

>  <LogP>  (40) 
2.7899

>  <NRB>  (40) 
6

>  <TPSA>  (40) 
77.0

>  <Num_Heavy_Atoms>  (40) 
23

>  <Ro5>  (40) 
[True, True, True, True, True, True]

>  <Ro5_Fulfilled>  (40) 
True

>  <Ro3>  (40) 
[False, False, True, True]

>  <Ro3_Fulfilled>  (40) 
False

>  <Fsp3>  (40) 
0.125

>  <Fsp3_0.42>  (40) 
False

>  <Fsp3_0.45>  (40) 
False

>  <Stereogenic_Carbons>  (40) 
0

>  <C_Atoms>  (40) 
16

>  <FCStereo>  (40) 
0.0

>  <SPS>  (40) 
237

>  <nSPS>  (40) 
10.304348

>  <PBF>  (40) 
0.98124

>  <PBF_0.6>  (40) 
True

>  <nPBF>  (40) 
0.042663

>  <nPBF_0.016>  (40) 
True

>  <PMI1>  (40) 
886.186048

>  <PMI2>  (40) 
6601.449581

>  <PMI3>  (40) 
6949.395723

>  <NPR1>  (40) 
0.12752

>  <NPR2>  (40) 
0.949931

>  <Sum_NPR>  (40) 
1.077451

>  <Sum_NPR_1.07>  (40) 
True

>  <Sum_NPR_1.2>  (40) 
False

>  <MaxAbsEStateIndex>  (40) 
12.104219

>  <MaxEStateIndex>  (40) 
12.104219

>  <MinAbsEStateIndex>  (40) 
0.142888

>  <MinEStateIndex>  (40) 
-0.142888

>  <qed>  (40) 
0.779938

>  <MolWt>  (40) 
326.381

>  <HeavyAtomMolWt>  (40) 
312.269

>  <ExactMolWt>  (40) 
326.083747

>  <NumValenceElectrons>  (40) 
116

>  <NumRadicalElectrons>  (40) 
0

>  <MaxPartialCharge>  (40) 
0.230123

>  <MinPartialCharge>  (40) 
-0.496758

>  <MaxAbsPartialCharge>  (40) 
0.496758

>  <MinAbsPartialCharge>  (40) 
0.230123

>  <FpDensityMorgan1>  (40) 
1.217391

>  <FpDensityMorgan2>  (40) 
2.043478

>  <FpDensityMorgan3>  (40) 
2.826087

>  <BCUT2D_MWHI>  (40) 
32.133584

>  <BCUT2D_MWLOW>  (40) 
10.130029

>  <BCUT2D_CHGHI>  (40) 
2.101689

>  <BCUT2D_CHGLO>  (40) 
-2.037438

>  <BCUT2D_LOGPHI>  (40) 
2.25258

>  <BCUT2D_LOGPLOW>  (40) 
-2.137406

>  <BCUT2D_MRHI>  (40) 
7.181564

>  <BCUT2D_MRLOW>  (40) 
-0.115123

>  <AvgIpc>  (40) 
3.038737

>  <BalabanJ>  (40) 
1.650954

>  <BertzCT>  (40) 
804.604626

>  <Chi0>  (40) 
16.070703

>  <Chi0n>  (40) 
12.392295

>  <Chi0v>  (40) 
13.208791

>  <Chi1>  (40) 
11.241515

>  <Chi1n>  (40) 
6.910847

>  <Chi1v>  (40) 
7.727344

>  <Chi2n>  (40) 
4.724738

>  <Chi2v>  (40) 
5.702259

>  <Chi3n>  (40) 
3.097453

>  <Chi3v>  (40) 
3.985215

>  <Chi4n>  (40) 
2.016169

>  <Chi4v>  (40) 
2.781411

>  <HallKierAlpha>  (40) 
-2.8

>  <Ipc>  (40) 
291147.481458

>  <Kappa1>  (40) 
15.109423

>  <Kappa2>  (40) 
6.973168

>  <Kappa3>  (40) 
3.892525

>  <LabuteASA>  (40) 
136.733108

>  <PEOE_VSA1>  (40) 
10.053652

>  <PEOE_VSA10>  (40) 
10.757136

>  <PEOE_VSA11>  (40) 
0.0

>  <PEOE_VSA12>  (40) 
11.038738

>  <PEOE_VSA13>  (40) 
0.0

>  <PEOE_VSA14>  (40) 
0.0

>  <PEOE_VSA2>  (40) 
9.778516

>  <PEOE_VSA3>  (40) 
0.0

>  <PEOE_VSA4>  (40) 
0.0

>  <PEOE_VSA5>  (40) 
10.197364

>  <PEOE_VSA6>  (40) 
23.46952

>  <PEOE_VSA7>  (40) 
29.82892

>  <PEOE_VSA8>  (40) 
17.957139

>  <PEOE_VSA9>  (40) 
13.530619

>  <SMR_VSA1>  (40) 
9.5314

>  <SMR_VSA10>  (40) 
22.375524

>  <SMR_VSA2>  (40) 
0.0

>  <SMR_VSA3>  (40) 
15.181342

>  <SMR_VSA4>  (40) 
0.0

>  <SMR_VSA5>  (40) 
6.420822

>  <SMR_VSA6>  (40) 
12.426586

>  <SMR_VSA7>  (40) 
54.355341

>  <SMR_VSA8>  (40) 
0.0

>  <SMR_VSA9>  (40) 
16.320587

>  <SlogP_VSA1>  (40) 
10.053652

>  <SlogP_VSA10>  (40) 
5.131558

>  <SlogP_VSA11>  (40) 
5.749512

>  <SlogP_VSA12>  (40) 
11.336786

>  <SlogP_VSA2>  (40) 
28.198319

>  <SlogP_VSA3>  (40) 
11.215359

>  <SlogP_VSA4>  (40) 
0.0

>  <SlogP_VSA5>  (40) 
5.563451

>  <SlogP_VSA6>  (40) 
48.79189

>  <SlogP_VSA7>  (40) 
0.0

>  <SlogP_VSA8>  (40) 
10.571075

>  <SlogP_VSA9>  (40) 
0.0

>  <EState_VSA1>  (40) 
0.0

>  <EState_VSA10>  (40) 
4.794537

>  <EState_VSA11>  (40) 
0.0

>  <EState_VSA2>  (40) 
12.328001

>  <EState_VSA3>  (40) 
5.131558

>  <EState_VSA4>  (40) 
21.884039

>  <EState_VSA5>  (40) 
11.336786

>  <EState_VSA6>  (40) 
19.503485

>  <EState_VSA7>  (40) 
36.398202

>  <EState_VSA8>  (40) 
20.498131

>  <EState_VSA9>  (40) 
4.736863

>  <VSA_EState1>  (40) 
5.149921

>  <VSA_EState10>  (40) 
1.325888

>  <VSA_EState2>  (40) 
16.06771

>  <VSA_EState3>  (40) 
12.06334

>  <VSA_EState4>  (40) 
1.797701

>  <VSA_EState5>  (40) 
0.585065

>  <VSA_EState6>  (40) 
11.109604

>  <VSA_EState7>  (40) 
3.635839

>  <VSA_EState8>  (40) 
0.0

>  <VSA_EState9>  (40) 
1.598267

>  <FractionCSP3>  (40) 
0.125

>  <HeavyAtomCount>  (40) 
23

>  <NHOHCount>  (40) 
1

>  <NOCount>  (40) 
6

>  <NumAliphaticCarbocycles>  (40) 
0

>  <NumAliphaticHeterocycles>  (40) 
0

>  <NumAliphaticRings>  (40) 
0

>  <NumAromaticCarbocycles>  (40) 
1

>  <NumAromaticHeterocycles>  (40) 
2

>  <NumAromaticRings>  (40) 
3

>  <NumHAcceptors>  (40) 
6

>  <NumHDonors>  (40) 
1

>  <NumHeteroatoms>  (40) 
7

>  <NumRotatableBonds>  (40) 
5

>  <NumSaturatedCarbocycles>  (40) 
0

>  <NumSaturatedHeterocycles>  (40) 
0

>  <NumSaturatedRings>  (40) 
0

>  <RingCount>  (40) 
3

>  <MolLogP>  (40) 
2.7899

>  <MolMR>  (40) 
88.4677

>  <fr_Al_COO>  (40) 
0

>  <fr_Al_OH>  (40) 
0

>  <fr_Al_OH_noTert>  (40) 
0

>  <fr_ArN>  (40) 
0

>  <fr_Ar_COO>  (40) 
0

>  <fr_Ar_N>  (40) 
3

>  <fr_Ar_NH>  (40) 
0

>  <fr_Ar_OH>  (40) 
0

>  <fr_COO>  (40) 
0

>  <fr_COO2>  (40) 
0

>  <fr_C_O>  (40) 
1

>  <fr_C_O_noCOO>  (40) 
1

>  <fr_C_S>  (40) 
0

>  <fr_HOCCN>  (40) 
0

>  <fr_Imine>  (40) 
0

>  <fr_NH0>  (40) 
3

>  <fr_NH1>  (40) 
1

>  <fr_NH2>  (40) 
0

>  <fr_N_O>  (40) 
0

>  <fr_Ndealkylation1>  (40) 
0

>  <fr_Ndealkylation2>  (40) 
0

>  <fr_Nhpyrrole>  (40) 
0

>  <fr_SH>  (40) 
0

>  <fr_aldehyde>  (40) 
0

>  <fr_alkyl_carbamate>  (40) 
0

>  <fr_alkyl_halide>  (40) 
0

>  <fr_allylic_oxid>  (40) 
0

>  <fr_amide>  (40) 
1

>  <fr_amidine>  (40) 
0

>  <fr_aniline>  (40) 
1

>  <fr_aryl_methyl>  (40) 
0

>  <fr_azide>  (40) 
0

>  <fr_azo>  (40) 
0

>  <fr_barbitur>  (40) 
0

>  <fr_benzene>  (40) 
1

>  <fr_benzodiazepine>  (40) 
0

>  <fr_bicyclic>  (40) 
0

>  <fr_diazo>  (40) 
0

>  <fr_dihydropyridine>  (40) 
0

>  <fr_epoxide>  (40) 
0

>  <fr_ester>  (40) 
0

>  <fr_ether>  (40) 
1

>  <fr_furan>  (40) 
0

>  <fr_guanido>  (40) 
0

>  <fr_halogen>  (40) 
0

>  <fr_hdrzine>  (40) 
0

>  <fr_hdrzone>  (40) 
0

>  <fr_imidazole>  (40) 
0

>  <fr_imide>  (40) 
0

>  <fr_isocyan>  (40) 
0

>  <fr_isothiocyan>  (40) 
0

>  <fr_ketone>  (40) 
0

>  <fr_ketone_Topliss>  (40) 
0

>  <fr_lactam>  (40) 
0

>  <fr_lactone>  (40) 
0

>  <fr_methoxy>  (40) 
1

>  <fr_morpholine>  (40) 
0

>  <fr_nitrile>  (40) 
0

>  <fr_nitro>  (40) 
0

>  <fr_nitro_arom>  (40) 
0

>  <fr_nitro_arom_nonortho>  (40) 
0

>  <fr_nitroso>  (40) 
0

>  <fr_oxazole>  (40) 
0

>  <fr_oxime>  (40) 
0

>  <fr_para_hydroxylation>  (40) 
0

>  <fr_phenol>  (40) 
0

>  <fr_phenol_noOrthoHbond>  (40) 
0

>  <fr_phos_acid>  (40) 
0

>  <fr_phos_ester>  (40) 
0

>  <fr_piperdine>  (40) 
0

>  <fr_piperzine>  (40) 
0

>  <fr_priamide>  (40) 
0

>  <fr_prisulfonamd>  (40) 
0

>  <fr_pyridine>  (40) 
1

>  <fr_quatN>  (40) 
0

>  <fr_sulfide>  (40) 
0

>  <fr_sulfonamd>  (40) 
0

>  <fr_sulfone>  (40) 
0

>  <fr_term_acetylene>  (40) 
0

>  <fr_tetrazole>  (40) 
0

>  <fr_thiazole>  (40) 
0

>  <fr_thiocyan>  (40) 
0

>  <fr_thiophene>  (40) 
0

>  <fr_unbrch_alkane>  (40) 
0

>  <fr_urea>  (40) 
0

>  <NP_Likeness>  (40) 
-2.050129

$$$$
CHEMBL3581138
     RDKit          3D

  0  0  0  0  0  0  0  0  0  0999 V3000
M  V30 BEGIN CTAB
M  V30 COUNTS 38 40 0 0 0
M  V30 BEGIN ATOM
M  V30 1 C -0.087009 -5.657202 0.497385 0
M  V30 2 O 1.105060 -5.404005 -0.179531 0
M  V30 3 C 1.390272 -4.351116 -1.004587 0
M  V30 4 C 2.625080 -4.231470 -1.610466 0
M  V30 5 C 2.902931 -3.172921 -2.436171 0
M  V30 6 C 1.905696 -2.223301 -2.646004 0
M  V30 7 C 0.660632 -2.332670 -2.042623 0
M  V30 8 C -0.414087 -1.305207 -2.271472 0
M  V30 9 C -0.190604 -0.288636 -1.183842 0
M  V30 10 O 0.769033 -1.015302 -0.818249 0
M  V30 11 N -0.947112 0.895244 -0.955476 0
M  V30 12 C -0.541809 1.710622 0.147731 0
M  V30 13 C -0.841247 1.782351 1.440340 0
M  V30 14 C -0.229347 2.728099 2.214009 0
M  V30 15 C -0.535261 2.833673 3.635519 0
M  V30 16 C 0.067318 3.776927 4.434662 0
M  V30 17 C -0.240927 3.854990 5.778496 0
M  V30 18 N -1.134031 3.018765 6.350534 0
M  V30 19 C -1.713460 2.102587 5.553449 0
M  V30 20 N -1.417043 2.021745 4.243122 0
M  V30 21 C 0.694055 3.577811 1.576032 0
M  V30 22 S 0.650054 2.960890 -0.195758 0
M  V30 23 C 0.404508 -3.395541 -1.223284 0
M  V30 24 H 0.158654 -6.242062 1.426761 0
M  V30 25 H -0.483348 -4.684535 0.898614 0
M  V30 26 H -0.835113 -6.218035 -0.079601 0
M  V30 27 H 3.415389 -4.951359 -1.466012 0
M  V30 28 H 3.848586 -3.033286 -2.932250 0
M  V30 29 H 2.093180 -1.360692 -3.302286 0
M  V30 30 H -1.396581 -1.774457 -2.227074 0
M  V30 31 H -0.216940 -0.852755 -3.282633 0
M  V30 32 H -1.711542 1.031710 -1.620700 0
M  V30 33 H -1.569986 1.047966 1.744331 0
M  V30 34 H 0.791857 4.481618 4.052789 0
M  V30 35 H 0.245872 4.605335 6.387573 0
M  V30 36 H -2.452126 1.356624 5.856681 0
M  V30 37 H 1.251114 4.374250 2.078550 0
M  V30 38 H -0.546997 -3.487789 -0.756377 0
M  V30 END ATOM
M  V30 BEGIN BOND
M  V30 1 1 1 2
M  V30 2 1 2 3
M  V30 3 2 3 4
M  V30 4 1 4 5
M  V30 5 2 5 6
M  V30 6 1 6 7
M  V30 7 1 7 8
M  V30 8 1 8 9
M  V30 9 2 9 10
M  V30 10 1 9 11
M  V30 11 1 11 12
M  V30 12 2 12 13
M  V30 13 1 13 14
M  V30 14 1 14 15
M  V30 15 2 15 16
M  V30 16 1 16 17
M  V30 17 2 17 18
M  V30 18 1 18 19
M  V30 19 2 19 20
M  V30 20 2 14 21
M  V30 21 1 21 22
M  V30 22 2 7 23
M  V30 23 1 23 3
M  V30 24 1 22 12
M  V30 25 1 20 15
M  V30 26 1 1 24
M  V30 27 1 1 25
M  V30 28 1 1 26
M  V30 29 1 4 27
M  V30 30 1 5 28
M  V30 31 1 6 29
M  V30 32 1 8 30
M  V30 33 1 8 31
M  V30 34 1 11 32
M  V30 35 1 13 33
M  V30 36 1 16 34
M  V30 37 1 17 35
M  V30 38 1 19 36
M  V30 39 1 21 37
M  V30 40 1 23 38
M  V30 END BOND
M  V30 END CTAB
M  END
>  <Dataset>  (41) 
ChEMBL_PKA

>  <Ligand_Instance>  (41) 
nan

>  <PDB_ID>  (41) 
nan

>  <Standardized_SMILES>  (41) 
COc1cccc(CC(=O)Nc2cc(-c3ccncn3)cs2)c1

>  <Name>  (41) 
nan

>  <Pocket>  (41) 
nan

>  <ATP_Site>  (41) 
nan

>  <Peripheral>  (41) 
nan

>  <Num_H_Atoms_ProtBoundConf>  (41) 
nan

>  <Num_Resolved_Atoms>  (41) 
nan

>  <Num_Not_Resolved_Atoms>  (41) 
nan

>  <2D_Mol_H>  (41) 
<rdkit.Chem.rdchem.Mol object at 0x72a239103920>

>  <MW>  (41) 
325.393

>  <HBA>  (41) 
5

>  <HBD>  (41) 
1

>  <LogP>  (41) 
3.3949

>  <NRB>  (41) 
6

>  <TPSA>  (41) 
64.11

>  <Num_Heavy_Atoms>  (41) 
23

>  <Ro5>  (41) 
[True, True, True, True, True, True]

>  <Ro5_Fulfilled>  (41) 
True

>  <Ro3>  (41) 
[False, False, True, False]

>  <Ro3_Fulfilled>  (41) 
False

>  <Fsp3>  (41) 
0.117647

>  <Fsp3_0.42>  (41) 
False

>  <Fsp3_0.45>  (41) 
False

>  <Stereogenic_Carbons>  (41) 
0

>  <C_Atoms>  (41) 
17

>  <FCStereo>  (41) 
0.0

>  <SPS>  (41) 
237

>  <nSPS>  (41) 
10.304348

>  <PBF>  (41) 
1.007076

>  <PBF_0.6>  (41) 
True

>  <nPBF>  (41) 
0.043786

>  <nPBF_0.016>  (41) 
True

>  <PMI1>  (41) 
1261.202321

>  <PMI2>  (41) 
5086.569077

>  <PMI3>  (41) 
5851.773497

>  <NPR1>  (41) 
0.215525

>  <NPR2>  (41) 
0.869235

>  <Sum_NPR>  (41) 
1.08476

>  <Sum_NPR_1.07>  (41) 
True

>  <Sum_NPR_1.2>  (41) 
False

>  <MaxAbsEStateIndex>  (41) 
12.156372

>  <MaxEStateIndex>  (41) 
12.156372

>  <MinAbsEStateIndex>  (41) 
0.060796

>  <MinEStateIndex>  (41) 
-0.060796

>  <qed>  (41) 
0.780739

>  <MolWt>  (41) 
325.393

>  <HeavyAtomMolWt>  (41) 
310.273

>  <ExactMolWt>  (41) 
325.088498

>  <NumValenceElectrons>  (41) 
116

>  <NumRadicalElectrons>  (41) 
0

>  <MaxPartialCharge>  (41) 
0.228899

>  <MinPartialCharge>  (41) 
-0.496758

>  <MaxAbsPartialCharge>  (41) 
0.496758

>  <MinAbsPartialCharge>  (41) 
0.228899

>  <FpDensityMorgan1>  (41) 
1.304348

>  <FpDensityMorgan2>  (41) 
2.217391

>  <FpDensityMorgan3>  (41) 
3.0

>  <BCUT2D_MWHI>  (41) 
32.133484

>  <BCUT2D_MWLOW>  (41) 
10.127825

>  <BCUT2D_CHGHI>  (41) 
2.08212

>  <BCUT2D_CHGLO>  (41) 
-2.046003

>  <BCUT2D_LOGPHI>  (41) 
2.27184

>  <BCUT2D_LOGPLOW>  (41) 
-2.129557

>  <BCUT2D_MRHI>  (41) 
7.143233

>  <BCUT2D_MRLOW>  (41) 
-0.115098

>  <AvgIpc>  (41) 
3.038737

>  <BalabanJ>  (41) 
1.650954

>  <BertzCT>  (41) 
802.36287

>  <Chi0>  (41) 
16.070703

>  <Chi0n>  (41) 
12.522431

>  <Chi0v>  (41) 
13.338928

>  <Chi1>  (41) 
11.241515

>  <Chi1n>  (41) 
7.021034

>  <Chi1v>  (41) 
7.900687

>  <Chi2n>  (41) 
4.870733

>  <Chi2v>  (41) 
5.781964

>  <Chi3n>  (41) 
3.23863

>  <Chi3v>  (41) 
4.084262

>  <Chi4n>  (41) 
2.146981

>  <Chi4v>  (41) 
2.957471

>  <HallKierAlpha>  (41) 
-2.73

>  <Ipc>  (41) 
291147.481458

>  <Kappa1>  (41) 
15.176679

>  <Kappa2>  (41) 
7.019949

>  <Kappa3>  (41) 
3.924185

>  <LabuteASA>  (41) 
137.545007

>  <PEOE_VSA1>  (41) 
10.053652

>  <PEOE_VSA10>  (41) 
12.076832

>  <PEOE_VSA11>  (41) 
0.0

>  <PEOE_VSA12>  (41) 
5.90718

>  <PEOE_VSA13>  (41) 
0.0

>  <PEOE_VSA14>  (41) 
0.0

>  <PEOE_VSA2>  (41) 
4.794537

>  <PEOE_VSA3>  (41) 
9.967957

>  <PEOE_VSA4>  (41) 
0.0

>  <PEOE_VSA5>  (41) 
11.336786

>  <PEOE_VSA6>  (41) 
12.132734

>  <PEOE_VSA7>  (41) 
29.82892

>  <PEOE_VSA8>  (41) 
17.140358

>  <PEOE_VSA9>  (41) 
24.225629

>  <SMR_VSA1>  (41) 
9.5314

>  <SMR_VSA10>  (41) 
22.245048

>  <SMR_VSA2>  (41) 
0.0

>  <SMR_VSA3>  (41) 
9.967957

>  <SMR_VSA4>  (41) 
0.0

>  <SMR_VSA5>  (41) 
6.420822

>  <SMR_VSA6>  (41) 
12.426586

>  <SMR_VSA7>  (41) 
59.86588

>  <SMR_VSA8>  (41) 
0.0

>  <SMR_VSA9>  (41) 
17.006891

>  <SlogP_VSA1>  (41) 
10.053652

>  <SlogP_VSA10>  (41) 
5.001082

>  <SlogP_VSA11>  (41) 
5.749512

>  <SlogP_VSA12>  (41) 
11.336786

>  <SlogP_VSA2>  (41) 
22.984934

>  <SlogP_VSA3>  (41) 
11.215359

>  <SlogP_VSA4>  (41) 
0.0

>  <SlogP_VSA5>  (41) 
5.563451

>  <SlogP_VSA6>  (41) 
54.302429

>  <SlogP_VSA7>  (41) 
0.0

>  <SlogP_VSA8>  (41) 
11.257379

>  <SlogP_VSA9>  (41) 
0.0

>  <EState_VSA1>  (41) 
0.0

>  <EState_VSA10>  (41) 
4.794537

>  <EState_VSA11>  (41) 
0.0

>  <EState_VSA2>  (41) 
5.90718

>  <EState_VSA3>  (41) 
6.420822

>  <EState_VSA4>  (41) 
27.571425

>  <EState_VSA5>  (41) 
17.664106

>  <EState_VSA6>  (41) 
13.306641

>  <EState_VSA7>  (41) 
41.778265

>  <EState_VSA8>  (41) 
15.284746

>  <EState_VSA9>  (41) 
4.736863

>  <VSA_EState1>  (41) 
5.165322

>  <VSA_EState10>  (41) 
1.473884

>  <VSA_EState2>  (41) 
20.252973

>  <VSA_EState3>  (41) 
5.672889

>  <VSA_EState4>  (41) 
2.715792

>  <VSA_EState5>  (41) 
0.686863

>  <VSA_EState6>  (41) 
11.248024

>  <VSA_EState7>  (41) 
3.506973

>  <VSA_EState8>  (41) 
0.0

>  <VSA_EState9>  (41) 
1.610614

>  <FractionCSP3>  (41) 
0.117647

>  <HeavyAtomCount>  (41) 
23

>  <NHOHCount>  (41) 
1

>  <NOCount>  (41) 
5

>  <NumAliphaticCarbocycles>  (41) 
0

>  <NumAliphaticHeterocycles>  (41) 
0

>  <NumAliphaticRings>  (41) 
0

>  <NumAromaticCarbocycles>  (41) 
1

>  <NumAromaticHeterocycles>  (41) 
2

>  <NumAromaticRings>  (41) 
3

>  <NumHAcceptors>  (41) 
5

>  <NumHDonors>  (41) 
1

>  <NumHeteroatoms>  (41) 
6

>  <NumRotatableBonds>  (41) 
5

>  <NumSaturatedCarbocycles>  (41) 
0

>  <NumSaturatedHeterocycles>  (41) 
0

>  <NumSaturatedRings>  (41) 
0

>  <RingCount>  (41) 
3

>  <MolLogP>  (41) 
3.3949

>  <MolMR>  (41) 
90.6727

>  <fr_Al_COO>  (41) 
0

>  <fr_Al_OH>  (41) 
0

>  <fr_Al_OH_noTert>  (41) 
0

>  <fr_ArN>  (41) 
0

>  <fr_Ar_COO>  (41) 
0

>  <fr_Ar_N>  (41) 
2

>  <fr_Ar_NH>  (41) 
0

>  <fr_Ar_OH>  (41) 
0

>  <fr_COO>  (41) 
0

>  <fr_COO2>  (41) 
0

>  <fr_C_O>  (41) 
1

>  <fr_C_O_noCOO>  (41) 
1

>  <fr_C_S>  (41) 
0

>  <fr_HOCCN>  (41) 
0

>  <fr_Imine>  (41) 
0

>  <fr_NH0>  (41) 
2

>  <fr_NH1>  (41) 
1

>  <fr_NH2>  (41) 
0

>  <fr_N_O>  (41) 
0

>  <fr_Ndealkylation1>  (41) 
0

>  <fr_Ndealkylation2>  (41) 
0

>  <fr_Nhpyrrole>  (41) 
0

>  <fr_SH>  (41) 
0

>  <fr_aldehyde>  (41) 
0

>  <fr_alkyl_carbamate>  (41) 
0

>  <fr_alkyl_halide>  (41) 
0

>  <fr_allylic_oxid>  (41) 
0

>  <fr_amide>  (41) 
1

>  <fr_amidine>  (41) 
0

>  <fr_aniline>  (41) 
1

>  <fr_aryl_methyl>  (41) 
0

>  <fr_azide>  (41) 
0

>  <fr_azo>  (41) 
0

>  <fr_barbitur>  (41) 
0

>  <fr_benzene>  (41) 
1

>  <fr_benzodiazepine>  (41) 
0

>  <fr_bicyclic>  (41) 
0

>  <fr_diazo>  (41) 
0

>  <fr_dihydropyridine>  (41) 
0

>  <fr_epoxide>  (41) 
0

>  <fr_ester>  (41) 
0

>  <fr_ether>  (41) 
1

>  <fr_furan>  (41) 
0

>  <fr_guanido>  (41) 
0

>  <fr_halogen>  (41) 
0

>  <fr_hdrzine>  (41) 
0

>  <fr_hdrzone>  (41) 
0

>  <fr_imidazole>  (41) 
0

>  <fr_imide>  (41) 
0

>  <fr_isocyan>  (41) 
0

>  <fr_isothiocyan>  (41) 
0

>  <fr_ketone>  (41) 
0

>  <fr_ketone_Topliss>  (41) 
0

>  <fr_lactam>  (41) 
0

>  <fr_lactone>  (41) 
0

>  <fr_methoxy>  (41) 
1

>  <fr_morpholine>  (41) 
0

>  <fr_nitrile>  (41) 
0

>  <fr_nitro>  (41) 
0

>  <fr_nitro_arom>  (41) 
0

>  <fr_nitro_arom_nonortho>  (41) 
0

>  <fr_nitroso>  (41) 
0

>  <fr_oxazole>  (41) 
0

>  <fr_oxime>  (41) 
0

>  <fr_para_hydroxylation>  (41) 
0

>  <fr_phenol>  (41) 
0

>  <fr_phenol_noOrthoHbond>  (41) 
0

>  <fr_phos_acid>  (41) 
0

>  <fr_phos_ester>  (41) 
0

>  <fr_piperdine>  (41) 
0

>  <fr_piperzine>  (41) 
0

>  <fr_priamide>  (41) 
0

>  <fr_prisulfonamd>  (41) 
0

>  <fr_pyridine>  (41) 
0

>  <fr_quatN>  (41) 
0

>  <fr_sulfide>  (41) 
0

>  <fr_sulfonamd>  (41) 
0

>  <fr_sulfone>  (41) 
0

>  <fr_term_acetylene>  (41) 
0

>  <fr_tetrazole>  (41) 
0

>  <fr_thiazole>  (41) 
0

>  <fr_thiocyan>  (41) 
0

>  <fr_thiophene>  (41) 
1

>  <fr_unbrch_alkane>  (41) 
0

>  <fr_urea>  (41) 
0

>  <NP_Likeness>  (41) 
-1.433795

$$$$
CHEMBL3581140
     RDKit          3D

  0  0  0  0  0  0  0  0  0  0999 V3000
M  V30 BEGIN CTAB
M  V30 COUNTS 40 42 0 0 0
M  V30 BEGIN ATOM
M  V30 1 C 1.620674 -5.090746 -3.750982 0
M  V30 2 O 2.791875 -4.732366 -3.060240 0
M  V30 3 C 2.916396 -3.459858 -2.550799 0
M  V30 4 C 4.130954 -3.267952 -1.898012 0
M  V30 5 C 4.457876 -2.054225 -1.311805 0
M  V30 6 C 3.565616 -0.988976 -1.365260 0
M  V30 7 C 2.365385 -1.191186 -2.014790 0
M  V30 8 C 1.334810 -0.117368 -2.131868 0
M  V30 9 C 0.416604 -0.201230 -0.955879 0
M  V30 10 O 0.849634 -1.165178 -0.275595 0
M  V30 11 N -0.635575 0.717380 -0.857039 0
M  V30 12 C -1.486414 0.538657 0.356894 0
M  V30 13 N -1.298650 1.060857 1.392308 0
M  V30 14 C -2.054499 0.909444 2.490532 0
M  V30 15 C -1.751220 1.599256 3.748024 0
M  V30 16 C -0.683432 2.454841 3.928572 0
M  V30 17 C -0.410859 3.097122 5.117842 0
M  V30 18 N -1.225876 2.889921 6.182451 0
M  V30 19 C -2.274830 2.078710 6.084138 0
M  V30 20 N -3.126867 1.864131 7.202447 0
M  V30 21 C -2.518699 1.453855 4.884666 0
M  V30 22 C -3.145350 0.063696 2.382113 0
M  V30 23 S -2.977587 -0.483086 0.571457 0
M  V30 24 C 2.036548 -2.395700 -2.598678 0
M  V30 25 H 0.905541 -5.525616 -3.009474 0
M  V30 26 H 1.216309 -4.268908 -4.342868 0
M  V30 27 H 1.921898 -5.908453 -4.458006 0
M  V30 28 H 4.909541 -4.023784 -1.790091 0
M  V30 29 H 5.394268 -1.877481 -0.798394 0
M  V30 30 H 3.733130 -0.000811 -0.935495 0
M  V30 31 H 0.774584 -0.215207 -3.067707 0
M  V30 32 H 1.887217 0.847165 -2.115582 0
M  V30 33 H -0.756384 1.423203 -1.584369 0
M  V30 34 H -0.017230 2.631663 3.078403 0
M  V30 35 H 0.446384 3.764382 5.209912 0
M  V30 36 H -3.944900 2.483723 7.015745 0
M  V30 37 H -3.035129 1.251834 8.051992 0
M  V30 38 H -3.390418 0.801488 4.861499 0
M  V30 39 H -3.858283 -0.181095 3.142691 0
M  V30 40 H 1.120436 -2.630547 -3.122927 0
M  V30 END ATOM
M  V30 BEGIN BOND
M  V30 1 1 1 2
M  V30 2 1 2 3
M  V30 3 2 3 4
M  V30 4 1 4 5
M  V30 5 2 5 6
M  V30 6 1 6 7
M  V30 7 1 7 8
M  V30 8 1 8 9
M  V30 9 2 9 10
M  V30 10 1 9 11
M  V30 11 1 11 12
M  V30 12 2 12 13
M  V30 13 1 13 14
M  V30 14 1 14 15
M  V30 15 2 15 16
M  V30 16 1 16 17
M  V30 17 2 17 18
M  V30 18 1 18 19
M  V30 19 1 19 20
M  V30 20 2 19 21
M  V30 21 2 14 22
M  V30 22 1 22 23
M  V30 23 2 7 24
M  V30 24 1 24 3
M  V30 25 1 23 12
M  V30 26 1 21 15
M  V30 27 1 1 25
M  V30 28 1 1 26
M  V30 29 1 1 27
M  V30 30 1 4 28
M  V30 31 1 5 29
M  V30 32 1 6 30
M  V30 33 1 8 31
M  V30 34 1 8 32
M  V30 35 1 11 33
M  V30 36 1 16 34
M  V30 37 1 17 35
M  V30 38 1 20 36
M  V30 39 1 20 37
M  V30 40 1 21 38
M  V30 41 1 22 39
M  V30 42 1 24 40
M  V30 END BOND
M  V30 END CTAB
M  END
>  <Dataset>  (42) 
ChEMBL_PKA

>  <Ligand_Instance>  (42) 
nan

>  <PDB_ID>  (42) 
nan

>  <Standardized_SMILES>  (42) 
COc1cccc(CC(=O)Nc2nc(-c3ccnc(N)c3)cs2)c1

>  <Name>  (42) 
nan

>  <Pocket>  (42) 
nan

>  <ATP_Site>  (42) 
nan

>  <Peripheral>  (42) 
nan

>  <Num_H_Atoms_ProtBoundConf>  (42) 
nan

>  <Num_Resolved_Atoms>  (42) 
nan

>  <Num_Not_Resolved_Atoms>  (42) 
nan

>  <2D_Mol_H>  (42) 
<rdkit.Chem.rdchem.Mol object at 0x72a239103a00>

>  <MW>  (42) 
340.408

>  <HBA>  (42) 
6

>  <HBD>  (42) 
2

>  <LogP>  (42) 
2.9771

>  <NRB>  (42) 
7

>  <TPSA>  (42) 
90.13

>  <Num_Heavy_Atoms>  (42) 
24

>  <Ro5>  (42) 
[True, True, True, True, True, True]

>  <Ro5_Fulfilled>  (42) 
True

>  <Ro3>  (42) 
[False, False, True, True]

>  <Ro3_Fulfilled>  (42) 
False

>  <Fsp3>  (42) 
0.117647

>  <Fsp3_0.42>  (42) 
False

>  <Fsp3_0.45>  (42) 
False

>  <Stereogenic_Carbons>  (42) 
0

>  <C_Atoms>  (42) 
17

>  <FCStereo>  (42) 
0.0

>  <SPS>  (42) 
249

>  <nSPS>  (42) 
10.375

>  <PBF>  (42) 
1.009332

>  <PBF_0.6>  (42) 
True

>  <nPBF>  (42) 
0.042056

>  <nPBF_0.016>  (42) 
True

>  <PMI1>  (42) 
1089.485793

>  <PMI2>  (42) 
6505.189563

>  <PMI3>  (42) 
6934.154141

>  <NPR1>  (42) 
0.157119

>  <NPR2>  (42) 
0.938137

>  <Sum_NPR>  (42) 
1.095256

>  <Sum_NPR_1.07>  (42) 
True

>  <Sum_NPR_1.2>  (42) 
False

>  <MaxAbsEStateIndex>  (42) 
12.166112

>  <MaxEStateIndex>  (42) 
12.166112

>  <MinAbsEStateIndex>  (42) 
0.126486

>  <MinEStateIndex>  (42) 
-0.126486

>  <qed>  (42) 
0.745048

>  <MolWt>  (42) 
340.408

>  <HeavyAtomMolWt>  (42) 
324.28

>  <ExactMolWt>  (42) 
340.099397

>  <NumValenceElectrons>  (42) 
122

>  <NumRadicalElectrons>  (42) 
0

>  <MaxPartialCharge>  (42) 
0.230077

>  <MinPartialCharge>  (42) 
-0.496758

>  <MaxAbsPartialCharge>  (42) 
0.496758

>  <MinAbsPartialCharge>  (42) 
0.230077

>  <FpDensityMorgan1>  (42) 
1.333333

>  <FpDensityMorgan2>  (42) 
2.208333

>  <FpDensityMorgan3>  (42) 
3.0

>  <BCUT2D_MWHI>  (42) 
32.133491

>  <BCUT2D_MWLOW>  (42) 
10.129778

>  <BCUT2D_CHGHI>  (42) 
2.094445

>  <BCUT2D_CHGLO>  (42) 
-2.042297

>  <BCUT2D_LOGPHI>  (42) 
2.252037

>  <BCUT2D_LOGPLOW>  (42) 
-2.137431

>  <BCUT2D_MRHI>  (42) 
7.137578

>  <BCUT2D_MRLOW>  (42) 
-0.115118

>  <AvgIpc>  (42) 
3.030827

>  <BalabanJ>  (42) 
1.666099

>  <BertzCT>  (42) 
863.056697

>  <Chi0>  (42) 
16.940947

>  <Chi0n>  (42) 
13.022431

>  <Chi0v>  (42) 
13.838928

>  <Chi1>  (42) 
11.635362

>  <Chi1n>  (42) 
7.240525

>  <Chi1v>  (42) 
8.120178

>  <Chi2n>  (42) 
5.083763

>  <Chi2v>  (42) 
5.941866

>  <Chi3n>  (42) 
3.326217

>  <Chi3v>  (42) 
4.083938

>  <Chi4n>  (42) 
2.202679

>  <Chi4v>  (42) 
2.93854

>  <HallKierAlpha>  (42) 
-2.93

>  <Ipc>  (42) 
405570.056319

>  <Kappa1>  (42) 
15.946453

>  <Kappa2>  (42) 
7.096608

>  <Kappa3>  (42) 
3.878183

>  <LabuteASA>  (42) 
142.884897

>  <PEOE_VSA1>  (42) 
15.787319

>  <PEOE_VSA10>  (42) 
11.567375

>  <PEOE_VSA11>  (42) 
5.131558

>  <PEOE_VSA12>  (42) 
5.90718

>  <PEOE_VSA13>  (42) 
0.0

>  <PEOE_VSA14>  (42) 
0.0

>  <PEOE_VSA2>  (42) 
4.794537

>  <PEOE_VSA3>  (42) 
9.967957

>  <PEOE_VSA4>  (42) 
0.0

>  <PEOE_VSA5>  (42) 
11.336786

>  <PEOE_VSA6>  (42) 
12.132734

>  <PEOE_VSA7>  (42) 
29.82892

>  <PEOE_VSA8>  (42) 
17.140358

>  <PEOE_VSA9>  (42) 
19.224547

>  <SMR_VSA1>  (42) 
9.5314

>  <SMR_VSA10>  (42) 
28.193387

>  <SMR_VSA2>  (42) 
0.0

>  <SMR_VSA3>  (42) 
9.967957

>  <SMR_VSA4>  (42) 
0.0

>  <SMR_VSA5>  (42) 
6.420822

>  <SMR_VSA6>  (42) 
18.160254

>  <SMR_VSA7>  (42) 
53.53856

>  <SMR_VSA8>  (42) 
0.0

>  <SMR_VSA9>  (42) 
17.006891

>  <SlogP_VSA1>  (42) 
15.787319

>  <SlogP_VSA10>  (42) 
10.949421

>  <SlogP_VSA11>  (42) 
5.749512

>  <SlogP_VSA12>  (42) 
11.336786

>  <SlogP_VSA2>  (42) 
22.984934

>  <SlogP_VSA3>  (42) 
11.215359

>  <SlogP_VSA4>  (42) 
0.0

>  <SlogP_VSA5>  (42) 
5.563451

>  <SlogP_VSA6>  (42) 
47.975109

>  <SlogP_VSA7>  (42) 
0.0

>  <SlogP_VSA8>  (42) 
11.257379

>  <SlogP_VSA9>  (42) 
0.0

>  <EState_VSA1>  (42) 
0.0

>  <EState_VSA10>  (42) 
4.794537

>  <EState_VSA11>  (42) 
0.0

>  <EState_VSA2>  (42) 
12.328001

>  <EState_VSA3>  (42) 
10.949421

>  <EState_VSA4>  (42) 
22.570343

>  <EState_VSA5>  (42) 
11.336786

>  <EState_VSA6>  (42) 
19.373008

>  <EState_VSA7>  (42) 
35.711898

>  <EState_VSA8>  (42) 
15.284746

>  <EState_VSA9>  (42) 
10.47053

>  <VSA_EState1>  (42) 
5.159342

>  <VSA_EState10>  (42) 
1.367814

>  <VSA_EState2>  (42) 
20.536489

>  <VSA_EState3>  (42) 
5.233728

>  <VSA_EState4>  (42) 
8.180707

>  <VSA_EState5>  (42) 
1.036682

>  <VSA_EState6>  (42) 
10.997624

>  <VSA_EState7>  (42) 
1.88827

>  <VSA_EState8>  (42) 
0.0

>  <VSA_EState9>  (42) 
1.599343

>  <FractionCSP3>  (42) 
0.117647

>  <HeavyAtomCount>  (42) 
24

>  <NHOHCount>  (42) 
3

>  <NOCount>  (42) 
6

>  <NumAliphaticCarbocycles>  (42) 
0

>  <NumAliphaticHeterocycles>  (42) 
0

>  <NumAliphaticRings>  (42) 
0

>  <NumAromaticCarbocycles>  (42) 
1

>  <NumAromaticHeterocycles>  (42) 
2

>  <NumAromaticRings>  (42) 
3

>  <NumHAcceptors>  (42) 
6

>  <NumHDonors>  (42) 
2

>  <NumHeteroatoms>  (42) 
7

>  <NumRotatableBonds>  (42) 
5

>  <NumSaturatedCarbocycles>  (42) 
0

>  <NumSaturatedHeterocycles>  (42) 
0

>  <NumSaturatedRings>  (42) 
0

>  <RingCount>  (42) 
3

>  <MolLogP>  (42) 
2.9771

>  <MolMR>  (42) 
95.0851

>  <fr_Al_COO>  (42) 
0

>  <fr_Al_OH>  (42) 
0

>  <fr_Al_OH_noTert>  (42) 
0

>  <fr_ArN>  (42) 
1

>  <fr_Ar_COO>  (42) 
0

>  <fr_Ar_N>  (42) 
2

>  <fr_Ar_NH>  (42) 
0

>  <fr_Ar_OH>  (42) 
0

>  <fr_COO>  (42) 
0

>  <fr_COO2>  (42) 
0

>  <fr_C_O>  (42) 
1

>  <fr_C_O_noCOO>  (42) 
1

>  <fr_C_S>  (42) 
0

>  <fr_HOCCN>  (42) 
0

>  <fr_Imine>  (42) 
0

>  <fr_NH0>  (42) 
2

>  <fr_NH1>  (42) 
1

>  <fr_NH2>  (42) 
1

>  <fr_N_O>  (42) 
0

>  <fr_Ndealkylation1>  (42) 
0

>  <fr_Ndealkylation2>  (42) 
0

>  <fr_Nhpyrrole>  (42) 
0

>  <fr_SH>  (42) 
0

>  <fr_aldehyde>  (42) 
0

>  <fr_alkyl_carbamate>  (42) 
0

>  <fr_alkyl_halide>  (42) 
0

>  <fr_allylic_oxid>  (42) 
0

>  <fr_amide>  (42) 
1

>  <fr_amidine>  (42) 
0

>  <fr_aniline>  (42) 
2

>  <fr_aryl_methyl>  (42) 
0

>  <fr_azide>  (42) 
0

>  <fr_azo>  (42) 
0

>  <fr_barbitur>  (42) 
0

>  <fr_benzene>  (42) 
1

>  <fr_benzodiazepine>  (42) 
0

>  <fr_bicyclic>  (42) 
0

>  <fr_diazo>  (42) 
0

>  <fr_dihydropyridine>  (42) 
0

>  <fr_epoxide>  (42) 
0

>  <fr_ester>  (42) 
0

>  <fr_ether>  (42) 
1

>  <fr_furan>  (42) 
0

>  <fr_guanido>  (42) 
0

>  <fr_halogen>  (42) 
0

>  <fr_hdrzine>  (42) 
0

>  <fr_hdrzone>  (42) 
0

>  <fr_imidazole>  (42) 
0

>  <fr_imide>  (42) 
0

>  <fr_isocyan>  (42) 
0

>  <fr_isothiocyan>  (42) 
0

>  <fr_ketone>  (42) 
0

>  <fr_ketone_Topliss>  (42) 
0

>  <fr_lactam>  (42) 
0

>  <fr_lactone>  (42) 
0

>  <fr_methoxy>  (42) 
1

>  <fr_morpholine>  (42) 
0

>  <fr_nitrile>  (42) 
0

>  <fr_nitro>  (42) 
0

>  <fr_nitro_arom>  (42) 
0

>  <fr_nitro_arom_nonortho>  (42) 
0

>  <fr_nitroso>  (42) 
0

>  <fr_oxazole>  (42) 
0

>  <fr_oxime>  (42) 
0

>  <fr_para_hydroxylation>  (42) 
0

>  <fr_phenol>  (42) 
0

>  <fr_phenol_noOrthoHbond>  (42) 
0

>  <fr_phos_acid>  (42) 
0

>  <fr_phos_ester>  (42) 
0

>  <fr_piperdine>  (42) 
0

>  <fr_piperzine>  (42) 
0

>  <fr_priamide>  (42) 
0

>  <fr_prisulfonamd>  (42) 
0

>  <fr_pyridine>  (42) 
1

>  <fr_quatN>  (42) 
0

>  <fr_sulfide>  (42) 
0

>  <fr_sulfonamd>  (42) 
0

>  <fr_sulfone>  (42) 
0

>  <fr_term_acetylene>  (42) 
0

>  <fr_tetrazole>  (42) 
0

>  <fr_thiazole>  (42) 
1

>  <fr_thiocyan>  (42) 
0

>  <fr_thiophene>  (42) 
0

>  <fr_unbrch_alkane>  (42) 
0

>  <fr_urea>  (42) 
0

>  <NP_Likeness>  (42) 
-1.449126

$$$$
CHEMBL3581146
     RDKit          3D

  0  0  0  0  0  0  0  0  0  0999 V3000
M  V30 BEGIN CTAB
M  V30 COUNTS 39 41 0 0 0
M  V30 BEGIN ATOM
M  V30 1 C -0.007573 -5.929900 -0.125226 0
M  V30 2 O 1.359260 -5.632883 0.068475 0
M  V30 3 C 1.873160 -4.434903 -0.391078 0
M  V30 4 C 3.217293 -4.225296 -0.160246 0
M  V30 5 C 3.869206 -3.089630 -0.554932 0
M  V30 6 C 3.083525 -2.138864 -1.215739 0
M  V30 7 C 1.720265 -2.340445 -1.455217 0
M  V30 8 C 0.970415 -1.249791 -2.173746 0
M  V30 9 C 0.456673 -0.363662 -1.121047 0
M  V30 10 O 0.738682 -0.696021 0.057922 0
M  V30 11 N -0.302043 0.787077 -1.363777 0
M  V30 12 C -0.826471 1.687674 -0.330303 0
M  V30 13 C -0.748888 1.673913 0.974627 0
M  V30 14 C -1.366305 2.691844 1.661039 0
M  V30 15 C -1.340370 2.771652 3.144714 0
M  V30 16 C -0.209301 2.277785 3.801669 0
M  V30 17 C -0.167999 2.340328 5.181625 0
M  V30 18 N -1.188976 2.865165 5.918951 0
M  V30 19 C -2.249331 3.324957 5.248609 0
M  V30 20 F -3.282185 3.853814 5.960508 0
M  V30 21 C -2.381349 3.305553 3.874955 0
M  V30 22 C -2.027851 3.666906 0.984380 0
M  V30 23 S -1.739720 3.072350 -0.792891 0
M  V30 24 C 1.109491 -3.491657 -1.042774 0
M  V30 25 H -0.270198 -6.822070 0.478655 0
M  V30 26 H -0.591598 -5.018872 0.180102 0
M  V30 27 H -0.151790 -6.120123 -1.212436 0
M  V30 28 H 3.828323 -4.971040 0.357111 0
M  V30 29 H 4.913834 -2.942474 -0.367864 0
M  V30 30 H 3.535249 -1.208463 -1.559620 0
M  V30 31 H 0.193960 -1.699307 -2.825423 0
M  V30 32 H 1.692630 -0.775832 -2.863349 0
M  V30 33 H -0.471182 0.959807 -2.373972 0
M  V30 34 H -0.208532 0.871801 1.455096 0
M  V30 35 H 0.584084 1.867942 3.196943 0
M  V30 36 H 0.716671 1.954027 5.694996 0
M  V30 37 H -3.249218 3.683204 3.346933 0
M  V30 38 H -2.555891 4.516144 1.308489 0
M  V30 39 H 0.061014 -3.661517 -1.220047 0
M  V30 END ATOM
M  V30 BEGIN BOND
M  V30 1 1 1 2
M  V30 2 1 2 3
M  V30 3 2 3 4
M  V30 4 1 4 5
M  V30 5 2 5 6
M  V30 6 1 6 7
M  V30 7 1 7 8
M  V30 8 1 8 9
M  V30 9 2 9 10
M  V30 10 1 9 11
M  V30 11 1 11 12
M  V30 12 2 12 13
M  V30 13 1 13 14
M  V30 14 1 14 15
M  V30 15 2 15 16
M  V30 16 1 16 17
M  V30 17 2 17 18
M  V30 18 1 18 19
M  V30 19 1 19 20
M  V30 20 2 19 21
M  V30 21 2 14 22
M  V30 22 1 22 23
M  V30 23 2 7 24
M  V30 24 1 24 3
M  V30 25 1 23 12
M  V30 26 1 21 15
M  V30 27 1 1 25
M  V30 28 1 1 26
M  V30 29 1 1 27
M  V30 30 1 4 28
M  V30 31 1 5 29
M  V30 32 1 6 30
M  V30 33 1 8 31
M  V30 34 1 8 32
M  V30 35 1 11 33
M  V30 36 1 13 34
M  V30 37 1 16 35
M  V30 38 1 17 36
M  V30 39 1 21 37
M  V30 40 1 22 38
M  V30 41 1 24 39
M  V30 END BOND
M  V30 END CTAB
M  END
>  <Dataset>  (43) 
ChEMBL_PKA

>  <Ligand_Instance>  (43) 
nan

>  <PDB_ID>  (43) 
nan

>  <Standardized_SMILES>  (43) 
COc1cccc(CC(=O)Nc2cc(-c3ccnc(F)c3)cs2)c1

>  <Name>  (43) 
nan

>  <Pocket>  (43) 
nan

>  <ATP_Site>  (43) 
nan

>  <Peripheral>  (43) 
nan

>  <Num_H_Atoms_ProtBoundConf>  (43) 
nan

>  <Num_Resolved_Atoms>  (43) 
nan

>  <Num_Not_Resolved_Atoms>  (43) 
nan

>  <2D_Mol_H>  (43) 
<rdkit.Chem.rdchem.Mol object at 0x72a239103ae0>

>  <MW>  (43) 
342.395

>  <HBA>  (43) 
4

>  <HBD>  (43) 
1

>  <LogP>  (43) 
4.139

>  <NRB>  (43) 
6

>  <TPSA>  (43) 
51.22

>  <Num_Heavy_Atoms>  (43) 
24

>  <Ro5>  (43) 
[True, True, True, True, True, True]

>  <Ro5_Fulfilled>  (43) 
True

>  <Ro3>  (43) 
[False, False, True, False]

>  <Ro3_Fulfilled>  (43) 
False

>  <Fsp3>  (43) 
0.111111

>  <Fsp3_0.42>  (43) 
False

>  <Fsp3_0.45>  (43) 
False

>  <Stereogenic_Carbons>  (43) 
0

>  <C_Atoms>  (43) 
18

>  <FCStereo>  (43) 
0.0

>  <SPS>  (43) 
250

>  <nSPS>  (43) 
10.416667

>  <PBF>  (43) 
1.06754

>  <PBF_0.6>  (43) 
True

>  <nPBF>  (43) 
0.044481

>  <nPBF_0.016>  (43) 
True

>  <PMI1>  (43) 
1506.154857

>  <PMI2>  (43) 
5762.398817

>  <PMI3>  (43) 
6611.097432

>  <NPR1>  (43) 
0.227822

>  <NPR2>  (43) 
0.871625

>  <Sum_NPR>  (43) 
1.099447

>  <Sum_NPR_1.07>  (43) 
True

>  <Sum_NPR_1.2>  (43) 
False

>  <MaxAbsEStateIndex>  (43) 
13.186176

>  <MaxEStateIndex>  (43) 
13.186176

>  <MinAbsEStateIndex>  (43) 
0.113369

>  <MinEStateIndex>  (43) 
-0.525638

>  <qed>  (43) 
0.709146

>  <MolWt>  (43) 
342.395

>  <HeavyAtomMolWt>  (43) 
327.275

>  <ExactMolWt>  (43) 
342.083827

>  <NumValenceElectrons>  (43) 
122

>  <NumRadicalElectrons>  (43) 
0

>  <MaxPartialCharge>  (43) 
0.228899

>  <MinPartialCharge>  (43) 
-0.496758

>  <MaxAbsPartialCharge>  (43) 
0.496758

>  <MinAbsPartialCharge>  (43) 
0.228899

>  <FpDensityMorgan1>  (43) 
1.25

>  <FpDensityMorgan2>  (43) 
2.125

>  <FpDensityMorgan3>  (43) 
2.916667

>  <BCUT2D_MWHI>  (43) 
32.133484

>  <BCUT2D_MWLOW>  (43) 
10.121124

>  <BCUT2D_CHGHI>  (43) 
2.084712

>  <BCUT2D_CHGLO>  (43) 
-2.046676

>  <BCUT2D_LOGPHI>  (43) 
2.287826

>  <BCUT2D_LOGPLOW>  (43) 
-2.129499

>  <BCUT2D_MRHI>  (43) 
7.143284

>  <BCUT2D_MRLOW>  (43) 
-0.115098

>  <AvgIpc>  (43) 
3.030827

>  <BalabanJ>  (43) 
1.666099

>  <BertzCT>  (43) 
863.484916

>  <Chi0>  (43) 
16.940947

>  <Chi0n>  (43) 
12.953182

>  <Chi0v>  (43) 
13.769679

>  <Chi1>  (43) 
11.635362

>  <Chi1n>  (43) 
7.270969

>  <Chi1v>  (43) 
8.150622

>  <Chi2n>  (43) 
5.143355

>  <Chi2v>  (43) 
6.054586

>  <Chi3n>  (43) 
3.420805

>  <Chi3v>  (43) 
4.266438

>  <Chi4n>  (43) 
2.284618

>  <Chi4v>  (43) 
3.110445

>  <HallKierAlpha>  (43) 
-2.73

>  <Ipc>  (43) 
405570.056319

>  <Kappa1>  (43) 
16.139208

>  <Kappa2>  (43) 
7.228018

>  <Kappa3>  (43) 
3.966391

>  <LabuteASA>  (43) 
142.490894

>  <PEOE_VSA1>  (43) 
10.053652

>  <PEOE_VSA10>  (43) 
5.749512

>  <PEOE_VSA11>  (43) 
0.0

>  <PEOE_VSA12>  (43) 
11.854877

>  <PEOE_VSA13>  (43) 
0.0

>  <PEOE_VSA14>  (43) 
0.0

>  <PEOE_VSA2>  (43) 
4.794537

>  <PEOE_VSA3>  (43) 
4.983979

>  <PEOE_VSA4>  (43) 
4.390415

>  <PEOE_VSA5>  (43) 
11.336786

>  <PEOE_VSA6>  (43) 
12.132734

>  <PEOE_VSA7>  (43) 
40.955823

>  <PEOE_VSA8>  (43) 
17.643273

>  <PEOE_VSA9>  (43) 
18.531701

>  <SMR_VSA1>  (43) 
13.921815

>  <SMR_VSA10>  (43) 
22.245048

>  <SMR_VSA2>  (43) 
0.0

>  <SMR_VSA3>  (43) 
4.983979

>  <SMR_VSA4>  (43) 
0.0

>  <SMR_VSA5>  (43) 
6.420822

>  <SMR_VSA6>  (43) 
12.426586

>  <SMR_VSA7>  (43) 
65.552625

>  <SMR_VSA8>  (43) 
0.0

>  <SMR_VSA9>  (43) 
16.876415

>  <SlogP_VSA1>  (43) 
10.053652

>  <SlogP_VSA10>  (43) 
9.391497

>  <SlogP_VSA11>  (43) 
5.749512

>  <SlogP_VSA12>  (43) 
11.336786

>  <SlogP_VSA2>  (43) 
18.000956

>  <SlogP_VSA3>  (43) 
11.215359

>  <SlogP_VSA4>  (43) 
5.947697

>  <SlogP_VSA5>  (43) 
5.563451

>  <SlogP_VSA6>  (43) 
54.041476

>  <SlogP_VSA7>  (43) 
0.0

>  <SlogP_VSA8>  (43) 
11.126903

>  <SlogP_VSA9>  (43) 
0.0

>  <EState_VSA1>  (43) 
5.947697

>  <EState_VSA10>  (43) 
9.184952

>  <EState_VSA11>  (43) 
0.0

>  <EState_VSA2>  (43) 
12.328001

>  <EState_VSA3>  (43) 
0.0

>  <EState_VSA4>  (43) 
27.440948

>  <EState_VSA5>  (43) 
23.599997

>  <EState_VSA6>  (43) 
13.176165

>  <EState_VSA7>  (43) 
35.711898

>  <EState_VSA8>  (43) 
10.300767

>  <EState_VSA9>  (43) 
4.736863

>  <VSA_EState1>  (43) 
18.337456

>  <VSA_EState10>  (43) 
1.397293

>  <VSA_EState2>  (43) 
15.704338

>  <VSA_EState3>  (43) 
5.450706

>  <VSA_EState4>  (43) 
2.448944

>  <VSA_EState5>  (43) 
0.081756

>  <VSA_EState6>  (43) 
12.309672

>  <VSA_EState7>  (43) 
1.67827

>  <VSA_EState8>  (43) 
0.0

>  <VSA_EState9>  (43) 
1.591566

>  <FractionCSP3>  (43) 
0.111111

>  <HeavyAtomCount>  (43) 
24

>  <NHOHCount>  (43) 
1

>  <NOCount>  (43) 
4

>  <NumAliphaticCarbocycles>  (43) 
0

>  <NumAliphaticHeterocycles>  (43) 
0

>  <NumAliphaticRings>  (43) 
0

>  <NumAromaticCarbocycles>  (43) 
1

>  <NumAromaticHeterocycles>  (43) 
2

>  <NumAromaticRings>  (43) 
3

>  <NumHAcceptors>  (43) 
4

>  <NumHDonors>  (43) 
1

>  <NumHeteroatoms>  (43) 
6

>  <NumRotatableBonds>  (43) 
5

>  <NumSaturatedCarbocycles>  (43) 
0

>  <NumSaturatedHeterocycles>  (43) 
0

>  <NumSaturatedRings>  (43) 
0

>  <RingCount>  (43) 
3

>  <MolLogP>  (43) 
4.139

>  <MolMR>  (43) 
92.8357

>  <fr_Al_COO>  (43) 
0

>  <fr_Al_OH>  (43) 
0

>  <fr_Al_OH_noTert>  (43) 
0

>  <fr_ArN>  (43) 
0

>  <fr_Ar_COO>  (43) 
0

>  <fr_Ar_N>  (43) 
1

>  <fr_Ar_NH>  (43) 
0

>  <fr_Ar_OH>  (43) 
0

>  <fr_COO>  (43) 
0

>  <fr_COO2>  (43) 
0

>  <fr_C_O>  (43) 
1

>  <fr_C_O_noCOO>  (43) 
1

>  <fr_C_S>  (43) 
0

>  <fr_HOCCN>  (43) 
0

>  <fr_Imine>  (43) 
0

>  <fr_NH0>  (43) 
1

>  <fr_NH1>  (43) 
1

>  <fr_NH2>  (43) 
0

>  <fr_N_O>  (43) 
0

>  <fr_Ndealkylation1>  (43) 
0

>  <fr_Ndealkylation2>  (43) 
0

>  <fr_Nhpyrrole>  (43) 
0

>  <fr_SH>  (43) 
0

>  <fr_aldehyde>  (43) 
0

>  <fr_alkyl_carbamate>  (43) 
0

>  <fr_alkyl_halide>  (43) 
0

>  <fr_allylic_oxid>  (43) 
0

>  <fr_amide>  (43) 
1

>  <fr_amidine>  (43) 
0

>  <fr_aniline>  (43) 
1

>  <fr_aryl_methyl>  (43) 
0

>  <fr_azide>  (43) 
0

>  <fr_azo>  (43) 
0

>  <fr_barbitur>  (43) 
0

>  <fr_benzene>  (43) 
1

>  <fr_benzodiazepine>  (43) 
0

>  <fr_bicyclic>  (43) 
0

>  <fr_diazo>  (43) 
0

>  <fr_dihydropyridine>  (43) 
0

>  <fr_epoxide>  (43) 
0

>  <fr_ester>  (43) 
0

>  <fr_ether>  (43) 
1

>  <fr_furan>  (43) 
0

>  <fr_guanido>  (43) 
0

>  <fr_halogen>  (43) 
1

>  <fr_hdrzine>  (43) 
0

>  <fr_hdrzone>  (43) 
0

>  <fr_imidazole>  (43) 
0

>  <fr_imide>  (43) 
0

>  <fr_isocyan>  (43) 
0

>  <fr_isothiocyan>  (43) 
0

>  <fr_ketone>  (43) 
0

>  <fr_ketone_Topliss>  (43) 
0

>  <fr_lactam>  (43) 
0

>  <fr_lactone>  (43) 
0

>  <fr_methoxy>  (43) 
1

>  <fr_morpholine>  (43) 
0

>  <fr_nitrile>  (43) 
0

>  <fr_nitro>  (43) 
0

>  <fr_nitro_arom>  (43) 
0

>  <fr_nitro_arom_nonortho>  (43) 
0

>  <fr_nitroso>  (43) 
0

>  <fr_oxazole>  (43) 
0

>  <fr_oxime>  (43) 
0

>  <fr_para_hydroxylation>  (43) 
0

>  <fr_phenol>  (43) 
0

>  <fr_phenol_noOrthoHbond>  (43) 
0

>  <fr_phos_acid>  (43) 
0

>  <fr_phos_ester>  (43) 
0

>  <fr_piperdine>  (43) 
0

>  <fr_piperzine>  (43) 
0

>  <fr_priamide>  (43) 
0

>  <fr_prisulfonamd>  (43) 
0

>  <fr_pyridine>  (43) 
1

>  <fr_quatN>  (43) 
0

>  <fr_sulfide>  (43) 
0

>  <fr_sulfonamd>  (43) 
0

>  <fr_sulfone>  (43) 
0

>  <fr_term_acetylene>  (43) 
0

>  <fr_tetrazole>  (43) 
0

>  <fr_thiazole>  (43) 
0

>  <fr_thiocyan>  (43) 
0

>  <fr_thiophene>  (43) 
1

>  <fr_unbrch_alkane>  (43) 
0

>  <fr_urea>  (43) 
0

>  <NP_Likeness>  (43) 
-1.357551

$$$$
CHEMBL3581147
     RDKit          3D

  0  0  0  0  0  0  0  0  0  0999 V3000
M  V30 BEGIN CTAB
M  V30 COUNTS 39 41 0 0 0
M  V30 BEGIN ATOM
M  V30 1 C 1.064436 -5.611243 -1.018240 0
M  V30 2 O 2.284645 -5.233685 -0.411077 0
M  V30 3 C 2.768094 -3.932688 -0.481396 0
M  V30 4 C 3.971565 -3.583824 0.123960 0
M  V30 5 C 4.455597 -2.310628 0.061537 0
M  V30 6 C 3.729577 -1.335245 -0.623874 0
M  V30 7 C 2.518723 -1.663896 -1.238981 0
M  V30 8 C 1.768589 -0.580263 -1.967753 0
M  V30 9 C 0.878427 0.019104 -0.965924 0
M  V30 10 O 0.947512 -0.479095 0.185935 0
M  V30 11 N -0.002190 1.071684 -1.226361 0
M  V30 12 C -0.903245 1.690623 -0.247043 0
M  V30 13 C -1.106938 1.442872 1.022795 0
M  V30 14 C -2.034474 2.205319 1.689241 0
M  V30 15 C -2.358754 2.026217 3.128174 0
M  V30 16 C -1.340514 1.601712 3.960687 0
M  V30 17 C -1.600154 1.418739 5.308321 0
M  V30 18 N -2.841198 1.649767 5.827423 0
M  V30 19 C -3.784646 2.058977 4.970928 0
M  V30 20 Cl -5.372745 2.345729 5.681999 0
M  V30 21 C -3.621013 2.266188 3.629504 0
M  V30 22 C -2.708793 3.193744 0.999541 0
M  V30 23 S -1.929561 2.981232 -0.718649 0
M  V30 24 C 2.057357 -2.942998 -1.161761 0
M  V30 25 H 0.936810 -6.702290 -0.910268 0
M  V30 26 H 0.212560 -5.100501 -0.530879 0
M  V30 27 H 1.156743 -5.397298 -2.099175 0
M  V30 28 H 4.552277 -4.324156 0.661396 0
M  V30 29 H 5.392462 -1.967419 0.513490 0
M  V30 30 H 4.088520 -0.307750 -0.692776 0
M  V30 31 H 1.239393 -1.088587 -2.793233 0
M  V30 32 H 2.532756 0.113574 -2.353498 0
M  V30 33 H 0.029438 1.398827 -2.211430 0
M  V30 34 H -0.551799 0.656999 1.515286 0
M  V30 35 H -0.357003 1.416475 3.560826 0
M  V30 36 H -0.754290 1.080424 5.923567 0
M  V30 37 H -4.402374 2.597187 2.962303 0
M  V30 38 H -3.443662 3.876938 1.313966 0
M  V30 39 H 1.114837 -3.191571 -1.642447 0
M  V30 END ATOM
M  V30 BEGIN BOND
M  V30 1 1 1 2
M  V30 2 1 2 3
M  V30 3 2 3 4
M  V30 4 1 4 5
M  V30 5 2 5 6
M  V30 6 1 6 7
M  V30 7 1 7 8
M  V30 8 1 8 9
M  V30 9 2 9 10
M  V30 10 1 9 11
M  V30 11 1 11 12
M  V30 12 2 12 13
M  V30 13 1 13 14
M  V30 14 1 14 15
M  V30 15 2 15 16
M  V30 16 1 16 17
M  V30 17 2 17 18
M  V30 18 1 18 19
M  V30 19 1 19 20
M  V30 20 2 19 21
M  V30 21 2 14 22
M  V30 22 1 22 23
M  V30 23 2 7 24
M  V30 24 1 24 3
M  V30 25 1 23 12
M  V30 26 1 21 15
M  V30 27 1 1 25
M  V30 28 1 1 26
M  V30 29 1 1 27
M  V30 30 1 4 28
M  V30 31 1 5 29
M  V30 32 1 6 30
M  V30 33 1 8 31
M  V30 34 1 8 32
M  V30 35 1 11 33
M  V30 36 1 13 34
M  V30 37 1 16 35
M  V30 38 1 17 36
M  V30 39 1 21 37
M  V30 40 1 22 38
M  V30 41 1 24 39
M  V30 END BOND
M  V30 END CTAB
M  END
>  <Dataset>  (44) 
ChEMBL_PKA

>  <Ligand_Instance>  (44) 
nan

>  <PDB_ID>  (44) 
nan

>  <Standardized_SMILES>  (44) 
COc1cccc(CC(=O)Nc2cc(-c3ccnc(Cl)c3)cs2)c1

>  <Name>  (44) 
nan

>  <Pocket>  (44) 
nan

>  <ATP_Site>  (44) 
nan

>  <Peripheral>  (44) 
nan

>  <Num_H_Atoms_ProtBoundConf>  (44) 
nan

>  <Num_Resolved_Atoms>  (44) 
nan

>  <Num_Not_Resolved_Atoms>  (44) 
nan

>  <2D_Mol_H>  (44) 
<rdkit.Chem.rdchem.Mol object at 0x72a239103bc0>

>  <MW>  (44) 
358.85

>  <HBA>  (44) 
4

>  <HBD>  (44) 
1

>  <LogP>  (44) 
4.6533

>  <NRB>  (44) 
6

>  <TPSA>  (44) 
51.22

>  <Num_Heavy_Atoms>  (44) 
24

>  <Ro5>  (44) 
[True, True, True, True, True, True]

>  <Ro5_Fulfilled>  (44) 
True

>  <Ro3>  (44) 
[False, False, True, False]

>  <Ro3_Fulfilled>  (44) 
False

>  <Fsp3>  (44) 
0.111111

>  <Fsp3_0.42>  (44) 
False

>  <Fsp3_0.45>  (44) 
False

>  <Stereogenic_Carbons>  (44) 
0

>  <C_Atoms>  (44) 
18

>  <FCStereo>  (44) 
0.0

>  <SPS>  (44) 
250

>  <nSPS>  (44) 
10.416667

>  <PBF>  (44) 
1.097529

>  <PBF_0.6>  (44) 
True

>  <nPBF>  (44) 
0.04573

>  <nPBF_0.016>  (44) 
True

>  <PMI1>  (44) 
1599.982931

>  <PMI2>  (44) 
6608.933702

>  <PMI3>  (44) 
7486.161367

>  <NPR1>  (44) 
0.213725

>  <NPR2>  (44) 
0.88282

>  <Sum_NPR>  (44) 
1.096546

>  <Sum_NPR_1.07>  (44) 
True

>  <Sum_NPR_1.2>  (44) 
False

>  <MaxAbsEStateIndex>  (44) 
12.205001

>  <MaxEStateIndex>  (44) 
12.205001

>  <MinAbsEStateIndex>  (44) 
0.065358

>  <MinEStateIndex>  (44) 
-0.065358

>  <qed>  (44) 
0.675055

>  <MolWt>  (44) 
358.85

>  <HeavyAtomMolWt>  (44) 
343.73

>  <ExactMolWt>  (44) 
358.054276

>  <NumValenceElectrons>  (44) 
122

>  <NumRadicalElectrons>  (44) 
0

>  <MaxPartialCharge>  (44) 
0.228899

>  <MinPartialCharge>  (44) 
-0.496758

>  <MaxAbsPartialCharge>  (44) 
0.496758

>  <MinAbsPartialCharge>  (44) 
0.228899

>  <FpDensityMorgan1>  (44) 
1.25

>  <FpDensityMorgan2>  (44) 
2.125

>  <FpDensityMorgan3>  (44) 
2.916667

>  <BCUT2D_MWHI>  (44) 
35.495697

>  <BCUT2D_MWLOW>  (44) 
10.121855

>  <BCUT2D_CHGHI>  (44) 
2.083038

>  <BCUT2D_CHGLO>  (44) 
-2.046852

>  <BCUT2D_LOGPHI>  (44) 
2.295377

>  <BCUT2D_LOGPLOW>  (44) 
-2.12948

>  <BCUT2D_MRHI>  (44) 
7.143301

>  <BCUT2D_MRLOW>  (44) 
-0.115098

>  <AvgIpc>  (44) 
3.030827

>  <BalabanJ>  (44) 
1.666099

>  <BertzCT>  (44) 
863.484916

>  <Chi0>  (44) 
16.940947

>  <Chi0n>  (44) 
12.953182

>  <Chi0v>  (44) 
14.525608

>  <Chi1>  (44) 
11.635362

>  <Chi1n>  (44) 
7.270969

>  <Chi1v>  (44) 
8.528586

>  <Chi2n>  (44) 
5.143355

>  <Chi2v>  (44) 
6.441835

>  <Chi3n>  (44) 
3.420805

>  <Chi3v>  (44) 
4.473137

>  <Chi4n>  (44) 
2.284618

>  <Chi4v>  (44) 
3.284338

>  <HallKierAlpha>  (44) 
-2.37

>  <Ipc>  (44) 
405570.056319

>  <Kappa1>  (44) 
16.486465

>  <Kappa2>  (44) 
7.466304

>  <Kappa3>  (44) 
4.12717

>  <LabuteASA>  (44) 
148.628625

>  <PEOE_VSA1>  (44) 
10.053652

>  <PEOE_VSA10>  (44) 
10.902622

>  <PEOE_VSA11>  (44) 
0.0

>  <PEOE_VSA12>  (44) 
5.90718

>  <PEOE_VSA13>  (44) 
0.0

>  <PEOE_VSA14>  (44) 
0.0

>  <PEOE_VSA2>  (44) 
4.794537

>  <PEOE_VSA3>  (44) 
4.983979

>  <PEOE_VSA4>  (44) 
0.0

>  <PEOE_VSA5>  (44) 
11.336786

>  <PEOE_VSA6>  (44) 
23.733674

>  <PEOE_VSA7>  (44) 
47.02219

>  <PEOE_VSA8>  (44) 
11.576906

>  <PEOE_VSA9>  (44) 
18.531701

>  <SMR_VSA1>  (44) 
9.5314

>  <SMR_VSA10>  (44) 
33.845987

>  <SMR_VSA2>  (44) 
0.0

>  <SMR_VSA3>  (44) 
4.983979

>  <SMR_VSA4>  (44) 
0.0

>  <SMR_VSA5>  (44) 
6.420822

>  <SMR_VSA6>  (44) 
12.426586

>  <SMR_VSA7>  (44) 
64.758037

>  <SMR_VSA8>  (44) 
0.0

>  <SMR_VSA9>  (44) 
16.876415

>  <SlogP_VSA1>  (44) 
10.053652

>  <SlogP_VSA10>  (44) 
5.001082

>  <SlogP_VSA11>  (44) 
5.749512

>  <SlogP_VSA12>  (44) 
22.937726

>  <SlogP_VSA2>  (44) 
18.000956

>  <SlogP_VSA3>  (44) 
11.215359

>  <SlogP_VSA4>  (44) 
0.0

>  <SlogP_VSA5>  (44) 
5.563451

>  <SlogP_VSA6>  (44) 
54.041476

>  <SlogP_VSA7>  (44) 
5.15311

>  <SlogP_VSA8>  (44) 
11.126903

>  <SlogP_VSA9>  (44) 
0.0

>  <EState_VSA1>  (44) 
0.0

>  <EState_VSA10>  (44) 
4.794537

>  <EState_VSA11>  (44) 
0.0

>  <EState_VSA2>  (44) 
5.90718

>  <EState_VSA3>  (44) 
11.573931

>  <EState_VSA4>  (44) 
27.440948

>  <EState_VSA5>  (44) 
11.336786

>  <EState_VSA6>  (44) 
19.373008

>  <EState_VSA7>  (44) 
41.778265

>  <EState_VSA8>  (44) 
10.300767

>  <EState_VSA9>  (44) 
16.337803

>  <VSA_EState1>  (44) 
5.171121

>  <VSA_EState10>  (44) 
7.38983

>  <VSA_EState2>  (44) 
16.175326

>  <VSA_EState3>  (44) 
6.145444

>  <VSA_EState4>  (44) 
2.879695

>  <VSA_EState5>  (44) 
0.678416

>  <VSA_EState6>  (44) 
13.102216

>  <VSA_EState7>  (44) 
1.960214

>  <VSA_EState8>  (44) 
0.0

>  <VSA_EState9>  (44) 
1.60885

>  <FractionCSP3>  (44) 
0.111111

>  <HeavyAtomCount>  (44) 
24

>  <NHOHCount>  (44) 
1

>  <NOCount>  (44) 
4

>  <NumAliphaticCarbocycles>  (44) 
0

>  <NumAliphaticHeterocycles>  (44) 
0

>  <NumAliphaticRings>  (44) 
0

>  <NumAromaticCarbocycles>  (44) 
1

>  <NumAromaticHeterocycles>  (44) 
2

>  <NumAromaticRings>  (44) 
3

>  <NumHAcceptors>  (44) 
4

>  <NumHDonors>  (44) 
1

>  <NumHeteroatoms>  (44) 
6

>  <NumRotatableBonds>  (44) 
5

>  <NumSaturatedCarbocycles>  (44) 
0

>  <NumSaturatedHeterocycles>  (44) 
0

>  <NumSaturatedRings>  (44) 
0

>  <RingCount>  (44) 
3

>  <MolLogP>  (44) 
4.6533

>  <MolMR>  (44) 
97.8877

>  <fr_Al_COO>  (44) 
0

>  <fr_Al_OH>  (44) 
0

>  <fr_Al_OH_noTert>  (44) 
0

>  <fr_ArN>  (44) 
0

>  <fr_Ar_COO>  (44) 
0

>  <fr_Ar_N>  (44) 
1

>  <fr_Ar_NH>  (44) 
0

>  <fr_Ar_OH>  (44) 
0

>  <fr_COO>  (44) 
0

>  <fr_COO2>  (44) 
0

>  <fr_C_O>  (44) 
1

>  <fr_C_O_noCOO>  (44) 
1

>  <fr_C_S>  (44) 
0

>  <fr_HOCCN>  (44) 
0

>  <fr_Imine>  (44) 
0

>  <fr_NH0>  (44) 
1

>  <fr_NH1>  (44) 
1

>  <fr_NH2>  (44) 
0

>  <fr_N_O>  (44) 
0

>  <fr_Ndealkylation1>  (44) 
0

>  <fr_Ndealkylation2>  (44) 
0

>  <fr_Nhpyrrole>  (44) 
0

>  <fr_SH>  (44) 
0

>  <fr_aldehyde>  (44) 
0

>  <fr_alkyl_carbamate>  (44) 
0

>  <fr_alkyl_halide>  (44) 
0

>  <fr_allylic_oxid>  (44) 
0

>  <fr_amide>  (44) 
1

>  <fr_amidine>  (44) 
0

>  <fr_aniline>  (44) 
1

>  <fr_aryl_methyl>  (44) 
0

>  <fr_azide>  (44) 
0

>  <fr_azo>  (44) 
0

>  <fr_barbitur>  (44) 
0

>  <fr_benzene>  (44) 
1

>  <fr_benzodiazepine>  (44) 
0

>  <fr_bicyclic>  (44) 
0

>  <fr_diazo>  (44) 
0

>  <fr_dihydropyridine>  (44) 
0

>  <fr_epoxide>  (44) 
0

>  <fr_ester>  (44) 
0

>  <fr_ether>  (44) 
1

>  <fr_furan>  (44) 
0

>  <fr_guanido>  (44) 
0

>  <fr_halogen>  (44) 
1

>  <fr_hdrzine>  (44) 
0

>  <fr_hdrzone>  (44) 
0

>  <fr_imidazole>  (44) 
0

>  <fr_imide>  (44) 
0

>  <fr_isocyan>  (44) 
0

>  <fr_isothiocyan>  (44) 
0

>  <fr_ketone>  (44) 
0

>  <fr_ketone_Topliss>  (44) 
0

>  <fr_lactam>  (44) 
0

>  <fr_lactone>  (44) 
0

>  <fr_methoxy>  (44) 
1

>  <fr_morpholine>  (44) 
0

>  <fr_nitrile>  (44) 
0

>  <fr_nitro>  (44) 
0

>  <fr_nitro_arom>  (44) 
0

>  <fr_nitro_arom_nonortho>  (44) 
0

>  <fr_nitroso>  (44) 
0

>  <fr_oxazole>  (44) 
0

>  <fr_oxime>  (44) 
0

>  <fr_para_hydroxylation>  (44) 
0

>  <fr_phenol>  (44) 
0

>  <fr_phenol_noOrthoHbond>  (44) 
0

>  <fr_phos_acid>  (44) 
0

>  <fr_phos_ester>  (44) 
0

>  <fr_piperdine>  (44) 
0

>  <fr_piperzine>  (44) 
0

>  <fr_priamide>  (44) 
0

>  <fr_prisulfonamd>  (44) 
0

>  <fr_pyridine>  (44) 
1

>  <fr_quatN>  (44) 
0

>  <fr_sulfide>  (44) 
0

>  <fr_sulfonamd>  (44) 
0

>  <fr_sulfone>  (44) 
0

>  <fr_term_acetylene>  (44) 
0

>  <fr_tetrazole>  (44) 
0

>  <fr_thiazole>  (44) 
0

>  <fr_thiocyan>  (44) 
0

>  <fr_thiophene>  (44) 
1

>  <fr_unbrch_alkane>  (44) 
0

>  <fr_urea>  (44) 
0

>  <NP_Likeness>  (44) 
-1.334146

$$$$
CHEMBL3581149
     RDKit          3D

  0  0  0  0  0  0  0  0  0  0999 V3000
M  V30 BEGIN CTAB
M  V30 COUNTS 41 43 0 0 0
M  V30 BEGIN ATOM
M  V30 1 C 0.326122 -6.258443 -0.108241 0
M  V30 2 O 1.674243 -5.892456 0.109734 0
M  V30 3 C 2.229420 -4.717761 -0.369913 0
M  V30 4 C 3.551163 -4.542685 -0.053312 0
M  V30 5 C 4.230609 -3.399523 -0.476330 0
M  V30 6 C 3.524533 -2.454529 -1.223278 0
M  V30 7 C 2.178642 -2.658730 -1.531258 0
M  V30 8 C 1.471694 -1.602820 -2.338788 0
M  V30 9 C 0.896155 -0.656913 -1.349878 0
M  V30 10 O 1.122351 -0.952921 -0.151424 0
M  V30 11 N 0.156853 0.482620 -1.671197 0
M  V30 12 C -0.410054 1.411179 -0.736140 0
M  V30 13 C -0.405325 1.455191 0.586643 0
M  V30 14 C -1.044077 2.487570 1.224271 0
M  V30 15 C -1.099139 2.630097 2.700944 0
M  V30 16 C -0.015994 2.163125 3.416734 0
M  V30 17 C 0.020495 2.251373 4.794531 0
M  V30 18 N -1.048892 2.815069 5.423200 0
M  V30 19 C -2.091272 3.260572 4.682784 0
M  V30 20 N -3.170495 3.838712 5.430598 0
M  V30 21 C -2.192854 3.204377 3.314137 0
M  V30 22 C -1.663422 3.434100 0.430857 0
M  V30 23 S -1.294668 2.785609 -1.279043 0
M  V30 24 C 1.521364 -3.792467 -1.106362 0
M  V30 25 H -0.029866 -6.972005 0.677463 0
M  V30 26 H 0.203492 -6.661800 -1.125733 0
M  V30 27 H -0.298919 -5.329568 -0.046764 0
M  V30 28 H 4.148780 -5.256201 0.531133 0
M  V30 29 H 5.272961 -3.164185 -0.280602 0
M  V30 30 H 4.000289 -1.538931 -1.583876 0
M  V30 31 H 0.660879 -2.103433 -2.902878 0
M  V30 32 H 2.236059 -1.141200 -2.990338 0
M  V30 33 H 0.049855 0.601571 -2.700576 0
M  V30 34 H 0.105294 0.670320 1.128133 0
M  V30 35 H 0.846253 1.711025 2.937982 0
M  V30 36 H 0.820791 1.915159 5.442432 0
M  V30 37 H -4.102640 3.567605 5.822969 0
M  V30 38 H -4.064081 3.391780 5.745398 0
M  V30 39 H -3.024837 3.563031 2.762768 0
M  V30 40 H -2.218520 4.322825 0.756744 0
M  V30 41 H 0.479593 -3.962389 -1.338443 0
M  V30 END ATOM
M  V30 BEGIN BOND
M  V30 1 1 1 2
M  V30 2 1 2 3
M  V30 3 2 3 4
M  V30 4 1 4 5
M  V30 5 2 5 6
M  V30 6 1 6 7
M  V30 7 1 7 8
M  V30 8 1 8 9
M  V30 9 2 9 10
M  V30 10 1 9 11
M  V30 11 1 11 12
M  V30 12 2 12 13
M  V30 13 1 13 14
M  V30 14 1 14 15
M  V30 15 2 15 16
M  V30 16 1 16 17
M  V30 17 2 17 18
M  V30 18 1 18 19
M  V30 19 1 19 20
M  V30 20 2 19 21
M  V30 21 2 14 22
M  V30 22 1 22 23
M  V30 23 2 7 24
M  V30 24 1 24 3
M  V30 25 1 23 12
M  V30 26 1 21 15
M  V30 27 1 1 25
M  V30 28 1 1 26
M  V30 29 1 1 27
M  V30 30 1 4 28
M  V30 31 1 5 29
M  V30 32 1 6 30
M  V30 33 1 8 31
M  V30 34 1 8 32
M  V30 35 1 11 33
M  V30 36 1 13 34
M  V30 37 1 16 35
M  V30 38 1 17 36
M  V30 39 1 20 37
M  V30 40 1 20 38
M  V30 41 1 21 39
M  V30 42 1 22 40
M  V30 43 1 24 41
M  V30 END BOND
M  V30 END CTAB
M  END
>  <Dataset>  (45) 
ChEMBL_PKA

>  <Ligand_Instance>  (45) 
nan

>  <PDB_ID>  (45) 
nan

>  <Standardized_SMILES>  (45) 
COc1cccc(CC(=O)Nc2cc(-c3ccnc(N)c3)cs2)c1

>  <Name>  (45) 
nan

>  <Pocket>  (45) 
nan

>  <ATP_Site>  (45) 
nan

>  <Peripheral>  (45) 
nan

>  <Num_H_Atoms_ProtBoundConf>  (45) 
nan

>  <Num_Resolved_Atoms>  (45) 
nan

>  <Num_Not_Resolved_Atoms>  (45) 
nan

>  <2D_Mol_H>  (45) 
<rdkit.Chem.rdchem.Mol object at 0x72a239103ca0>

>  <MW>  (45) 
339.42

>  <HBA>  (45) 
5

>  <HBD>  (45) 
2

>  <LogP>  (45) 
3.5821

>  <NRB>  (45) 
7

>  <TPSA>  (45) 
77.24

>  <Num_Heavy_Atoms>  (45) 
24

>  <Ro5>  (45) 
[True, True, True, True, True, True]

>  <Ro5_Fulfilled>  (45) 
True

>  <Ro3>  (45) 
[False, False, True, False]

>  <Ro3_Fulfilled>  (45) 
False

>  <Fsp3>  (45) 
0.111111

>  <Fsp3_0.42>  (45) 
False

>  <Fsp3_0.45>  (45) 
False

>  <Stereogenic_Carbons>  (45) 
0

>  <C_Atoms>  (45) 
18

>  <FCStereo>  (45) 
0.0

>  <SPS>  (45) 
249

>  <nSPS>  (45) 
10.375

>  <PBF>  (45) 
1.126494

>  <PBF_0.6>  (45) 
True

>  <nPBF>  (45) 
0.046937

>  <nPBF_0.016>  (45) 
True

>  <PMI1>  (45) 
1520.004545

>  <PMI2>  (45) 
5625.620349

>  <PMI3>  (45) 
6472.724165

>  <NPR1>  (45) 
0.234832

>  <NPR2>  (45) 
0.869127

>  <Sum_NPR>  (45) 
1.103959

>  <Sum_NPR_1.07>  (45) 
True

>  <Sum_NPR_1.2>  (45) 
False

>  <MaxAbsEStateIndex>  (45) 
12.206112

>  <MaxEStateIndex>  (45) 
12.206112

>  <MinAbsEStateIndex>  (45) 
0.063986

>  <MinEStateIndex>  (45) 
-0.063986

>  <qed>  (45) 
0.744656

>  <MolWt>  (45) 
339.42

>  <HeavyAtomMolWt>  (45) 
322.284

>  <ExactMolWt>  (45) 
339.104148

>  <NumValenceElectrons>  (45) 
122

>  <NumRadicalElectrons>  (45) 
0

>  <MaxPartialCharge>  (45) 
0.228899

>  <MinPartialCharge>  (45) 
-0.496758

>  <MaxAbsPartialCharge>  (45) 
0.496758

>  <MinAbsPartialCharge>  (45) 
0.228899

>  <FpDensityMorgan1>  (45) 
1.25

>  <FpDensityMorgan2>  (45) 
2.125

>  <FpDensityMorgan3>  (45) 
2.916667

>  <BCUT2D_MWHI>  (45) 
32.133484

>  <BCUT2D_MWLOW>  (45) 
10.119

>  <BCUT2D_CHGHI>  (45) 
2.082163

>  <BCUT2D_CHGLO>  (45) 
-2.04708

>  <BCUT2D_LOGPHI>  (45) 
2.292072

>  <BCUT2D_LOGPLOW>  (45) 
-2.129508

>  <BCUT2D_MRHI>  (45) 
7.143292

>  <BCUT2D_MRLOW>  (45) 
-0.115098

>  <AvgIpc>  (45) 
3.030827

>  <BalabanJ>  (45) 
1.666099

>  <BertzCT>  (45) 
860.730028

>  <Chi0>  (45) 
16.940947

>  <Chi0n>  (45) 
13.152568

>  <Chi0v>  (45) 
13.969065

>  <Chi1>  (45) 
11.635362

>  <Chi1n>  (45) 
7.370662

>  <Chi1v>  (45) 
8.250315

>  <Chi2n>  (45) 
5.245497

>  <Chi2v>  (45) 
6.156728

>  <Chi3n>  (45) 
3.475325

>  <Chi3v>  (45) 
4.320957

>  <Chi4n>  (45) 
2.330484

>  <Chi4v>  (45) 
3.156312

>  <HallKierAlpha>  (45) 
-2.86

>  <Ipc>  (45) 
405570.056319

>  <Kappa1>  (45) 
16.013903

>  <Kappa2>  (45) 
7.142522

>  <Kappa3>  (45) 
3.908965

>  <LabuteASA>  (45) 
143.665249

>  <PEOE_VSA1>  (45) 
15.787319

>  <PEOE_VSA10>  (45) 
11.567375

>  <PEOE_VSA11>  (45) 
0.0

>  <PEOE_VSA12>  (45) 
5.90718

>  <PEOE_VSA13>  (45) 
0.0

>  <PEOE_VSA14>  (45) 
0.0

>  <PEOE_VSA2>  (45) 
4.794537

>  <PEOE_VSA3>  (45) 
4.983979

>  <PEOE_VSA4>  (45) 
0.0

>  <PEOE_VSA5>  (45) 
11.336786

>  <PEOE_VSA6>  (45) 
12.132734

>  <PEOE_VSA7>  (45) 
47.02219

>  <PEOE_VSA8>  (45) 
11.576906

>  <PEOE_VSA9>  (45) 
18.531701

>  <SMR_VSA1>  (45) 
9.5314

>  <SMR_VSA10>  (45) 
28.06291

>  <SMR_VSA2>  (45) 
0.0

>  <SMR_VSA3>  (45) 
4.983979

>  <SMR_VSA4>  (45) 
0.0

>  <SMR_VSA5>  (45) 
6.420822

>  <SMR_VSA6>  (45) 
18.160254

>  <SMR_VSA7>  (45) 
59.604927

>  <SMR_VSA8>  (45) 
0.0

>  <SMR_VSA9>  (45) 
16.876415

>  <SlogP_VSA1>  (45) 
15.787319

>  <SlogP_VSA10>  (45) 
10.818945

>  <SlogP_VSA11>  (45) 
5.749512

>  <SlogP_VSA12>  (45) 
11.336786

>  <SlogP_VSA2>  (45) 
18.000956

>  <SlogP_VSA3>  (45) 
11.215359

>  <SlogP_VSA4>  (45) 
0.0

>  <SlogP_VSA5>  (45) 
5.563451

>  <SlogP_VSA6>  (45) 
54.041476

>  <SlogP_VSA7>  (45) 
0.0

>  <SlogP_VSA8>  (45) 
11.126903

>  <SlogP_VSA9>  (45) 
0.0

>  <EState_VSA1>  (45) 
0.0

>  <EState_VSA10>  (45) 
4.794537

>  <EState_VSA11>  (45) 
0.0

>  <EState_VSA2>  (45) 
5.90718

>  <EState_VSA3>  (45) 
12.238684

>  <EState_VSA4>  (45) 
27.440948

>  <EState_VSA5>  (45) 
11.336786

>  <EState_VSA6>  (45) 
13.306641

>  <EState_VSA7>  (45) 
47.844632

>  <EState_VSA8>  (45) 
10.300767

>  <EState_VSA9>  (45) 
10.47053

>  <VSA_EState1>  (45) 
5.171688

>  <VSA_EState10>  (45) 
1.478925

>  <VSA_EState2>  (45) 
16.188783

>  <VSA_EState3>  (45) 
5.70595

>  <VSA_EState4>  (45) 
8.597374

>  <VSA_EState5>  (45) 
1.154807

>  <VSA_EState6>  (45) 
13.12486

>  <VSA_EState7>  (45) 
1.96827

>  <VSA_EState8>  (45) 
0.0

>  <VSA_EState9>  (45) 
1.609343

>  <FractionCSP3>  (45) 
0.111111

>  <HeavyAtomCount>  (45) 
24

>  <NHOHCount>  (45) 
3

>  <NOCount>  (45) 
5

>  <NumAliphaticCarbocycles>  (45) 
0

>  <NumAliphaticHeterocycles>  (45) 
0

>  <NumAliphaticRings>  (45) 
0

>  <NumAromaticCarbocycles>  (45) 
1

>  <NumAromaticHeterocycles>  (45) 
2

>  <NumAromaticRings>  (45) 
3

>  <NumHAcceptors>  (45) 
5

>  <NumHDonors>  (45) 
2

>  <NumHeteroatoms>  (45) 
6

>  <NumRotatableBonds>  (45) 
5

>  <NumSaturatedCarbocycles>  (45) 
0

>  <NumSaturatedHeterocycles>  (45) 
0

>  <NumSaturatedRings>  (45) 
0

>  <RingCount>  (45) 
3

>  <MolLogP>  (45) 
3.5821

>  <MolMR>  (45) 
97.2901

>  <fr_Al_COO>  (45) 
0

>  <fr_Al_OH>  (45) 
0

>  <fr_Al_OH_noTert>  (45) 
0

>  <fr_ArN>  (45) 
1

>  <fr_Ar_COO>  (45) 
0

>  <fr_Ar_N>  (45) 
1

>  <fr_Ar_NH>  (45) 
0

>  <fr_Ar_OH>  (45) 
0

>  <fr_COO>  (45) 
0

>  <fr_COO2>  (45) 
0

>  <fr_C_O>  (45) 
1

>  <fr_C_O_noCOO>  (45) 
1

>  <fr_C_S>  (45) 
0

>  <fr_HOCCN>  (45) 
0

>  <fr_Imine>  (45) 
0

>  <fr_NH0>  (45) 
1

>  <fr_NH1>  (45) 
1

>  <fr_NH2>  (45) 
1

>  <fr_N_O>  (45) 
0

>  <fr_Ndealkylation1>  (45) 
0

>  <fr_Ndealkylation2>  (45) 
0

>  <fr_Nhpyrrole>  (45) 
0

>  <fr_SH>  (45) 
0

>  <fr_aldehyde>  (45) 
0

>  <fr_alkyl_carbamate>  (45) 
0

>  <fr_alkyl_halide>  (45) 
0

>  <fr_allylic_oxid>  (45) 
0

>  <fr_amide>  (45) 
1

>  <fr_amidine>  (45) 
0

>  <fr_aniline>  (45) 
2

>  <fr_aryl_methyl>  (45) 
0

>  <fr_azide>  (45) 
0

>  <fr_azo>  (45) 
0

>  <fr_barbitur>  (45) 
0

>  <fr_benzene>  (45) 
1

>  <fr_benzodiazepine>  (45) 
0

>  <fr_bicyclic>  (45) 
0

>  <fr_diazo>  (45) 
0

>  <fr_dihydropyridine>  (45) 
0

>  <fr_epoxide>  (45) 
0

>  <fr_ester>  (45) 
0

>  <fr_ether>  (45) 
1

>  <fr_furan>  (45) 
0

>  <fr_guanido>  (45) 
0

>  <fr_halogen>  (45) 
0

>  <fr_hdrzine>  (45) 
0

>  <fr_hdrzone>  (45) 
0

>  <fr_imidazole>  (45) 
0

>  <fr_imide>  (45) 
0

>  <fr_isocyan>  (45) 
0

>  <fr_isothiocyan>  (45) 
0

>  <fr_ketone>  (45) 
0

>  <fr_ketone_Topliss>  (45) 
0

>  <fr_lactam>  (45) 
0

>  <fr_lactone>  (45) 
0

>  <fr_methoxy>  (45) 
1

>  <fr_morpholine>  (45) 
0

>  <fr_nitrile>  (45) 
0

>  <fr_nitro>  (45) 
0

>  <fr_nitro_arom>  (45) 
0

>  <fr_nitro_arom_nonortho>  (45) 
0

>  <fr_nitroso>  (45) 
0

>  <fr_oxazole>  (45) 
0

>  <fr_oxime>  (45) 
0

>  <fr_para_hydroxylation>  (45) 
0

>  <fr_phenol>  (45) 
0

>  <fr_phenol_noOrthoHbond>  (45) 
0

>  <fr_phos_acid>  (45) 
0

>  <fr_phos_ester>  (45) 
0

>  <fr_piperdine>  (45) 
0

>  <fr_piperzine>  (45) 
0

>  <fr_priamide>  (45) 
0

>  <fr_prisulfonamd>  (45) 
0

>  <fr_pyridine>  (45) 
1

>  <fr_quatN>  (45) 
0

>  <fr_sulfide>  (45) 
0

>  <fr_sulfonamd>  (45) 
0

>  <fr_sulfone>  (45) 
0

>  <fr_term_acetylene>  (45) 
0

>  <fr_tetrazole>  (45) 
0

>  <fr_thiazole>  (45) 
0

>  <fr_thiocyan>  (45) 
0

>  <fr_thiophene>  (45) 
1

>  <fr_unbrch_alkane>  (45) 
0

>  <fr_urea>  (45) 
0

>  <NP_Likeness>  (45) 
-0.69265

$$$$
CHEMBL3581150
     RDKit          3D

  0  0  0  0  0  0  0  0  0  0999 V3000
M  V30 BEGIN CTAB
M  V30 COUNTS 45 47 0 0 0
M  V30 BEGIN ATOM
M  V30 1 C 3.633825 -3.911947 0.647571 0
M  V30 2 S 3.741760 -4.503593 -1.001412 0
M  V30 3 O 5.079382 -4.188179 -1.599630 0
M  V30 4 O 3.614009 -5.987962 -0.967430 0
M  V30 5 N 2.550656 -3.775743 -2.009487 0
M  V30 6 C 2.491734 -2.380185 -2.254511 0
M  V30 7 C 2.294241 -2.086046 -3.608444 0
M  V30 8 C 2.211428 -0.778106 -4.039578 0
M  V30 9 C 2.320703 0.264127 -3.151700 0
M  V30 10 C 2.516225 -0.019559 -1.810230 0
M  V30 11 C 2.656244 0.980387 -0.710627 0
M  V30 12 C 1.281605 1.219207 -0.217034 0
M  V30 13 O 1.067669 0.378609 -1.128554 0
M  V30 14 N 1.004882 2.107848 0.828827 0
M  V30 15 C -0.460169 2.233316 1.209569 0
M  V30 16 C -1.116344 1.512629 2.106712 0
M  V30 17 C -2.430512 1.775276 2.307330 0
M  V30 18 C -3.276028 1.041012 3.281063 0
M  V30 19 C -4.623078 0.846389 3.060581 0
M  V30 20 C -5.314846 0.145767 4.038350 0
M  V30 21 N -4.757343 -0.338300 5.155061 0
M  V30 22 C -3.434927 -0.161517 5.397454 0
M  V30 23 N -2.821075 -0.662200 6.568243 0
M  V30 24 C -2.723976 0.532091 4.440618 0
M  V30 25 C -3.009943 2.789527 1.555352 0
M  V30 26 S -1.516442 3.352571 0.521310 0
M  V30 27 C 2.599516 -1.324508 -1.375313 0
M  V30 28 H 4.275781 -3.032128 0.857553 0
M  V30 29 H 3.950859 -4.703259 1.363829 0
M  V30 30 H 2.585149 -3.663569 0.915458 0
M  V30 31 H 1.837883 -4.424647 -2.456562 0
M  V30 32 H 2.190337 -2.795414 -4.421041 0
M  V30 33 H 2.059152 -0.485464 -5.075995 0
M  V30 34 H 2.274234 1.324004 -3.355481 0
M  V30 35 H 3.375128 0.649216 0.036100 0
M  V30 36 H 3.083518 1.883730 -1.209382 0
M  V30 37 H 1.812179 2.585358 1.234800 0
M  V30 38 H -0.577514 0.736449 2.649827 0
M  V30 39 H -5.090064 1.232163 2.160973 0
M  V30 40 H -6.374960 -0.010035 3.869658 0
M  V30 41 H -2.813191 -1.711847 6.654324 0
M  V30 42 H -2.363927 -0.197695 7.383035 0
M  V30 43 H -1.653896 0.678145 4.631238 0
M  V30 44 H -4.070851 3.138373 1.589391 0
M  V30 45 H 2.749822 -1.637296 -0.351673 0
M  V30 END ATOM
M  V30 BEGIN BOND
M  V30 1 1 1 2
M  V30 2 2 2 3
M  V30 3 2 2 4
M  V30 4 1 2 5
M  V30 5 1 5 6
M  V30 6 2 6 7
M  V30 7 1 7 8
M  V30 8 2 8 9
M  V30 9 1 9 10
M  V30 10 1 10 11
M  V30 11 1 11 12
M  V30 12 2 12 13
M  V30 13 1 12 14
M  V30 14 1 14 15
M  V30 15 2 15 16
M  V30 16 1 16 17
M  V30 17 1 17 18
M  V30 18 2 18 19
M  V30 19 1 19 20
M  V30 20 2 20 21
M  V30 21 1 21 22
M  V30 22 1 22 23
M  V30 23 2 22 24
M  V30 24 2 17 25
M  V30 25 1 25 26
M  V30 26 2 10 27
M  V30 27 1 27 6
M  V30 28 1 26 15
M  V30 29 1 24 18
M  V30 30 1 1 28
M  V30 31 1 1 29
M  V30 32 1 1 30
M  V30 33 1 5 31
M  V30 34 1 7 32
M  V30 35 1 8 33
M  V30 36 1 9 34
M  V30 37 1 11 35
M  V30 38 1 11 36
M  V30 39 1 14 37
M  V30 40 1 16 38
M  V30 41 1 19 39
M  V30 42 1 20 40
M  V30 43 1 23 41
M  V30 44 1 23 42
M  V30 45 1 24 43
M  V30 46 1 25 44
M  V30 47 1 27 45
M  V30 END BOND
M  V30 END CTAB
M  END
>  <Dataset>  (46) 
ChEMBL_PKA

>  <Ligand_Instance>  (46) 
nan

>  <PDB_ID>  (46) 
nan

>  <Standardized_SMILES>  (46) 
CS(=O)(=O)Nc1cccc(CC(=O)Nc2cc(-c3ccnc(N)c3)cs2)c1

>  <Name>  (46) 
nan

>  <Pocket>  (46) 
nan

>  <ATP_Site>  (46) 
nan

>  <Peripheral>  (46) 
nan

>  <Num_H_Atoms_ProtBoundConf>  (46) 
nan

>  <Num_Resolved_Atoms>  (46) 
nan

>  <Num_Not_Resolved_Atoms>  (46) 
nan

>  <2D_Mol_H>  (46) 
<rdkit.Chem.rdchem.Mol object at 0x72a239103d80>

>  <MW>  (46) 
402.501

>  <HBA>  (46) 
6

>  <HBD>  (46) 
3

>  <LogP>  (46) 
2.945

>  <NRB>  (46) 
8

>  <TPSA>  (46) 
114.18

>  <Num_Heavy_Atoms>  (46) 
27

>  <Ro5>  (46) 
[True, True, True, True, True, True]

>  <Ro5_Fulfilled>  (46) 
True

>  <Ro3>  (46) 
[False, False, True, True]

>  <Ro3_Fulfilled>  (46) 
False

>  <Fsp3>  (46) 
0.111111

>  <Fsp3_0.42>  (46) 
False

>  <Fsp3_0.45>  (46) 
False

>  <Stereogenic_Carbons>  (46) 
0

>  <C_Atoms>  (46) 
18

>  <FCStereo>  (46) 
0.0

>  <SPS>  (46) 
301

>  <nSPS>  (46) 
11.148148

>  <PBF>  (46) 
1.105404

>  <PBF_0.6>  (46) 
True

>  <nPBF>  (46) 
0.040941

>  <nPBF_0.016>  (46) 
True

>  <PMI1>  (46) 
2274.834715

>  <PMI2>  (46) 
7574.596398

>  <PMI3>  (46) 
9102.20743

>  <NPR1>  (46) 
0.249921

>  <NPR2>  (46) 
0.832171

>  <Sum_NPR>  (46) 
1.082093

>  <Sum_NPR_1.07>  (46) 
True

>  <Sum_NPR_1.2>  (46) 
False

>  <MaxAbsEStateIndex>  (46) 
12.305175

>  <MaxEStateIndex>  (46) 
12.305175

>  <MinAbsEStateIndex>  (46) 
0.133651

>  <MinEStateIndex>  (46) 
-3.3599

>  <qed>  (46) 
0.586446

>  <MolWt>  (46) 
402.501

>  <HeavyAtomMolWt>  (46) 
384.357

>  <ExactMolWt>  (46) 
402.082032

>  <NumValenceElectrons>  (46) 
140

>  <NumRadicalElectrons>  (46) 
0

>  <MaxPartialCharge>  (46) 
0.229319

>  <MinPartialCharge>  (46) 
-0.383685

>  <MaxAbsPartialCharge>  (46) 
0.383685

>  <MinAbsPartialCharge>  (46) 
0.229319

>  <FpDensityMorgan1>  (46) 
1.185185

>  <FpDensityMorgan2>  (46) 
2.0

>  <FpDensityMorgan3>  (46) 
2.740741

>  <BCUT2D_MWHI>  (46) 
32.233118

>  <BCUT2D_MWLOW>  (46) 
10.115802

>  <BCUT2D_CHGHI>  (46) 
2.091614

>  <BCUT2D_CHGLO>  (46) 
-2.066821

>  <BCUT2D_LOGPHI>  (46) 
2.292158

>  <BCUT2D_LOGPLOW>  (46) 
-2.139003

>  <BCUT2D_MRHI>  (46) 
7.915212

>  <BCUT2D_MRLOW>  (46) 
-0.115099

>  <AvgIpc>  (46) 
3.015976

>  <BalabanJ>  (46) 
1.656441

>  <BertzCT>  (46) 
1077.470607

>  <Chi0>  (46) 
19.440947

>  <Chi0n>  (46) 
14.469065

>  <Chi0v>  (46) 
16.102058

>  <Chi1>  (46) 
12.781808

>  <Chi1n>  (46) 
7.953995

>  <Chi1v>  (46) 
10.72506

>  <Chi2n>  (46) 
5.968573

>  <Chi2v>  (46) 
8.628259

>  <Chi3n>  (46) 
3.571404

>  <Chi3v>  (46) 
5.02353

>  <Chi4n>  (46) 
2.506916

>  <Chi4v>  (46) 
3.887863

>  <HallKierAlpha>  (46) 
-2.91

>  <Ipc>  (46) 
1108660.572554

>  <Kappa1>  (46) 
18.868462

>  <Kappa2>  (46) 
7.765929

>  <Kappa3>  (46) 
5.53126

>  <LabuteASA>  (46) 
160.862342

>  <PEOE_VSA1>  (46) 
11.050456

>  <PEOE_VSA10>  (46) 
5.817863

>  <PEOE_VSA11>  (46) 
0.0

>  <PEOE_VSA12>  (46) 
15.930471

>  <PEOE_VSA13>  (46) 
0.0

>  <PEOE_VSA14>  (46) 
0.0

>  <PEOE_VSA2>  (46) 
9.516632

>  <PEOE_VSA3>  (46) 
13.401776

>  <PEOE_VSA4>  (46) 
0.0

>  <PEOE_VSA5>  (46) 
11.336786

>  <PEOE_VSA6>  (46) 
12.132734

>  <PEOE_VSA7>  (46) 
47.02219

>  <PEOE_VSA8>  (46) 
17.264293

>  <PEOE_VSA9>  (46) 
17.677673

>  <SMR_VSA1>  (46) 
13.212334

>  <SMR_VSA10>  (46) 
43.773588

>  <SMR_VSA2>  (46) 
0.0

>  <SMR_VSA3>  (46) 
4.983979

>  <SMR_VSA4>  (46) 
0.0

>  <SMR_VSA5>  (46) 
6.420822

>  <SMR_VSA6>  (46) 
22.02832

>  <SMR_VSA7>  (46) 
59.604927

>  <SMR_VSA8>  (46) 
0.0

>  <SMR_VSA9>  (46) 
11.126903

>  <SlogP_VSA1>  (46) 
15.772551

>  <SlogP_VSA10>  (46) 
16.506331

>  <SlogP_VSA11>  (46) 
0.0

>  <SlogP_VSA12>  (46) 
11.336786

>  <SlogP_VSA2>  (46) 
25.564724

>  <SlogP_VSA3>  (46) 
21.23865

>  <SlogP_VSA4>  (46) 
0.0

>  <SlogP_VSA5>  (46) 
5.563451

>  <SlogP_VSA6>  (46) 
54.041476

>  <SlogP_VSA7>  (46) 
0.0

>  <SlogP_VSA8>  (46) 
11.126903

>  <SlogP_VSA9>  (46) 
0.0

>  <EState_VSA1>  (46) 
10.023291

>  <EState_VSA10>  (46) 
13.212334

>  <EState_VSA11>  (46) 
0.0

>  <EState_VSA2>  (46) 
12.328001

>  <EState_VSA3>  (46) 
17.068701

>  <EState_VSA4>  (46) 
22.383754

>  <EState_VSA5>  (46) 
11.336786

>  <EState_VSA6>  (46) 
36.528679

>  <EState_VSA7>  (46) 
17.512797

>  <EState_VSA8>  (46) 
15.022862

>  <EState_VSA9>  (46) 
5.733667

>  <VSA_EState1>  (46) 
25.027546

>  <VSA_EState10>  (46) 
1.415327

>  <VSA_EState2>  (46) 
16.270419

>  <VSA_EState3>  (46) 
5.506855

>  <VSA_EState4>  (46) 
8.712508

>  <VSA_EState5>  (46) 
0.250943

>  <VSA_EState6>  (46) 
12.241769

>  <VSA_EState7>  (46) 
2.8512

>  <VSA_EState8>  (46) 
0.0

>  <VSA_EState9>  (46) 
-3.3599

>  <FractionCSP3>  (46) 
0.111111

>  <HeavyAtomCount>  (46) 
27

>  <NHOHCount>  (46) 
4

>  <NOCount>  (46) 
7

>  <NumAliphaticCarbocycles>  (46) 
0

>  <NumAliphaticHeterocycles>  (46) 
0

>  <NumAliphaticRings>  (46) 
0

>  <NumAromaticCarbocycles>  (46) 
1

>  <NumAromaticHeterocycles>  (46) 
2

>  <NumAromaticRings>  (46) 
3

>  <NumHAcceptors>  (46) 
6

>  <NumHDonors>  (46) 
3

>  <NumHeteroatoms>  (46) 
9

>  <NumRotatableBonds>  (46) 
6

>  <NumSaturatedCarbocycles>  (46) 
0

>  <NumSaturatedHeterocycles>  (46) 
0

>  <NumSaturatedRings>  (46) 
0

>  <RingCount>  (46) 
3

>  <MolLogP>  (46) 
2.945

>  <MolMR>  (46) 
109.2046

>  <fr_Al_COO>  (46) 
0

>  <fr_Al_OH>  (46) 
0

>  <fr_Al_OH_noTert>  (46) 
0

>  <fr_ArN>  (46) 
1

>  <fr_Ar_COO>  (46) 
0

>  <fr_Ar_N>  (46) 
1

>  <fr_Ar_NH>  (46) 
0

>  <fr_Ar_OH>  (46) 
0

>  <fr_COO>  (46) 
0

>  <fr_COO2>  (46) 
0

>  <fr_C_O>  (46) 
1

>  <fr_C_O_noCOO>  (46) 
1

>  <fr_C_S>  (46) 
0

>  <fr_HOCCN>  (46) 
0

>  <fr_Imine>  (46) 
0

>  <fr_NH0>  (46) 
1

>  <fr_NH1>  (46) 
2

>  <fr_NH2>  (46) 
1

>  <fr_N_O>  (46) 
0

>  <fr_Ndealkylation1>  (46) 
0

>  <fr_Ndealkylation2>  (46) 
0

>  <fr_Nhpyrrole>  (46) 
0

>  <fr_SH>  (46) 
0

>  <fr_aldehyde>  (46) 
0

>  <fr_alkyl_carbamate>  (46) 
0

>  <fr_alkyl_halide>  (46) 
0

>  <fr_allylic_oxid>  (46) 
0

>  <fr_amide>  (46) 
1

>  <fr_amidine>  (46) 
0

>  <fr_aniline>  (46) 
3

>  <fr_aryl_methyl>  (46) 
0

>  <fr_azide>  (46) 
0

>  <fr_azo>  (46) 
0

>  <fr_barbitur>  (46) 
0

>  <fr_benzene>  (46) 
1

>  <fr_benzodiazepine>  (46) 
0

>  <fr_bicyclic>  (46) 
0

>  <fr_diazo>  (46) 
0

>  <fr_dihydropyridine>  (46) 
0

>  <fr_epoxide>  (46) 
0

>  <fr_ester>  (46) 
0

>  <fr_ether>  (46) 
0

>  <fr_furan>  (46) 
0

>  <fr_guanido>  (46) 
0

>  <fr_halogen>  (46) 
0

>  <fr_hdrzine>  (46) 
0

>  <fr_hdrzone>  (46) 
0

>  <fr_imidazole>  (46) 
0

>  <fr_imide>  (46) 
0

>  <fr_isocyan>  (46) 
0

>  <fr_isothiocyan>  (46) 
0

>  <fr_ketone>  (46) 
0

>  <fr_ketone_Topliss>  (46) 
0

>  <fr_lactam>  (46) 
0

>  <fr_lactone>  (46) 
0

>  <fr_methoxy>  (46) 
0

>  <fr_morpholine>  (46) 
0

>  <fr_nitrile>  (46) 
0

>  <fr_nitro>  (46) 
0

>  <fr_nitro_arom>  (46) 
0

>  <fr_nitro_arom_nonortho>  (46) 
0

>  <fr_nitroso>  (46) 
0

>  <fr_oxazole>  (46) 
0

>  <fr_oxime>  (46) 
0

>  <fr_para_hydroxylation>  (46) 
0

>  <fr_phenol>  (46) 
0

>  <fr_phenol_noOrthoHbond>  (46) 
0

>  <fr_phos_acid>  (46) 
0

>  <fr_phos_ester>  (46) 
0

>  <fr_piperdine>  (46) 
0

>  <fr_piperzine>  (46) 
0

>  <fr_priamide>  (46) 
0

>  <fr_prisulfonamd>  (46) 
0

>  <fr_pyridine>  (46) 
1

>  <fr_quatN>  (46) 
0

>  <fr_sulfide>  (46) 
0

>  <fr_sulfonamd>  (46) 
1

>  <fr_sulfone>  (46) 
0

>  <fr_term_acetylene>  (46) 
0

>  <fr_tetrazole>  (46) 
0

>  <fr_thiazole>  (46) 
0

>  <fr_thiocyan>  (46) 
0

>  <fr_thiophene>  (46) 
1

>  <fr_unbrch_alkane>  (46) 
0

>  <fr_urea>  (46) 
0

>  <NP_Likeness>  (46) 
-1.068904

$$$$
CHEMBL3787112
     RDKit          3D

  0  0  0  0  0  0  0  0  0  0999 V3000
M  V30 BEGIN CTAB
M  V30 COUNTS 49 53 0 0 0
M  V30 BEGIN ATOM
M  V30 1 N 4.205292 0.826445 1.051206 0
M  V30 2 C 3.513262 -0.223676 1.695632 0
M  V30 3 N 4.046613 -0.675327 2.828069 0
M  V30 4 C 3.437846 -1.695356 3.487959 0
M  V30 5 N 2.318963 -2.201190 2.960251 0
M  V30 6 C 1.771358 -1.763351 1.830825 0
M  V30 7 C 2.364307 -0.730767 1.139363 0
M  V30 8 C 1.676213 -0.413560 0.007937 0
M  V30 9 C 1.899471 0.607042 -1.005900 0
M  V30 10 C 1.953977 0.270973 -2.358943 0
M  V30 11 C 2.148150 1.259555 -3.330458 0
M  V30 12 C 2.284546 2.572955 -2.924581 0
M  V30 13 C 2.235193 2.948843 -1.575211 0
M  V30 14 O 2.380044 4.285577 -1.238934 0
M  V30 15 C 2.039636 1.930006 -0.642066 0
M  V30 16 C 0.610425 -1.311826 0.024036 0
M  V30 17 N 0.659829 -2.128279 1.118334 0
M  V30 18 C -0.194847 -3.184623 1.562575 0 CFG=1
M  V30 19 C -0.888599 -2.977081 2.889043 0
M  V30 20 C -2.193704 -2.568863 2.176991 0 CFG=1
M  V30 21 C -2.379995 -1.119497 2.349090 0
M  V30 22 N -3.491338 -0.469272 1.809049 0
M  V30 23 C -3.676042 -0.301923 0.412552 0
M  V30 24 C -4.690595 -1.439375 0.461375 0
M  V30 25 C -4.794158 -1.058649 1.919316 0
M  V30 26 C -1.560135 -3.096227 0.922869 0
M  V30 27 H 4.689182 1.585706 0.588997 0
M  V30 28 H 5.219041 0.905878 0.784258 0
M  V30 29 H 3.818914 -2.106495 4.407747 0
M  V30 30 H 1.846434 -0.768106 -2.689493 0
M  V30 31 H 2.189563 0.988828 -4.390821 0
M  V30 32 H 2.439374 3.383852 -3.653530 0
M  V30 33 H 1.652565 4.681733 -0.637338 0
M  V30 34 H 2.002983 2.302130 0.357780 0
M  V30 35 H -0.154809 -1.355989 -0.732853 0
M  V30 36 H 0.308877 -4.173244 1.464127 0
M  V30 37 H -0.980600 -3.948111 3.411876 0
M  V30 38 H -0.455809 -2.223219 3.541697 0
M  V30 39 H -3.016261 -3.239932 2.493457 0
M  V30 40 H -1.457521 -0.619208 1.921347 0
M  V30 41 H -2.287191 -0.881781 3.452796 0
M  V30 42 H -2.816405 -0.436064 -0.238453 0
M  V30 43 H -4.161030 0.689873 0.171942 0
M  V30 44 H -4.279354 -2.417903 0.220861 0
M  V30 45 H -5.580554 -1.140004 -0.160692 0
M  V30 46 H -4.974066 -1.840782 2.645858 0
M  V30 47 H -5.547247 -0.241698 2.015934 0
M  V30 48 H -1.646699 -2.458699 0.049946 0
M  V30 49 H -1.892198 -4.136771 0.649777 0
M  V30 END ATOM
M  V30 BEGIN BOND
M  V30 1 1 1 2
M  V30 2 2 2 3
M  V30 3 1 3 4
M  V30 4 2 4 5
M  V30 5 1 5 6
M  V30 6 2 6 7
M  V30 7 1 7 8
M  V30 8 1 8 9
M  V30 9 2 9 10
M  V30 10 1 10 11
M  V30 11 2 11 12
M  V30 12 1 12 13
M  V30 13 1 13 14
M  V30 14 2 13 15
M  V30 15 2 8 16
M  V30 16 1 16 17
M  V30 17 1 17 18
M  V30 18 1 18 19
M  V30 19 1 19 20
M  V30 20 1 20 21
M  V30 21 1 21 22
M  V30 22 1 22 23
M  V30 23 1 23 24
M  V30 24 1 24 25
M  V30 25 1 20 26
M  V30 26 1 7 2
M  V30 27 1 15 9
M  V30 28 1 26 18
M  V30 29 1 17 6
M  V30 30 1 25 22
M  V30 31 1 1 27
M  V30 32 1 1 28
M  V30 33 1 4 29
M  V30 34 1 10 30
M  V30 35 1 11 31
M  V30 36 1 12 32
M  V30 37 1 14 33
M  V30 38 1 15 34
M  V30 39 1 16 35
M  V30 40 1 18 36 CFG=1
M  V30 41 1 19 37
M  V30 42 1 19 38
M  V30 43 1 20 39 CFG=1
M  V30 44 1 21 40
M  V30 45 1 21 41
M  V30 46 1 23 42
M  V30 47 1 23 43
M  V30 48 1 24 44
M  V30 49 1 24 45
M  V30 50 1 25 46
M  V30 51 1 25 47
M  V30 52 1 26 48
M  V30 53 1 26 49
M  V30 END BOND
M  V30 END CTAB
M  END
>  <Dataset>  (47) 
ChEMBL_PKA

>  <Ligand_Instance>  (47) 
nan

>  <PDB_ID>  (47) 
nan

>  <Standardized_SMILES>  (47) 
Nc1ncnc2c1c(-c1cccc(O)c1)cn2[C@H]1C[C@@H](CN2CCC2)C1

>  <Name>  (47) 
nan

>  <Pocket>  (47) 
nan

>  <ATP_Site>  (47) 
nan

>  <Peripheral>  (47) 
nan

>  <Num_H_Atoms_ProtBoundConf>  (47) 
nan

>  <Num_Resolved_Atoms>  (47) 
nan

>  <Num_Not_Resolved_Atoms>  (47) 
nan

>  <2D_Mol_H>  (47) 
<rdkit.Chem.rdchem.Mol object at 0x72a239103e60>

>  <MW>  (47) 
349.438

>  <HBA>  (47) 
6

>  <HBD>  (47) 
2

>  <LogP>  (47) 
3.0429

>  <NRB>  (47) 
6

>  <TPSA>  (47) 
80.2

>  <Num_Heavy_Atoms>  (47) 
26

>  <Ro5>  (47) 
[True, True, True, True, True, True]

>  <Ro5_Fulfilled>  (47) 
True

>  <Ro3>  (47) 
[False, False, True, False]

>  <Ro3_Fulfilled>  (47) 
False

>  <Fsp3>  (47) 
0.4

>  <Fsp3_0.42>  (47) 
False

>  <Fsp3_0.45>  (47) 
False

>  <Stereogenic_Carbons>  (47) 
2

>  <C_Atoms>  (47) 
20

>  <FCStereo>  (47) 
0.1

>  <SPS>  (47) 
596

>  <nSPS>  (47) 
22.923077

>  <PBF>  (47) 
1.024488

>  <PBF_0.6>  (47) 
True

>  <nPBF>  (47) 
0.039403

>  <nPBF_0.016>  (47) 
True

>  <PMI1>  (47) 
1934.968691

>  <PMI2>  (47) 
3511.925841

>  <PMI3>  (47) 
4741.774809

>  <NPR1>  (47) 
0.408068

>  <NPR2>  (47) 
0.740635

>  <Sum_NPR>  (47) 
1.148704

>  <Sum_NPR_1.07>  (47) 
True

>  <Sum_NPR_1.2>  (47) 
False

>  <MaxAbsEStateIndex>  (47) 
9.862632

>  <MaxEStateIndex>  (47) 
9.862632

>  <MinAbsEStateIndex>  (47) 
0.247294

>  <MinEStateIndex>  (47) 
0.247294

>  <qed>  (47) 
0.756637

>  <MolWt>  (47) 
349.438

>  <HeavyAtomMolWt>  (47) 
326.254

>  <ExactMolWt>  (47) 
349.19026

>  <NumValenceElectrons>  (47) 
134

>  <NumRadicalElectrons>  (47) 
0

>  <MaxPartialCharge>  (47) 
0.145868

>  <MinPartialCharge>  (47) 
-0.507944

>  <MaxAbsPartialCharge>  (47) 
0.507944

>  <MinAbsPartialCharge>  (47) 
0.145868

>  <FpDensityMorgan1>  (47) 
1.192308

>  <FpDensityMorgan2>  (47) 
2.038462

>  <FpDensityMorgan3>  (47) 
2.769231

>  <BCUT2D_MWHI>  (47) 
16.254693

>  <BCUT2D_MWLOW>  (47) 
9.790438

>  <BCUT2D_CHGHI>  (47) 
2.339097

>  <BCUT2D_CHGLO>  (47) 
-2.417463

>  <BCUT2D_LOGPHI>  (47) 
2.43117

>  <BCUT2D_LOGPLOW>  (47) 
-2.434405

>  <BCUT2D_MRHI>  (47) 
6.003642

>  <BCUT2D_MRLOW>  (47) 
0.092117

>  <AvgIpc>  (47) 
2.92698

>  <BalabanJ>  (47) 
1.495936

>  <BertzCT>  (47) 
955.989987

>  <Chi0>  (47) 
17.672998

>  <Chi0n>  (47) 
14.674861

>  <Chi0v>  (47) 
14.674861

>  <Chi1>  (47) 
12.686673

>  <Chi1n>  (47) 
9.315865

>  <Chi1v>  (47) 
9.315865

>  <Chi2n>  (47) 
7.603304

>  <Chi2v>  (47) 
7.603304

>  <Chi3n>  (47) 
5.865131

>  <Chi3v>  (47) 
5.865131

>  <Chi4n>  (47) 
4.285193

>  <Chi4v>  (47) 
4.285193

>  <HallKierAlpha>  (47) 
-2.6

>  <Ipc>  (47) 
1020974.380601

>  <Kappa1>  (47) 
15.639064

>  <Kappa2>  (47) 
5.985148

>  <Kappa3>  (47) 
2.524069

>  <LabuteASA>  (47) 
151.830422

>  <PEOE_VSA1>  (47) 
20.307204

>  <PEOE_VSA10>  (47) 
23.541872

>  <PEOE_VSA11>  (47) 
0.0

>  <PEOE_VSA12>  (47) 
0.0

>  <PEOE_VSA13>  (47) 
0.0

>  <PEOE_VSA14>  (47) 
0.0

>  <PEOE_VSA2>  (47) 
0.0

>  <PEOE_VSA3>  (47) 
9.967957

>  <PEOE_VSA4>  (47) 
0.0

>  <PEOE_VSA5>  (47) 
0.0

>  <PEOE_VSA6>  (47) 
12.132734

>  <PEOE_VSA7>  (47) 
55.966069

>  <PEOE_VSA8>  (47) 
24.346892

>  <PEOE_VSA9>  (47) 
5.386224

>  <SMR_VSA1>  (47) 
5.106527

>  <SMR_VSA10>  (47) 
16.851264

>  <SMR_VSA2>  (47) 
0.0

>  <SMR_VSA3>  (47) 
19.434966

>  <SMR_VSA4>  (47) 
5.917906

>  <SMR_VSA5>  (47) 
25.304306

>  <SMR_VSA6>  (47) 
25.367937

>  <SMR_VSA7>  (47) 
36.789632

>  <SMR_VSA8>  (47) 
0.0

>  <SMR_VSA9>  (47) 
16.876415

>  <SlogP_VSA1>  (47) 
5.733667

>  <SlogP_VSA10>  (47) 
5.817863

>  <SlogP_VSA11>  (47) 
5.749512

>  <SlogP_VSA12>  (47) 
0.0

>  <SlogP_VSA2>  (47) 
44.175763

>  <SlogP_VSA3>  (47) 
0.0

>  <SlogP_VSA4>  (47) 
5.917906

>  <SlogP_VSA5>  (47) 
25.304306

>  <SlogP_VSA6>  (47) 
36.789632

>  <SlogP_VSA7>  (47) 
0.0

>  <SlogP_VSA8>  (47) 
22.160304

>  <SlogP_VSA9>  (47) 
0.0

>  <EState_VSA1>  (47) 
0.0

>  <EState_VSA10>  (47) 
5.106527

>  <EState_VSA11>  (47) 
0.0

>  <EState_VSA2>  (47) 
5.749512

>  <EState_VSA3>  (47) 
11.859704

>  <EState_VSA4>  (47) 
28.07821

>  <EState_VSA5>  (47) 
45.224054

>  <EState_VSA6>  (47) 
12.132734

>  <EState_VSA7>  (47) 
12.132734

>  <EState_VSA8>  (47) 
25.63181

>  <EState_VSA9>  (47) 
5.733667

>  <VSA_EState1>  (47) 
2.263255

>  <VSA_EState10>  (47) 
0.0

>  <VSA_EState2>  (47) 
11.263939

>  <VSA_EState3>  (47) 
10.741607

>  <VSA_EState4>  (47) 
9.005523

>  <VSA_EState5>  (47) 
1.515534

>  <VSA_EState6>  (47) 
7.732849

>  <VSA_EState7>  (47) 
7.389707

>  <VSA_EState8>  (47) 
3.754253

>  <VSA_EState9>  (47) 
0.0

>  <FractionCSP3>  (47) 
0.4

>  <HeavyAtomCount>  (47) 
26

>  <NHOHCount>  (47) 
3

>  <NOCount>  (47) 
6

>  <NumAliphaticCarbocycles>  (47) 
1

>  <NumAliphaticHeterocycles>  (47) 
1

>  <NumAliphaticRings>  (47) 
2

>  <NumAromaticCarbocycles>  (47) 
1

>  <NumAromaticHeterocycles>  (47) 
2

>  <NumAromaticRings>  (47) 
3

>  <NumHAcceptors>  (47) 
6

>  <NumHDonors>  (47) 
2

>  <NumHeteroatoms>  (47) 
6

>  <NumRotatableBonds>  (47) 
4

>  <NumSaturatedCarbocycles>  (47) 
1

>  <NumSaturatedHeterocycles>  (47) 
1

>  <NumSaturatedRings>  (47) 
2

>  <RingCount>  (47) 
5

>  <MolLogP>  (47) 
3.0429

>  <MolMR>  (47) 
101.8592

>  <fr_Al_COO>  (47) 
0

>  <fr_Al_OH>  (47) 
0

>  <fr_Al_OH_noTert>  (47) 
0

>  <fr_ArN>  (47) 
1

>  <fr_Ar_COO>  (47) 
0

>  <fr_Ar_N>  (47) 
3

>  <fr_Ar_NH>  (47) 
0

>  <fr_Ar_OH>  (47) 
1

>  <fr_COO>  (47) 
0

>  <fr_COO2>  (47) 
0

>  <fr_C_O>  (47) 
0

>  <fr_C_O_noCOO>  (47) 
0

>  <fr_C_S>  (47) 
0

>  <fr_HOCCN>  (47) 
0

>  <fr_Imine>  (47) 
0

>  <fr_NH0>  (47) 
4

>  <fr_NH1>  (47) 
0

>  <fr_NH2>  (47) 
1

>  <fr_N_O>  (47) 
0

>  <fr_Ndealkylation1>  (47) 
0

>  <fr_Ndealkylation2>  (47) 
1

>  <fr_Nhpyrrole>  (47) 
0

>  <fr_SH>  (47) 
0

>  <fr_aldehyde>  (47) 
0

>  <fr_alkyl_carbamate>  (47) 
0

>  <fr_alkyl_halide>  (47) 
0

>  <fr_allylic_oxid>  (47) 
0

>  <fr_amide>  (47) 
0

>  <fr_amidine>  (47) 
0

>  <fr_aniline>  (47) 
1

>  <fr_aryl_methyl>  (47) 
0

>  <fr_azide>  (47) 
0

>  <fr_azo>  (47) 
0

>  <fr_barbitur>  (47) 
0

>  <fr_benzene>  (47) 
1

>  <fr_benzodiazepine>  (47) 
0

>  <fr_bicyclic>  (47) 
1

>  <fr_diazo>  (47) 
0

>  <fr_dihydropyridine>  (47) 
0

>  <fr_epoxide>  (47) 
0

>  <fr_ester>  (47) 
0

>  <fr_ether>  (47) 
0

>  <fr_furan>  (47) 
0

>  <fr_guanido>  (47) 
0

>  <fr_halogen>  (47) 
0

>  <fr_hdrzine>  (47) 
0

>  <fr_hdrzone>  (47) 
0

>  <fr_imidazole>  (47) 
0

>  <fr_imide>  (47) 
0

>  <fr_isocyan>  (47) 
0

>  <fr_isothiocyan>  (47) 
0

>  <fr_ketone>  (47) 
0

>  <fr_ketone_Topliss>  (47) 
0

>  <fr_lactam>  (47) 
0

>  <fr_lactone>  (47) 
0

>  <fr_methoxy>  (47) 
0

>  <fr_morpholine>  (47) 
0

>  <fr_nitrile>  (47) 
0

>  <fr_nitro>  (47) 
0

>  <fr_nitro_arom>  (47) 
0

>  <fr_nitro_arom_nonortho>  (47) 
0

>  <fr_nitroso>  (47) 
0

>  <fr_oxazole>  (47) 
0

>  <fr_oxime>  (47) 
0

>  <fr_para_hydroxylation>  (47) 
0

>  <fr_phenol>  (47) 
1

>  <fr_phenol_noOrthoHbond>  (47) 
1

>  <fr_phos_acid>  (47) 
0

>  <fr_phos_ester>  (47) 
0

>  <fr_piperdine>  (47) 
0

>  <fr_piperzine>  (47) 
0

>  <fr_priamide>  (47) 
0

>  <fr_prisulfonamd>  (47) 
0

>  <fr_pyridine>  (47) 
0

>  <fr_quatN>  (47) 
0

>  <fr_sulfide>  (47) 
0

>  <fr_sulfonamd>  (47) 
0

>  <fr_sulfone>  (47) 
0

>  <fr_term_acetylene>  (47) 
0

>  <fr_tetrazole>  (47) 
0

>  <fr_thiazole>  (47) 
0

>  <fr_thiocyan>  (47) 
0

>  <fr_thiophene>  (47) 
0

>  <fr_unbrch_alkane>  (47) 
0

>  <fr_urea>  (47) 
0

>  <NP_Likeness>  (47) 
-0.312517

$$$$
CHEMBL38380
     RDKit          3D

  0  0  0  0  0  0  0  0  0  0999 V3000
M  V30 BEGIN CTAB
M  V30 COUNTS 37 39 0 0 0
M  V30 BEGIN ATOM
M  V30 1 O 1.577255 -1.714559 3.194716 0
M  V30 2 S 0.848803 -0.737678 2.286557 0
M  V30 3 O 0.382799 0.368539 3.232518 0
M  V30 4 C 1.971353 -0.145827 1.131271 0
M  V30 5 C 3.257668 -0.693127 1.050982 0
M  V30 6 C 4.242527 -0.333258 0.162400 0
M  V30 7 C 3.963830 0.661996 -0.750884 0
M  V30 8 C 2.723234 1.252556 -0.738995 0
M  V30 9 C 2.377436 2.268359 -1.626840 0
M  V30 10 N 1.149931 2.866023 -1.615858 0
M  V30 11 C 0.218379 2.459941 -0.703390 0
M  V30 12 C 0.586605 1.462833 0.152747 0
M  V30 13 C 1.810323 0.832273 0.176979 0
M  V30 14 N -0.527896 -1.506856 1.706019 0
M  V30 15 C -1.722938 -0.814130 2.031743 0
M  V30 16 C -2.574654 -0.494251 0.831054 0
M  V30 17 C -2.218635 -1.515669 -0.250786 0
M  V30 18 N -2.445092 -2.821501 0.280136 0
M  V30 19 C -1.218539 -3.512745 0.629929 0
M  V30 20 C -0.591290 -2.925729 1.881153 0
M  V30 21 H 3.539979 -1.490789 1.752821 0
M  V30 22 H 5.206199 -0.808446 0.171250 0
M  V30 23 H 4.704126 0.960358 -1.448997 0
M  V30 24 H 3.168493 2.544989 -2.329690 0
M  V30 25 H -0.756170 2.928244 -0.687605 0
M  V30 26 H -0.170123 1.179351 0.861917 0
M  V30 27 H -1.520204 0.153384 2.559203 0
M  V30 28 H -2.325670 -1.488591 2.702429 0
M  V30 29 H -2.444834 0.537412 0.447684 0
M  V30 30 H -3.644623 -0.617262 1.097232 0
M  V30 31 H -1.179281 -1.348823 -0.588476 0
M  V30 32 H -2.909829 -1.321472 -1.096716 0
M  V30 33 H -3.047471 -3.403157 -0.325915 0
M  V30 34 H -0.497753 -3.533989 -0.217912 0
M  V30 35 H -1.507667 -4.573796 0.786405 0
M  V30 36 H -1.235708 -3.260925 2.727685 0
M  V30 37 H 0.407085 -3.370100 1.970205 0
M  V30 END ATOM
M  V30 BEGIN BOND
M  V30 1 2 1 2
M  V30 2 2 2 3
M  V30 3 1 2 4
M  V30 4 2 4 5
M  V30 5 1 5 6
M  V30 6 2 6 7
M  V30 7 1 7 8
M  V30 8 2 8 9
M  V30 9 1 9 10
M  V30 10 2 10 11
M  V30 11 1 11 12
M  V30 12 2 12 13
M  V30 13 1 2 14
M  V30 14 1 14 15
M  V30 15 1 15 16
M  V30 16 1 16 17
M  V30 17 1 17 18
M  V30 18 1 18 19
M  V30 19 1 19 20
M  V30 20 1 13 4
M  V30 21 1 20 14
M  V30 22 1 13 8
M  V30 23 1 5 21
M  V30 24 1 6 22
M  V30 25 1 7 23
M  V30 26 1 9 24
M  V30 27 1 11 25
M  V30 28 1 12 26
M  V30 29 1 15 27
M  V30 30 1 15 28
M  V30 31 1 16 29
M  V30 32 1 16 30
M  V30 33 1 17 31
M  V30 34 1 17 32
M  V30 35 1 18 33
M  V30 36 1 19 34
M  V30 37 1 19 35
M  V30 38 1 20 36
M  V30 39 1 20 37
M  V30 END BOND
M  V30 END CTAB
M  END
>  <Dataset>  (48) 
ChEMBL_PKA

>  <Ligand_Instance>  (48) 
nan

>  <PDB_ID>  (48) 
nan

>  <Standardized_SMILES>  (48) 
O=S(=O)(c1cccc2cnccc12)N1CCCNCC1

>  <Name>  (48) 
FASUDIL

>  <Pocket>  (48) 
nan

>  <ATP_Site>  (48) 
nan

>  <Peripheral>  (48) 
nan

>  <Num_H_Atoms_ProtBoundConf>  (48) 
nan

>  <Num_Resolved_Atoms>  (48) 
nan

>  <Num_Not_Resolved_Atoms>  (48) 
nan

>  <2D_Mol_H>  (48) 
<rdkit.Chem.rdchem.Mol object at 0x72a239103f40>

>  <MW>  (48) 
291.376

>  <HBA>  (48) 
4

>  <HBD>  (48) 
1

>  <LogP>  (48) 
1.2188

>  <NRB>  (48) 
2

>  <TPSA>  (48) 
62.3

>  <Num_Heavy_Atoms>  (48) 
20

>  <Ro5>  (48) 
[True, True, True, True, True, True]

>  <Ro5_Fulfilled>  (48) 
True

>  <Ro3>  (48) 
[True, False, True, True]

>  <Ro3_Fulfilled>  (48) 
True

>  <Fsp3>  (48) 
0.357143

>  <Fsp3_0.42>  (48) 
False

>  <Fsp3_0.45>  (48) 
False

>  <Stereogenic_Carbons>  (48) 
0

>  <C_Atoms>  (48) 
14

>  <FCStereo>  (48) 
0.0

>  <SPS>  (48) 
360

>  <nSPS>  (48) 
18.0

>  <PBF>  (48) 
0.966978

>  <PBF_0.6>  (48) 
True

>  <nPBF>  (48) 
0.048349

>  <nPBF_0.016>  (48) 
True

>  <PMI1>  (48) 
1012.838475

>  <PMI2>  (48) 
1935.239452

>  <PMI3>  (48) 
2335.099527

>  <NPR1>  (48) 
0.433745

>  <NPR2>  (48) 
0.828761

>  <Sum_NPR>  (48) 
1.262506

>  <Sum_NPR_1.07>  (48) 
True

>  <Sum_NPR_1.2>  (48) 
True

>  <MaxAbsEStateIndex>  (48) 
12.831725

>  <MaxEStateIndex>  (48) 
12.831725

>  <MinAbsEStateIndex>  (48) 
0.374352

>  <MinEStateIndex>  (48) 
-3.446412

>  <qed>  (48) 
0.903457

>  <MolWt>  (48) 
291.376

>  <HeavyAtomMolWt>  (48) 
274.24

>  <ExactMolWt>  (48) 
291.104148

>  <NumValenceElectrons>  (48) 
106

>  <NumRadicalElectrons>  (48) 
0

>  <MaxPartialCharge>  (48) 
0.243232

>  <MinPartialCharge>  (48) 
-0.31537

>  <MaxAbsPartialCharge>  (48) 
0.31537

>  <MinAbsPartialCharge>  (48) 
0.243232

>  <FpDensityMorgan1>  (48) 
1.15

>  <FpDensityMorgan2>  (48) 
2.05

>  <FpDensityMorgan3>  (48) 
2.95

>  <BCUT2D_MWHI>  (48) 
32.233427

>  <BCUT2D_MWLOW>  (48) 
10.168311

>  <BCUT2D_CHGHI>  (48) 
2.259759

>  <BCUT2D_CHGLO>  (48) 
-2.201172

>  <BCUT2D_LOGPHI>  (48) 
2.24849

>  <BCUT2D_LOGPLOW>  (48) 
-2.338414

>  <BCUT2D_MRHI>  (48) 
7.889647

>  <BCUT2D_MRLOW>  (48) 
0.432319

>  <AvgIpc>  (48) 
2.759566

>  <BalabanJ>  (48) 
2.085841

>  <BertzCT>  (48) 
701.935726

>  <Chi0>  (48) 
14.001789

>  <Chi0n>  (48) 
11.118808

>  <Chi0v>  (48) 
11.935304

>  <Chi1>  (48) 
9.693507

>  <Chi1n>  (48) 
6.730692

>  <Chi1v>  (48) 
8.170756

>  <Chi2n>  (48) 
4.860599

>  <Chi2v>  (48) 
6.766956

>  <Chi3n>  (48) 
3.557609

>  <Chi3v>  (48) 
5.514403

>  <Chi4n>  (48) 
2.518183

>  <Chi4v>  (48) 
4.211793

>  <HallKierAlpha>  (48) 
-1.5

>  <Ipc>  (48) 
56228.921022

>  <Kappa1>  (48) 
13.481559

>  <Kappa2>  (48) 
5.47472

>  <Kappa3>  (48) 
2.416781

>  <LabuteASA>  (48) 
118.222067

>  <PEOE_VSA1>  (48) 
5.316789

>  <PEOE_VSA10>  (48) 
0.0

>  <PEOE_VSA11>  (48) 
0.0

>  <PEOE_VSA12>  (48) 
10.023291

>  <PEOE_VSA13>  (48) 
0.0

>  <PEOE_VSA14>  (48) 
0.0

>  <PEOE_VSA2>  (48) 
4.983979

>  <PEOE_VSA3>  (48) 
8.417797

>  <PEOE_VSA4>  (48) 
4.305216

>  <PEOE_VSA5>  (48) 
0.0

>  <PEOE_VSA6>  (48) 
12.132734

>  <PEOE_VSA7>  (48) 
25.098312

>  <PEOE_VSA8>  (48) 
42.800405

>  <PEOE_VSA9>  (48) 
4.895483

>  <SMR_VSA1>  (48) 
8.417797

>  <SMR_VSA10>  (48) 
20.79574

>  <SMR_VSA2>  (48) 
0.0

>  <SMR_VSA3>  (48) 
14.605983

>  <SMR_VSA4>  (48) 
0.0

>  <SMR_VSA5>  (48) 
11.316305

>  <SMR_VSA6>  (48) 
26.179026

>  <SMR_VSA7>  (48) 
36.659155

>  <SMR_VSA8>  (48) 
0.0

>  <SMR_VSA9>  (48) 
0.0

>  <SlogP_VSA1>  (48) 
5.316789

>  <SlogP_VSA10>  (48) 
0.0

>  <SlogP_VSA11>  (48) 
0.0

>  <SlogP_VSA12>  (48) 
0.0

>  <SlogP_VSA2>  (48) 
43.886017

>  <SlogP_VSA3>  (48) 
10.023291

>  <SlogP_VSA4>  (48) 
0.0

>  <SlogP_VSA5>  (48) 
6.420822

>  <SlogP_VSA6>  (48) 
41.554639

>  <SlogP_VSA7>  (48) 
0.0

>  <SlogP_VSA8>  (48) 
10.772448

>  <SlogP_VSA9>  (48) 
0.0

>  <EState_VSA1>  (48) 
10.023291

>  <EState_VSA10>  (48) 
8.417797

>  <EState_VSA11>  (48) 
0.0

>  <EState_VSA2>  (48) 
0.0

>  <EState_VSA3>  (48) 
24.529753

>  <EState_VSA4>  (48) 
23.738026

>  <EState_VSA5>  (48) 
0.0

>  <EState_VSA6>  (48) 
34.898004

>  <EState_VSA7>  (48) 
6.066367

>  <EState_VSA8>  (48) 
10.300767

>  <EState_VSA9>  (48) 
0.0

>  <VSA_EState1>  (48) 
27.235079

>  <VSA_EState10>  (48) 
0.0

>  <VSA_EState2>  (48) 
4.419481

>  <VSA_EState3>  (48) 
4.806299

>  <VSA_EState4>  (48) 
0.0

>  <VSA_EState5>  (48) 
0.0

>  <VSA_EState6>  (48) 
7.089859

>  <VSA_EState7>  (48) 
4.161926

>  <VSA_EState8>  (48) 
2.650435

>  <VSA_EState9>  (48) 
-3.446412

>  <FractionCSP3>  (48) 
0.357143

>  <HeavyAtomCount>  (48) 
20

>  <NHOHCount>  (48) 
1

>  <NOCount>  (48) 
5

>  <NumAliphaticCarbocycles>  (48) 
0

>  <NumAliphaticHeterocycles>  (48) 
1

>  <NumAliphaticRings>  (48) 
1

>  <NumAromaticCarbocycles>  (48) 
1

>  <NumAromaticHeterocycles>  (48) 
1

>  <NumAromaticRings>  (48) 
2

>  <NumHAcceptors>  (48) 
4

>  <NumHDonors>  (48) 
1

>  <NumHeteroatoms>  (48) 
6

>  <NumRotatableBonds>  (48) 
2

>  <NumSaturatedCarbocycles>  (48) 
0

>  <NumSaturatedHeterocycles>  (48) 
1

>  <NumSaturatedRings>  (48) 
1

>  <RingCount>  (48) 
3

>  <MolLogP>  (48) 
1.2188

>  <MolMR>  (48) 
77.9885

>  <fr_Al_COO>  (48) 
0

>  <fr_Al_OH>  (48) 
0

>  <fr_Al_OH_noTert>  (48) 
0

>  <fr_ArN>  (48) 
0

>  <fr_Ar_COO>  (48) 
0

>  <fr_Ar_N>  (48) 
1

>  <fr_Ar_NH>  (48) 
0

>  <fr_Ar_OH>  (48) 
0

>  <fr_COO>  (48) 
0

>  <fr_COO2>  (48) 
0

>  <fr_C_O>  (48) 
0

>  <fr_C_O_noCOO>  (48) 
0

>  <fr_C_S>  (48) 
0

>  <fr_HOCCN>  (48) 
0

>  <fr_Imine>  (48) 
0

>  <fr_NH0>  (48) 
2

>  <fr_NH1>  (48) 
1

>  <fr_NH2>  (48) 
0

>  <fr_N_O>  (48) 
0

>  <fr_Ndealkylation1>  (48) 
0

>  <fr_Ndealkylation2>  (48) 
0

>  <fr_Nhpyrrole>  (48) 
0

>  <fr_SH>  (48) 
0

>  <fr_aldehyde>  (48) 
0

>  <fr_alkyl_carbamate>  (48) 
0

>  <fr_alkyl_halide>  (48) 
0

>  <fr_allylic_oxid>  (48) 
0

>  <fr_amide>  (48) 
0

>  <fr_amidine>  (48) 
0

>  <fr_aniline>  (48) 
0

>  <fr_aryl_methyl>  (48) 
0

>  <fr_azide>  (48) 
0

>  <fr_azo>  (48) 
0

>  <fr_barbitur>  (48) 
0

>  <fr_benzene>  (48) 
1

>  <fr_benzodiazepine>  (48) 
0

>  <fr_bicyclic>  (48) 
1

>  <fr_diazo>  (48) 
0

>  <fr_dihydropyridine>  (48) 
0

>  <fr_epoxide>  (48) 
0

>  <fr_ester>  (48) 
0

>  <fr_ether>  (48) 
0

>  <fr_furan>  (48) 
0

>  <fr_guanido>  (48) 
0

>  <fr_halogen>  (48) 
0

>  <fr_hdrzine>  (48) 
0

>  <fr_hdrzone>  (48) 
0

>  <fr_imidazole>  (48) 
0

>  <fr_imide>  (48) 
0

>  <fr_isocyan>  (48) 
0

>  <fr_isothiocyan>  (48) 
0

>  <fr_ketone>  (48) 
0

>  <fr_ketone_Topliss>  (48) 
0

>  <fr_lactam>  (48) 
0

>  <fr_lactone>  (48) 
0

>  <fr_methoxy>  (48) 
0

>  <fr_morpholine>  (48) 
0

>  <fr_nitrile>  (48) 
0

>  <fr_nitro>  (48) 
0

>  <fr_nitro_arom>  (48) 
0

>  <fr_nitro_arom_nonortho>  (48) 
0

>  <fr_nitroso>  (48) 
0

>  <fr_oxazole>  (48) 
0

>  <fr_oxime>  (48) 
0

>  <fr_para_hydroxylation>  (48) 
0

>  <fr_phenol>  (48) 
0

>  <fr_phenol_noOrthoHbond>  (48) 
0

>  <fr_phos_acid>  (48) 
0

>  <fr_phos_ester>  (48) 
0

>  <fr_piperdine>  (48) 
0

>  <fr_piperzine>  (48) 
0

>  <fr_priamide>  (48) 
0

>  <fr_prisulfonamd>  (48) 
0

>  <fr_pyridine>  (48) 
1

>  <fr_quatN>  (48) 
0

>  <fr_sulfide>  (48) 
0

>  <fr_sulfonamd>  (48) 
1

>  <fr_sulfone>  (48) 
0

>  <fr_term_acetylene>  (48) 
0

>  <fr_tetrazole>  (48) 
0

>  <fr_thiazole>  (48) 
0

>  <fr_thiocyan>  (48) 
0

>  <fr_thiophene>  (48) 
0

>  <fr_unbrch_alkane>  (48) 
0

>  <fr_urea>  (48) 
0

>  <NP_Likeness>  (48) 
-1.638751

$$$$
CHEMBL3884319
     RDKit          3D

  0  0  0  0  0  0  0  0  0  0999 V3000
M  V30 BEGIN CTAB
M  V30 COUNTS 51 55 0 0 0
M  V30 BEGIN ATOM
M  V30 1 C 0.163686 -2.543675 4.670201 0
M  V30 2 C 0.938520 -2.460998 3.384732 0
M  V30 3 C 2.185904 -3.293554 3.428708 0
M  V30 4 C 1.177367 -1.044496 3.072207 0
M  V30 5 O 1.904768 -0.305926 3.781571 0
M  V30 6 N 0.501725 -0.612777 1.894008 0
M  V30 7 C 0.465881 0.664368 1.248628 0 CFG=1
M  V30 8 C -0.044660 1.783235 2.109892 0
M  V30 9 C 0.284922 2.962399 1.185428 0
M  V30 10 C 1.669756 2.566465 0.767742 0
M  V30 11 C 2.767842 3.315273 0.380819 0
M  V30 12 O 2.669140 4.698184 0.339539 0
M  V30 13 C 3.962310 2.714071 0.034184 0
M  V30 14 C 4.088835 1.337457 0.066324 0
M  V30 15 C 2.986221 0.578804 0.455198 0
M  V30 16 C 1.774451 1.175676 0.807537 0
M  V30 17 C -0.185913 -1.800808 1.451207 0
M  V30 18 N -0.978087 -1.974240 0.385741 0
M  V30 19 C -1.588185 -3.101624 0.027047 0
M  V30 20 N -2.427116 -3.295942 -1.096420 0
M  V30 21 C -2.793122 -2.338994 -2.071269 0
M  V30 22 C -2.398655 -1.028217 -2.111352 0
M  V30 23 C -2.767285 -0.112142 -3.070915 0
M  V30 24 C -3.602455 -0.523915 -4.086644 0
M  V30 25 C -4.027569 -1.819363 -4.098007 0
M  V30 26 C -3.623863 -2.688123 -3.109768 0
M  V30 27 N -1.345331 -4.128428 0.855607 0
M  V30 28 C -0.569437 -4.041105 1.937540 0
M  V30 29 C 0.038940 -2.872241 2.274463 0
M  V30 30 H -0.226133 -3.560135 4.841583 0
M  V30 31 H -0.728634 -1.889088 4.563074 0
M  V30 32 H 0.737143 -2.163364 5.539084 0
M  V30 33 H 1.915637 -4.303249 3.025295 0
M  V30 34 H 2.970042 -2.824798 2.817862 0
M  V30 35 H 2.450655 -3.454910 4.487488 0
M  V30 36 H -0.177318 0.644002 0.327440 0
M  V30 37 H 0.617805 1.911257 3.000988 0
M  V30 38 H -1.109155 1.736170 2.350190 0
M  V30 39 H 0.251669 3.926499 1.714090 0
M  V30 40 H -0.389431 2.859436 0.331915 0
M  V30 41 H 1.936568 5.207967 0.798440 0
M  V30 42 H 4.842734 3.269903 -0.273708 0
M  V30 43 H 4.980425 0.780530 -0.186741 0
M  V30 44 H 2.984386 -0.502232 0.512479 0
M  V30 45 H -2.828574 -4.263652 -1.227041 0
M  V30 46 H -1.751444 -0.643474 -1.354809 0
M  V30 47 H -2.428814 0.908488 -3.056859 0
M  V30 48 H -3.906401 0.170712 -4.849569 0
M  V30 49 H -4.679908 -2.122673 -4.899916 0
M  V30 50 H -4.020232 -3.697837 -3.212626 0
M  V30 51 H -0.421911 -4.925623 2.562054 0
M  V30 END ATOM
M  V30 BEGIN BOND
M  V30 1 1 1 2
M  V30 2 1 2 3
M  V30 3 1 2 4
M  V30 4 2 4 5
M  V30 5 1 4 6
M  V30 6 1 6 7
M  V30 7 1 7 8
M  V30 8 1 8 9
M  V30 9 1 9 10
M  V30 10 2 10 11
M  V30 11 1 11 12
M  V30 12 1 11 13
M  V30 13 2 13 14
M  V30 14 1 14 15
M  V30 15 2 15 16
M  V30 16 1 6 17
M  V30 17 2 17 18
M  V30 18 1 18 19
M  V30 19 1 19 20
M  V30 20 1 20 21
M  V30 21 2 21 22
M  V30 22 1 22 23
M  V30 23 2 23 24
M  V30 24 1 24 25
M  V30 25 2 25 26
M  V30 26 2 19 27
M  V30 27 1 27 28
M  V30 28 2 28 29
M  V30 29 1 29 2
M  V30 30 1 16 7
M  V30 31 1 29 17
M  V30 32 1 16 10
M  V30 33 1 26 21
M  V30 34 1 1 30
M  V30 35 1 1 31
M  V30 36 1 1 32
M  V30 37 1 3 33
M  V30 38 1 3 34
M  V30 39 1 3 35
M  V30 40 1 7 36 CFG=3
M  V30 41 1 8 37
M  V30 42 1 8 38
M  V30 43 1 9 39
M  V30 44 1 9 40
M  V30 45 1 12 41
M  V30 46 1 13 42
M  V30 47 1 14 43
M  V30 48 1 15 44
M  V30 49 1 20 45
M  V30 50 1 22 46
M  V30 51 1 23 47
M  V30 52 1 24 48
M  V30 53 1 25 49
M  V30 54 1 26 50
M  V30 55 1 28 51
M  V30 END BOND
M  V30 END CTAB
M  END
>  <Dataset>  (49) 
ChEMBL_PKA

>  <Ligand_Instance>  (49) 
nan

>  <PDB_ID>  (49) 
nan

>  <Standardized_SMILES>  (49) 
CC1(C)C(=O)N([C@H]2CCc3c(O)cccc32)c2nc(Nc3ccccc3)ncc21

>  <Name>  (49) 
nan

>  <Pocket>  (49) 
nan

>  <ATP_Site>  (49) 
nan

>  <Peripheral>  (49) 
nan

>  <Num_H_Atoms_ProtBoundConf>  (49) 
nan

>  <Num_Resolved_Atoms>  (49) 
nan

>  <Num_Not_Resolved_Atoms>  (49) 
nan

>  <2D_Mol_H>  (49) 
<rdkit.Chem.rdchem.Mol object at 0x72a2391100b0>

>  <MW>  (49) 
386.455

>  <HBA>  (49) 
5

>  <HBD>  (49) 
2

>  <LogP>  (49) 
4.2375

>  <NRB>  (49) 
6

>  <TPSA>  (49) 
78.35

>  <Num_Heavy_Atoms>  (49) 
29

>  <Ro5>  (49) 
[True, True, True, True, True, True]

>  <Ro5_Fulfilled>  (49) 
True

>  <Ro3>  (49) 
[False, False, True, False]

>  <Ro3_Fulfilled>  (49) 
False

>  <Fsp3>  (49) 
0.26087

>  <Fsp3_0.42>  (49) 
False

>  <Fsp3_0.45>  (49) 
False

>  <Stereogenic_Carbons>  (49) 
1

>  <C_Atoms>  (49) 
23

>  <FCStereo>  (49) 
0.043478

>  <SPS>  (49) 
556

>  <nSPS>  (49) 
19.172414

>  <PBF>  (49) 
0.929501

>  <PBF_0.6>  (49) 
True

>  <nPBF>  (49) 
0.032052

>  <nPBF_0.016>  (49) 
True

>  <PMI1>  (49) 
2595.327767

>  <PMI2>  (49) 
4061.226277

>  <PMI3>  (49) 
5989.028064

>  <NPR1>  (49) 
0.433347

>  <NPR2>  (49) 
0.678111

>  <Sum_NPR>  (49) 
1.111458

>  <Sum_NPR_1.07>  (49) 
True

>  <Sum_NPR_1.2>  (49) 
False

>  <MaxAbsEStateIndex>  (49) 
13.410602

>  <MaxEStateIndex>  (49) 
13.410602

>  <MinAbsEStateIndex>  (49) 
0.013754

>  <MinEStateIndex>  (49) 
-0.694257

>  <qed>  (49) 
0.704007

>  <MolWt>  (49) 
386.455

>  <HeavyAtomMolWt>  (49) 
364.279

>  <ExactMolWt>  (49) 
386.174276

>  <NumValenceElectrons>  (49) 
146

>  <NumRadicalElectrons>  (49) 
0

>  <MaxPartialCharge>  (49) 
0.238527

>  <MinPartialCharge>  (49) 
-0.507664

>  <MaxAbsPartialCharge>  (49) 
0.507664

>  <MinAbsPartialCharge>  (49) 
0.238527

>  <FpDensityMorgan1>  (49) 
1.137931

>  <FpDensityMorgan2>  (49) 
1.931034

>  <FpDensityMorgan3>  (49) 
2.724138

>  <BCUT2D_MWHI>  (49) 
16.255515

>  <BCUT2D_MWLOW>  (49) 
9.87745

>  <BCUT2D_CHGHI>  (49) 
2.491431

>  <BCUT2D_CHGLO>  (49) 
-2.265253

>  <BCUT2D_LOGPHI>  (49) 
2.485913

>  <BCUT2D_LOGPLOW>  (49) 
-2.378671

>  <BCUT2D_MRHI>  (49) 
6.068944

>  <BCUT2D_MRLOW>  (49) 
-0.122157

>  <AvgIpc>  (49) 
3.211357

>  <BalabanJ>  (49) 
1.582096

>  <BertzCT>  (49) 
1111.115629

>  <Chi0>  (49) 
20.172998

>  <Chi0n>  (49) 
16.384819

>  <Chi0v>  (49) 
16.384819

>  <Chi1>  (49) 
13.964364

>  <Chi1n>  (49) 
9.806015

>  <Chi1v>  (49) 
9.806015

>  <Chi2n>  (49) 
8.121463

>  <Chi2v>  (49) 
8.121463

>  <Chi3n>  (49) 
5.979539

>  <Chi3v>  (49) 
5.979539

>  <Chi4n>  (49) 
4.391166

>  <Chi4v>  (49) 
4.391166

>  <HallKierAlpha>  (49) 
-3.41

>  <Ipc>  (49) 
6721833.027761

>  <Kappa1>  (49) 
17.672477

>  <Kappa2>  (49) 
6.304186

>  <Kappa3>  (49) 
2.667285

>  <LabuteASA>  (49) 
168.793272

>  <PEOE_VSA1>  (49) 
10.423316

>  <PEOE_VSA10>  (49) 
11.567375

>  <PEOE_VSA11>  (49) 
0.0

>  <PEOE_VSA12>  (49) 
11.855519

>  <PEOE_VSA13>  (49) 
0.0

>  <PEOE_VSA14>  (49) 
0.0

>  <PEOE_VSA2>  (49) 
9.694447

>  <PEOE_VSA3>  (49) 
4.983979

>  <PEOE_VSA4>  (49) 
4.983979

>  <PEOE_VSA5>  (49) 
0.0

>  <PEOE_VSA6>  (49) 
30.331835

>  <PEOE_VSA7>  (49) 
56.015122

>  <PEOE_VSA8>  (49) 
17.447681

>  <PEOE_VSA9>  (49) 
11.456831

>  <SMR_VSA1>  (49) 
9.901065

>  <SMR_VSA10>  (49) 
23.360768

>  <SMR_VSA2>  (49) 
0.0

>  <SMR_VSA3>  (49) 
9.967957

>  <SMR_VSA4>  (49) 
0.0

>  <SMR_VSA5>  (49) 
38.145949

>  <SMR_VSA6>  (49) 
10.216698

>  <SMR_VSA7>  (49) 
71.418135

>  <SMR_VSA8>  (49) 
0.0

>  <SMR_VSA9>  (49) 
5.749512

>  <SlogP_VSA1>  (49) 
10.216698

>  <SlogP_VSA10>  (49) 
17.453588

>  <SlogP_VSA11>  (49) 
5.749512

>  <SlogP_VSA12>  (49) 
0.0

>  <SlogP_VSA2>  (49) 
20.981664

>  <SlogP_VSA3>  (49) 
16.630349

>  <SlogP_VSA4>  (49) 
0.0

>  <SlogP_VSA5>  (49) 
43.000491

>  <SlogP_VSA6>  (49) 
54.72778

>  <SlogP_VSA7>  (49) 
0.0

>  <SlogP_VSA8>  (49) 
0.0

>  <SlogP_VSA9>  (49) 
0.0

>  <EState_VSA1>  (49) 
5.41499

>  <EState_VSA10>  (49) 
9.901065

>  <EState_VSA11>  (49) 
0.0

>  <EState_VSA2>  (49) 
11.949021

>  <EState_VSA3>  (49) 
17.515714

>  <EState_VSA4>  (49) 
35.219384

>  <EState_VSA5>  (49) 
0.0

>  <EState_VSA6>  (49) 
17.16312

>  <EState_VSA7>  (49) 
56.312044

>  <EState_VSA8>  (49) 
10.300767

>  <EState_VSA9>  (49) 
4.983979

>  <VSA_EState1>  (49) 
0.0

>  <VSA_EState10>  (49) 
0.0

>  <VSA_EState2>  (49) 
24.405054

>  <VSA_EState3>  (49) 
13.439945

>  <VSA_EState4>  (49) 
2.944502

>  <VSA_EState5>  (49) 
1.416026

>  <VSA_EState6>  (49) 
15.11771

>  <VSA_EState7>  (49) 
3.259795

>  <VSA_EState8>  (49) 
3.833636

>  <VSA_EState9>  (49) 
0.0

>  <FractionCSP3>  (49) 
0.26087

>  <HeavyAtomCount>  (49) 
29

>  <NHOHCount>  (49) 
2

>  <NOCount>  (49) 
6

>  <NumAliphaticCarbocycles>  (49) 
1

>  <NumAliphaticHeterocycles>  (49) 
1

>  <NumAliphaticRings>  (49) 
2

>  <NumAromaticCarbocycles>  (49) 
2

>  <NumAromaticHeterocycles>  (49) 
1

>  <NumAromaticRings>  (49) 
3

>  <NumHAcceptors>  (49) 
5

>  <NumHDonors>  (49) 
2

>  <NumHeteroatoms>  (49) 
6

>  <NumRotatableBonds>  (49) 
3

>  <NumSaturatedCarbocycles>  (49) 
0

>  <NumSaturatedHeterocycles>  (49) 
0

>  <NumSaturatedRings>  (49) 
0

>  <RingCount>  (49) 
5

>  <MolLogP>  (49) 
4.2375

>  <MolMR>  (49) 
111.4375

>  <fr_Al_COO>  (49) 
0

>  <fr_Al_OH>  (49) 
0

>  <fr_Al_OH_noTert>  (49) 
0

>  <fr_ArN>  (49) 
0

>  <fr_Ar_COO>  (49) 
0

>  <fr_Ar_N>  (49) 
2

>  <fr_Ar_NH>  (49) 
0

>  <fr_Ar_OH>  (49) 
1

>  <fr_COO>  (49) 
0

>  <fr_COO2>  (49) 
0

>  <fr_C_O>  (49) 
1

>  <fr_C_O_noCOO>  (49) 
1

>  <fr_C_S>  (49) 
0

>  <fr_HOCCN>  (49) 
0

>  <fr_Imine>  (49) 
0

>  <fr_NH0>  (49) 
3

>  <fr_NH1>  (49) 
1

>  <fr_NH2>  (49) 
0

>  <fr_N_O>  (49) 
0

>  <fr_Ndealkylation1>  (49) 
0

>  <fr_Ndealkylation2>  (49) 
0

>  <fr_Nhpyrrole>  (49) 
0

>  <fr_SH>  (49) 
0

>  <fr_aldehyde>  (49) 
0

>  <fr_alkyl_carbamate>  (49) 
0

>  <fr_alkyl_halide>  (49) 
0

>  <fr_allylic_oxid>  (49) 
0

>  <fr_amide>  (49) 
1

>  <fr_amidine>  (49) 
0

>  <fr_aniline>  (49) 
3

>  <fr_aryl_methyl>  (49) 
0

>  <fr_azide>  (49) 
0

>  <fr_azo>  (49) 
0

>  <fr_barbitur>  (49) 
0

>  <fr_benzene>  (49) 
2

>  <fr_benzodiazepine>  (49) 
0

>  <fr_bicyclic>  (49) 
2

>  <fr_diazo>  (49) 
0

>  <fr_dihydropyridine>  (49) 
0

>  <fr_epoxide>  (49) 
0

>  <fr_ester>  (49) 
0

>  <fr_ether>  (49) 
0

>  <fr_furan>  (49) 
0

>  <fr_guanido>  (49) 
0

>  <fr_halogen>  (49) 
0

>  <fr_hdrzine>  (49) 
0

>  <fr_hdrzone>  (49) 
0

>  <fr_imidazole>  (49) 
0

>  <fr_imide>  (49) 
0

>  <fr_isocyan>  (49) 
0

>  <fr_isothiocyan>  (49) 
0

>  <fr_ketone>  (49) 
0

>  <fr_ketone_Topliss>  (49) 
0

>  <fr_lactam>  (49) 
0

>  <fr_lactone>  (49) 
0

>  <fr_methoxy>  (49) 
0

>  <fr_morpholine>  (49) 
0

>  <fr_nitrile>  (49) 
0

>  <fr_nitro>  (49) 
0

>  <fr_nitro_arom>  (49) 
0

>  <fr_nitro_arom_nonortho>  (49) 
0

>  <fr_nitroso>  (49) 
0

>  <fr_oxazole>  (49) 
0

>  <fr_oxime>  (49) 
0

>  <fr_para_hydroxylation>  (49) 
1

>  <fr_phenol>  (49) 
1

>  <fr_phenol_noOrthoHbond>  (49) 
1

>  <fr_phos_acid>  (49) 
0

>  <fr_phos_ester>  (49) 
0

>  <fr_piperdine>  (49) 
0

>  <fr_piperzine>  (49) 
0

>  <fr_priamide>  (49) 
0

>  <fr_prisulfonamd>  (49) 
0

>  <fr_pyridine>  (49) 
0

>  <fr_quatN>  (49) 
0

>  <fr_sulfide>  (49) 
0

>  <fr_sulfonamd>  (49) 
0

>  <fr_sulfone>  (49) 
0

>  <fr_term_acetylene>  (49) 
0

>  <fr_tetrazole>  (49) 
0

>  <fr_thiazole>  (49) 
0

>  <fr_thiocyan>  (49) 
0

>  <fr_thiophene>  (49) 
0

>  <fr_unbrch_alkane>  (49) 
0

>  <fr_urea>  (49) 
0

>  <NP_Likeness>  (49) 
-0.243656

$$$$
CHEMBL388978
     RDKit          3D

  0  0  0  0  0  0  0  0  0  0999 V3000
M  V30 BEGIN CTAB
M  V30 COUNTS 61 68 0 0 0
M  V30 BEGIN ATOM
M  V30 1 C 3.655712 -2.153289 3.696406 0
M  V30 2 N 3.340911 -0.948655 2.951971 0
M  V30 3 C 1.912493 -0.772310 2.948228 0 CFG=2
M  V30 4 C 1.300597 -1.991046 2.284671 0
M  V30 5 C -0.199194 -1.864910 2.305160 0 CFG=1
M  V30 6 O -0.686553 -0.629326 2.543473 0
M  V30 7 C -0.009284 0.464134 2.022117 0 CFG=1
M  V30 8 C -0.483786 1.629971 2.909106 0
M  V30 9 C 1.474514 0.407567 2.130941 0 CFG=2
M  V30 10 O 2.104558 0.300493 0.890792 0
M  V30 11 C 3.019528 1.335241 0.686860 0
M  V30 12 N -0.472147 0.643319 0.660455 0
M  V30 13 C -0.577975 1.741516 -0.078644 0
M  V30 14 C -0.259103 3.050936 0.191458 0
M  V30 15 C -0.433034 4.058821 -0.706331 0
M  V30 16 C -0.947938 3.822392 -1.962423 0
M  V30 17 C -1.274154 2.521357 -2.257747 0
M  V30 18 C -1.090299 1.520481 -1.336626 0
M  V30 19 C -1.328935 0.179491 -1.411641 0
M  V30 20 C -1.823032 -0.667436 -2.378499 0
M  V30 21 C -1.937881 -2.015201 -2.143006 0
M  V30 22 C -1.559144 -2.523039 -0.940943 0
M  V30 23 C -1.569297 -3.798309 -0.489628 0
M  V30 24 C -1.903681 -5.054046 -0.887086 0
M  V30 25 C -1.782550 -6.204261 -0.142751 0
M  V30 26 C -1.266815 -6.091576 1.152535 0
M  V30 27 C -0.909307 -4.836336 1.610166 0
M  V30 28 C -1.067638 -3.743108 0.790680 0
M  V30 29 N -0.770297 -2.470099 1.085881 0
M  V30 30 C -1.067982 -1.673587 0.018526 0
M  V30 31 C -0.947900 -0.310542 -0.204649 0
M  V30 32 C -2.480723 -2.571873 -3.352683 0
M  V30 33 O -2.792694 -3.711318 -3.720312 0
M  V30 34 N -2.690388 -1.551895 -4.313457 0
M  V30 35 C -2.283263 -0.277043 -3.750628 0
M  V30 36 H 4.640863 -1.964094 4.181277 0
M  V30 37 H 2.855040 -2.379040 4.419483 0
M  V30 38 H 3.733923 -3.008116 2.986170 0
M  V30 39 H 3.850405 -0.117266 3.324886 0
M  V30 40 H 1.469679 -0.675911 3.959764 0
M  V30 41 H 1.671940 -2.084172 1.245326 0
M  V30 42 H 1.677995 -2.891706 2.830274 0
M  V30 43 H -0.540923 -2.520590 3.134536 0
M  V30 44 H -1.361076 2.144777 2.494956 0
M  V30 45 H 0.351803 2.282385 3.225204 0
M  V30 46 H -0.866167 1.230349 3.907697 0
M  V30 47 H 1.902707 1.325224 2.616975 0
M  V30 48 H 3.820817 1.363873 1.436823 0
M  V30 49 H 2.518081 2.343873 0.634673 0
M  V30 50 H 3.476856 1.196018 -0.300507 0
M  V30 51 H 0.155702 3.300493 1.142750 0
M  V30 52 H -0.171654 5.088268 -0.464587 0
M  V30 53 H -1.093698 4.604561 -2.687125 0
M  V30 54 H -1.679440 2.309342 -3.235813 0
M  V30 55 H -2.301377 -5.222299 -1.855250 0
M  V30 56 H -2.052444 -7.178881 -0.478118 0
M  V30 57 H -1.128005 -6.925285 1.824324 0
M  V30 58 H -0.511540 -4.741059 2.606009 0
M  V30 59 H -3.055079 -1.528944 -5.283854 0
M  V30 60 H -1.446511 0.155931 -4.305303 0
M  V30 61 H -3.139031 0.415140 -3.727510 0
M  V30 END ATOM
M  V30 BEGIN BOND
M  V30 1 1 1 2
M  V30 2 1 2 3
M  V30 3 1 3 4
M  V30 4 1 4 5
M  V30 5 1 5 6
M  V30 6 1 6 7
M  V30 7 1 7 8 CFG=1
M  V30 8 1 7 9
M  V30 9 1 9 10
M  V30 10 1 10 11
M  V30 11 1 7 12
M  V30 12 1 12 13
M  V30 13 2 13 14
M  V30 14 1 14 15
M  V30 15 2 15 16
M  V30 16 1 16 17
M  V30 17 2 17 18
M  V30 18 1 18 19
M  V30 19 2 19 20
M  V30 20 1 20 21
M  V30 21 2 21 22
M  V30 22 1 22 23
M  V30 23 2 23 24
M  V30 24 1 24 25
M  V30 25 2 25 26
M  V30 26 1 26 27
M  V30 27 2 27 28
M  V30 28 1 28 29
M  V30 29 1 29 30
M  V30 30 2 30 31
M  V30 31 1 21 32
M  V30 32 2 32 33
M  V30 33 1 32 34
M  V30 34 1 34 35
M  V30 35 1 9 3
M  V30 36 1 31 12
M  V30 37 1 29 5
M  V30 38 1 18 13
M  V30 39 1 31 19
M  V30 40 1 35 20
M  V30 41 1 30 22
M  V30 42 1 28 23
M  V30 43 1 1 36
M  V30 44 1 1 37
M  V30 45 1 1 38
M  V30 46 1 2 39
M  V30 47 1 3 40 CFG=1
M  V30 48 1 4 41
M  V30 49 1 4 42
M  V30 50 1 5 43 CFG=1
M  V30 51 1 8 44
M  V30 52 1 8 45
M  V30 53 1 8 46
M  V30 54 1 9 47 CFG=1
M  V30 55 1 11 48
M  V30 56 1 11 49
M  V30 57 1 11 50
M  V30 58 1 14 51
M  V30 59 1 15 52
M  V30 60 1 16 53
M  V30 61 1 17 54
M  V30 62 1 24 55
M  V30 63 1 25 56
M  V30 64 1 26 57
M  V30 65 1 27 58
M  V30 66 1 34 59
M  V30 67 1 35 60
M  V30 68 1 35 61
M  V30 END BOND
M  V30 END CTAB
M  END
>  <Dataset>  (50) 
ChEMBL_PKA

>  <Ligand_Instance>  (50) 
nan

>  <PDB_ID>  (50) 
nan

>  <Standardized_SMILES>  (50) 
CN[C@@H]1C[C@H]2O[C@@](C)([C@@H]1OC)n1c3ccccc3c3c4c(c5c6ccccc6n2c5c31)C(=O)NC4

>  <Name>  (50) 
STAUROSPORINE

>  <Pocket>  (50) 
nan

>  <ATP_Site>  (50) 
nan

>  <Peripheral>  (50) 
nan

>  <Num_H_Atoms_ProtBoundConf>  (50) 
nan

>  <Num_Resolved_Atoms>  (50) 
nan

>  <Num_Not_Resolved_Atoms>  (50) 
nan

>  <2D_Mol_H>  (50) 
<rdkit.Chem.rdchem.Mol object at 0x72a239110190>

>  <MW>  (50) 
466.541

>  <HBA>  (50) 
6

>  <HBD>  (50) 
2

>  <LogP>  (50) 
4.354

>  <NRB>  (50) 
5

>  <TPSA>  (50) 
69.45

>  <Num_Heavy_Atoms>  (50) 
35

>  <Ro5>  (50) 
[True, True, True, True, True, True]

>  <Ro5_Fulfilled>  (50) 
True

>  <Ro3>  (50) 
[False, False, True, False]

>  <Ro3_Fulfilled>  (50) 
False

>  <Fsp3>  (50) 
0.321429

>  <Fsp3_0.42>  (50) 
False

>  <Fsp3_0.45>  (50) 
False

>  <Stereogenic_Carbons>  (50) 
4

>  <C_Atoms>  (50) 
28

>  <FCStereo>  (50) 
0.142857

>  <SPS>  (50) 
955

>  <nSPS>  (50) 
27.285714

>  <PBF>  (50) 
0.844321

>  <PBF_0.6>  (50) 
True

>  <nPBF>  (50) 
0.024123

>  <nPBF_0.016>  (50) 
True

>  <PMI1>  (50) 
3310.378265

>  <PMI2>  (50) 
3816.406731

>  <PMI3>  (50) 
6392.375898

>  <NPR1>  (50) 
0.517864

>  <NPR2>  (50) 
0.597025

>  <Sum_NPR>  (50) 
1.114888

>  <Sum_NPR_1.07>  (50) 
True

>  <Sum_NPR_1.2>  (50) 
False

>  <MaxAbsEStateIndex>  (50) 
13.322081

>  <MaxEStateIndex>  (50) 
13.322081

>  <MinAbsEStateIndex>  (50) 
0.003567

>  <MinEStateIndex>  (50) 
-0.759892

>  <qed>  (50) 
0.405842

>  <MolWt>  (50) 
466.541

>  <HeavyAtomMolWt>  (50) 
440.333

>  <ExactMolWt>  (50) 
466.200491

>  <NumValenceElectrons>  (50) 
176

>  <NumRadicalElectrons>  (50) 
0

>  <MaxPartialCharge>  (50) 
0.252133

>  <MinPartialCharge>  (50) 
-0.374791

>  <MaxAbsPartialCharge>  (50) 
0.374791

>  <MinAbsPartialCharge>  (50) 
0.252133

>  <FpDensityMorgan1>  (50) 
1.057143

>  <FpDensityMorgan2>  (50) 
1.771429

>  <FpDensityMorgan3>  (50) 
2.514286

>  <BCUT2D_MWHI>  (50) 
16.577317

>  <BCUT2D_MWLOW>  (50) 
9.926623

>  <BCUT2D_CHGHI>  (50) 
2.525614

>  <BCUT2D_CHGLO>  (50) 
-2.479499

>  <BCUT2D_LOGPHI>  (50) 
2.530993

>  <BCUT2D_LOGPLOW>  (50) 
-2.592613

>  <BCUT2D_MRHI>  (50) 
6.305082

>  <BCUT2D_MRLOW>  (50) 
-0.255657

>  <AvgIpc>  (50) 
3.508144

>  <BalabanJ>  (50) 
1.722908

>  <BertzCT>  (50) 
1748.012575

>  <Chi0>  (50) 
23.637099

>  <Chi0n>  (50) 
19.884239

>  <Chi0v>  (50) 
19.884239

>  <Chi1>  (50) 
17.079865

>  <Chi1n>  (50) 
12.253121

>  <Chi1v>  (50) 
12.253121

>  <Chi2n>  (50) 
10.137473

>  <Chi2v>  (50) 
10.137473

>  <Chi3n>  (50) 
8.59624

>  <Chi3v>  (50) 
8.59624

>  <Chi4n>  (50) 
7.334287

>  <Chi4v>  (50) 
7.334287

>  <HallKierAlpha>  (50) 
-3.39

>  <Ipc>  (50) 
283668581.964229

>  <Kappa1>  (50) 
19.867881

>  <Kappa2>  (50) 
6.428959

>  <Kappa3>  (50) 
2.124024

>  <LabuteASA>  (50) 
201.11659

>  <PEOE_VSA1>  (50) 
29.241502

>  <PEOE_VSA10>  (50) 
12.331868

>  <PEOE_VSA11>  (50) 
5.724986

>  <PEOE_VSA12>  (50) 
0.0

>  <PEOE_VSA13>  (50) 
5.90718

>  <PEOE_VSA14>  (50) 
0.0

>  <PEOE_VSA2>  (50) 
4.794537

>  <PEOE_VSA3>  (50) 
0.0

>  <PEOE_VSA4>  (50) 
0.0

>  <PEOE_VSA5>  (50) 
0.0

>  <PEOE_VSA6>  (50) 
36.398202

>  <PEOE_VSA7>  (50) 
31.667595

>  <PEOE_VSA8>  (50) 
47.662113

>  <PEOE_VSA9>  (50) 
27.630254

>  <SMR_VSA1>  (50) 
14.268263

>  <SMR_VSA10>  (50) 
49.518879

>  <SMR_VSA2>  (50) 
0.0

>  <SMR_VSA3>  (50) 
19.767777

>  <SMR_VSA4>  (50) 
0.0

>  <SMR_VSA5>  (50) 
43.988009

>  <SMR_VSA6>  (50) 
14.15747

>  <SMR_VSA7>  (50) 
59.65784

>  <SMR_VSA8>  (50) 
0.0

>  <SMR_VSA9>  (50) 
0.0

>  <SlogP_VSA1>  (50) 
10.633577

>  <SlogP_VSA10>  (50) 
0.0

>  <SlogP_VSA11>  (50) 
0.0

>  <SlogP_VSA12>  (50) 
0.0

>  <SlogP_VSA2>  (50) 
41.344656

>  <SlogP_VSA3>  (50) 
21.743468

>  <SlogP_VSA4>  (50) 
0.0

>  <SlogP_VSA5>  (50) 
35.4939

>  <SlogP_VSA6>  (50) 
48.530937

>  <SlogP_VSA7>  (50) 
0.0

>  <SlogP_VSA8>  (50) 
43.6117

>  <SlogP_VSA9>  (50) 
0.0

>  <EState_VSA1>  (50) 
5.724986

>  <EState_VSA10>  (50) 
4.794537

>  <EState_VSA11>  (50) 
0.0

>  <EState_VSA2>  (50) 
24.280888

>  <EState_VSA3>  (50) 
6.544756

>  <EState_VSA4>  (50) 
61.159424

>  <EState_VSA5>  (50) 
0.0

>  <EState_VSA6>  (50) 
7.109798

>  <EState_VSA7>  (50) 
7.047672

>  <EState_VSA8>  (50) 
75.22245

>  <EState_VSA9>  (50) 
9.473726

>  <VSA_EState1>  (50) 
17.957797

>  <VSA_EState10>  (50) 
0.0

>  <VSA_EState2>  (50) 
13.322081

>  <VSA_EState3>  (50) 
11.034435

>  <VSA_EState4>  (50) 
5.50762

>  <VSA_EState5>  (50) 
0.003567

>  <VSA_EState6>  (50) 
16.969735

>  <VSA_EState7>  (50) 
0.336712

>  <VSA_EState8>  (50) 
2.683142

>  <VSA_EState9>  (50) 
3.768244

>  <FractionCSP3>  (50) 
0.321429

>  <HeavyAtomCount>  (50) 
35

>  <NHOHCount>  (50) 
2

>  <NOCount>  (50) 
7

>  <NumAliphaticCarbocycles>  (50) 
0

>  <NumAliphaticHeterocycles>  (50) 
3

>  <NumAliphaticRings>  (50) 
3

>  <NumAromaticCarbocycles>  (50) 
3

>  <NumAromaticHeterocycles>  (50) 
2

>  <NumAromaticRings>  (50) 
5

>  <NumHAcceptors>  (50) 
6

>  <NumHDonors>  (50) 
2

>  <NumHeteroatoms>  (50) 
7

>  <NumRotatableBonds>  (50) 
2

>  <NumSaturatedCarbocycles>  (50) 
0

>  <NumSaturatedHeterocycles>  (50) 
1

>  <NumSaturatedRings>  (50) 
1

>  <RingCount>  (50) 
8

>  <MolLogP>  (50) 
4.354

>  <MolMR>  (50) 
135.6479

>  <fr_Al_COO>  (50) 
0

>  <fr_Al_OH>  (50) 
0

>  <fr_Al_OH_noTert>  (50) 
0

>  <fr_ArN>  (50) 
0

>  <fr_Ar_COO>  (50) 
0

>  <fr_Ar_N>  (50) 
2

>  <fr_Ar_NH>  (50) 
0

>  <fr_Ar_OH>  (50) 
0

>  <fr_COO>  (50) 
0

>  <fr_COO2>  (50) 
0

>  <fr_C_O>  (50) 
1

>  <fr_C_O_noCOO>  (50) 
1

>  <fr_C_S>  (50) 
0

>  <fr_HOCCN>  (50) 
0

>  <fr_Imine>  (50) 
0

>  <fr_NH0>  (50) 
2

>  <fr_NH1>  (50) 
2

>  <fr_NH2>  (50) 
0

>  <fr_N_O>  (50) 
0

>  <fr_Ndealkylation1>  (50) 
1

>  <fr_Ndealkylation2>  (50) 
0

>  <fr_Nhpyrrole>  (50) 
0

>  <fr_SH>  (50) 
0

>  <fr_aldehyde>  (50) 
0

>  <fr_alkyl_carbamate>  (50) 
0

>  <fr_alkyl_halide>  (50) 
0

>  <fr_allylic_oxid>  (50) 
0

>  <fr_amide>  (50) 
1

>  <fr_amidine>  (50) 
0

>  <fr_aniline>  (50) 
0

>  <fr_aryl_methyl>  (50) 
0

>  <fr_azide>  (50) 
0

>  <fr_azo>  (50) 
0

>  <fr_barbitur>  (50) 
0

>  <fr_benzene>  (50) 
3

>  <fr_benzodiazepine>  (50) 
0

>  <fr_bicyclic>  (50) 
13

>  <fr_diazo>  (50) 
0

>  <fr_dihydropyridine>  (50) 
0

>  <fr_epoxide>  (50) 
0

>  <fr_ester>  (50) 
0

>  <fr_ether>  (50) 
2

>  <fr_furan>  (50) 
0

>  <fr_guanido>  (50) 
0

>  <fr_halogen>  (50) 
0

>  <fr_hdrzine>  (50) 
0

>  <fr_hdrzone>  (50) 
0

>  <fr_imidazole>  (50) 
0

>  <fr_imide>  (50) 
0

>  <fr_isocyan>  (50) 
0

>  <fr_isothiocyan>  (50) 
0

>  <fr_ketone>  (50) 
0

>  <fr_ketone_Topliss>  (50) 
0

>  <fr_lactam>  (50) 
0

>  <fr_lactone>  (50) 
0

>  <fr_methoxy>  (50) 
1

>  <fr_morpholine>  (50) 
0

>  <fr_nitrile>  (50) 
0

>  <fr_nitro>  (50) 
0

>  <fr_nitro_arom>  (50) 
0

>  <fr_nitro_arom_nonortho>  (50) 
0

>  <fr_nitroso>  (50) 
0

>  <fr_oxazole>  (50) 
0

>  <fr_oxime>  (50) 
0

>  <fr_para_hydroxylation>  (50) 
2

>  <fr_phenol>  (50) 
0

>  <fr_phenol_noOrthoHbond>  (50) 
0

>  <fr_phos_acid>  (50) 
0

>  <fr_phos_ester>  (50) 
0

>  <fr_piperdine>  (50) 
0

>  <fr_piperzine>  (50) 
0

>  <fr_priamide>  (50) 
0

>  <fr_prisulfonamd>  (50) 
0

>  <fr_pyridine>  (50) 
0

>  <fr_quatN>  (50) 
0

>  <fr_sulfide>  (50) 
0

>  <fr_sulfonamd>  (50) 
0

>  <fr_sulfone>  (50) 
0

>  <fr_term_acetylene>  (50) 
0

>  <fr_tetrazole>  (50) 
0

>  <fr_thiazole>  (50) 
0

>  <fr_thiocyan>  (50) 
0

>  <fr_thiophene>  (50) 
0

>  <fr_unbrch_alkane>  (50) 
0

>  <fr_urea>  (50) 
0

>  <NP_Likeness>  (50) 
1.292475

$$$$
CHEMBL3942454
     RDKit          3D

  0  0  0  0  0  0  0  0  0  0999 V3000
M  V30 BEGIN CTAB
M  V30 COUNTS 38 40 0 0 0
M  V30 BEGIN ATOM
M  V30 1 N 2.048299 -3.537023 -1.189197 0
M  V30 2 C 1.808518 -2.189338 -0.754165 0
M  V30 3 C 1.077274 -2.109224 0.543696 0 CFG=2
M  V30 4 O 1.836504 -2.747595 1.516984 0
M  V30 5 C -0.260946 -2.750687 0.477825 0
M  V30 6 C -1.014864 -2.857812 1.626914 0
M  V30 7 C -2.259456 -3.437777 1.646432 0
M  V30 8 C -2.821214 -3.946234 0.505420 0
M  V30 9 Cl -4.387751 -4.716586 0.341543 0
M  V30 10 C -2.090004 -3.857749 -0.681180 0
M  V30 11 C -0.847824 -3.269425 -0.656457 0
M  V30 12 C 0.963941 -0.657536 0.920748 0
M  V30 13 C 0.294156 0.096994 -0.052409 0
M  V30 14 C 0.116099 1.470087 0.169264 0
M  V30 15 C 0.611158 2.039055 1.350062 0
M  V30 16 C 0.425045 3.474070 1.580950 0
M  V30 17 C 0.268371 4.144511 2.778546 0
M  V30 18 N 0.126139 5.478189 2.518228 0
M  V30 19 N 0.188881 5.663170 1.194930 0
M  V30 20 C 0.371663 4.448073 0.603888 0
M  V30 21 C 1.267661 1.270184 2.291934 0
M  V30 22 C 1.448648 -0.087499 2.082374 0
M  V30 23 H 1.994902 -3.650400 -2.236723 0
M  V30 24 H 3.040374 -3.822999 -0.928825 0
M  V30 25 H 1.317074 -1.639996 -1.580507 0
M  V30 26 H 2.794732 -1.677527 -0.602492 0
M  V30 27 H 1.446536 -2.706847 2.424982 0
M  V30 28 H -0.643555 -2.478851 2.582093 0
M  V30 29 H -2.887220 -3.540697 2.537589 0
M  V30 30 H -2.436207 -4.229145 -1.654056 0
M  V30 31 H -0.268568 -3.197455 -1.588901 0
M  V30 32 H -0.096449 -0.302389 -0.964310 0
M  V30 33 H -0.405741 2.056999 -0.589208 0
M  V30 34 H 0.274497 3.593343 3.707640 0
M  V30 35 H 0.114176 6.574246 0.668686 0
M  V30 36 H 0.454931 4.336311 -0.488241 0
M  V30 37 H 1.656528 1.703053 3.213674 0
M  V30 38 H 1.948411 -0.758628 2.764448 0
M  V30 END ATOM
M  V30 BEGIN BOND
M  V30 1 1 1 2
M  V30 2 1 2 3
M  V30 3 1 3 4 CFG=1
M  V30 4 1 3 5
M  V30 5 2 5 6
M  V30 6 1 6 7
M  V30 7 2 7 8
M  V30 8 1 8 9
M  V30 9 1 8 10
M  V30 10 2 10 11
M  V30 11 1 3 12
M  V30 12 2 12 13
M  V30 13 1 13 14
M  V30 14 2 14 15
M  V30 15 1 15 16
M  V30 16 1 16 17
M  V30 17 2 17 18
M  V30 18 1 18 19
M  V30 19 1 19 20
M  V30 20 1 15 21
M  V30 21 2 21 22
M  V30 22 1 11 5
M  V30 23 1 22 12
M  V30 24 2 20 16
M  V30 25 1 1 23
M  V30 26 1 1 24
M  V30 27 1 2 25
M  V30 28 1 2 26
M  V30 29 1 4 27
M  V30 30 1 6 28
M  V30 31 1 7 29
M  V30 32 1 10 30
M  V30 33 1 11 31
M  V30 34 1 13 32
M  V30 35 1 14 33
M  V30 36 1 17 34
M  V30 37 1 19 35
M  V30 38 1 20 36
M  V30 39 1 21 37
M  V30 40 1 22 38
M  V30 END BOND
M  V30 END CTAB
M  END
>  <Dataset>  (51) 
ChEMBL_PKA

>  <Ligand_Instance>  (51) 
nan

>  <PDB_ID>  (51) 
nan

>  <Standardized_SMILES>  (51) 
NC[C@](O)(c1ccc(Cl)cc1)c1ccc(-c2cn[nH]c2)cc1

>  <Name>  (51) 
nan

>  <Pocket>  (51) 
nan

>  <ATP_Site>  (51) 
nan

>  <Peripheral>  (51) 
nan

>  <Num_H_Atoms_ProtBoundConf>  (51) 
nan

>  <Num_Resolved_Atoms>  (51) 
nan

>  <Num_Not_Resolved_Atoms>  (51) 
nan

>  <2D_Mol_H>  (51) 
<rdkit.Chem.rdchem.Mol object at 0x72a239110270>

>  <MW>  (51) 
313.788

>  <HBA>  (51) 
3

>  <HBD>  (51) 
3

>  <LogP>  (51) 
2.9247

>  <NRB>  (51) 
6

>  <TPSA>  (51) 
74.93

>  <Num_Heavy_Atoms>  (51) 
22

>  <Ro5>  (51) 
[True, True, True, True, True, True]

>  <Ro5_Fulfilled>  (51) 
True

>  <Ro3>  (51) 
[False, True, True, True]

>  <Ro3_Fulfilled>  (51) 
True

>  <Fsp3>  (51) 
0.117647

>  <Fsp3_0.42>  (51) 
False

>  <Fsp3_0.45>  (51) 
False

>  <Stereogenic_Carbons>  (51) 
1

>  <C_Atoms>  (51) 
17

>  <FCStereo>  (51) 
0.058824

>  <SPS>  (51) 
303

>  <nSPS>  (51) 
13.772727

>  <PBF>  (51) 
1.147405

>  <PBF_0.6>  (51) 
True

>  <nPBF>  (51) 
0.052155

>  <nPBF_0.016>  (51) 
True

>  <PMI1>  (51) 
1157.762358

>  <PMI2>  (51) 
4288.984603

>  <PMI3>  (51) 
4898.874324

>  <NPR1>  (51) 
0.236332

>  <NPR2>  (51) 
0.875504

>  <Sum_NPR>  (51) 
1.111836

>  <Sum_NPR_1.07>  (51) 
True

>  <Sum_NPR_1.2>  (51) 
False

>  <MaxAbsEStateIndex>  (51) 
10.988435

>  <MaxEStateIndex>  (51) 
10.988435

>  <MinAbsEStateIndex>  (51) 
0.083025

>  <MinEStateIndex>  (51) 
-1.236592

>  <qed>  (51) 
0.692988

>  <MolWt>  (51) 
313.788

>  <HeavyAtomMolWt>  (51) 
297.66

>  <ExactMolWt>  (51) 
313.09819

>  <NumValenceElectrons>  (51) 
112

>  <NumRadicalElectrons>  (51) 
0

>  <MaxPartialCharge>  (51) 
0.126748

>  <MinPartialCharge>  (51) 
-0.379053

>  <MaxAbsPartialCharge>  (51) 
0.379053

>  <MinAbsPartialCharge>  (51) 
0.126748

>  <FpDensityMorgan1>  (51) 
1.0

>  <FpDensityMorgan2>  (51) 
1.590909

>  <FpDensityMorgan3>  (51) 
2.090909

>  <BCUT2D_MWHI>  (51) 
35.495691

>  <BCUT2D_MWLOW>  (51) 
9.855888

>  <BCUT2D_CHGHI>  (51) 
2.294051

>  <BCUT2D_CHGLO>  (51) 
-2.276607

>  <BCUT2D_LOGPHI>  (51) 
2.306502

>  <BCUT2D_LOGPLOW>  (51) 
-2.355647

>  <BCUT2D_MRHI>  (51) 
6.300939

>  <BCUT2D_MRLOW>  (51) 
0.090244

>  <AvgIpc>  (51) 
3.093014

>  <BalabanJ>  (51) 
1.977146

>  <BertzCT>  (51) 
738.589932

>  <Chi0>  (51) 
15.57914

>  <Chi0n>  (51) 
11.830351

>  <Chi0v>  (51) 
12.58628

>  <Chi1>  (51) 
10.631177

>  <Chi1n>  (51) 
6.914956

>  <Chi1v>  (51) 
7.292921

>  <Chi2n>  (51) 
5.135619

>  <Chi2v>  (51) 
5.572055

>  <Chi3n>  (51) 
3.811211

>  <Chi3v>  (51) 
4.063188

>  <Chi4n>  (51) 
2.475133

>  <Chi4v>  (51) 
2.601121

>  <HallKierAlpha>  (51) 
-2.14

>  <Ipc>  (51) 
173654.206016

>  <Kappa1>  (51) 
14.782991

>  <Kappa2>  (51) 
5.926702

>  <Kappa3>  (51) 
2.639121

>  <LabuteASA>  (51) 
133.110128

>  <PEOE_VSA1>  (51) 
10.840195

>  <PEOE_VSA10>  (51) 
5.601051

>  <PEOE_VSA11>  (51) 
0.0

>  <PEOE_VSA12>  (51) 
0.0

>  <PEOE_VSA13>  (51) 
0.0

>  <PEOE_VSA14>  (51) 
0.0

>  <PEOE_VSA2>  (51) 
5.098682

>  <PEOE_VSA3>  (51) 
0.0

>  <PEOE_VSA4>  (51) 
5.098682

>  <PEOE_VSA5>  (51) 
0.0

>  <PEOE_VSA6>  (51) 
47.999142

>  <PEOE_VSA7>  (51) 
28.823089

>  <PEOE_VSA8>  (51) 
23.327685

>  <PEOE_VSA9>  (51) 
6.196844

>  <SMR_VSA1>  (51) 
5.106527

>  <SMR_VSA10>  (51) 
11.60094

>  <SMR_VSA2>  (51) 
0.0

>  <SMR_VSA3>  (51) 
10.197364

>  <SMR_VSA4>  (51) 
5.733667

>  <SMR_VSA5>  (51) 
5.601051

>  <SMR_VSA6>  (51) 
6.544756

>  <SMR_VSA7>  (51) 
77.07416

>  <SMR_VSA8>  (51) 
0.0

>  <SMR_VSA9>  (51) 
11.126903

>  <SlogP_VSA1>  (51) 
5.733667

>  <SlogP_VSA10>  (51) 
0.0

>  <SlogP_VSA11>  (51) 
0.0

>  <SlogP_VSA12>  (51) 
11.60094

>  <SlogP_VSA2>  (51) 
21.848647

>  <SlogP_VSA3>  (51) 
5.601051

>  <SlogP_VSA4>  (51) 
0.0

>  <SlogP_VSA5>  (51) 
11.126903

>  <SlogP_VSA6>  (51) 
60.924624

>  <SlogP_VSA7>  (51) 
5.022633

>  <SlogP_VSA8>  (51) 
11.126903

>  <SlogP_VSA9>  (51) 
0.0

>  <EState_VSA1>  (51) 
5.601051

>  <EState_VSA10>  (51) 
5.106527

>  <EState_VSA11>  (51) 
0.0

>  <EState_VSA2>  (51) 
6.544756

>  <EState_VSA3>  (51) 
5.022633

>  <EState_VSA4>  (51) 
22.253806

>  <EState_VSA5>  (51) 
0.0

>  <EState_VSA6>  (51) 
30.462312

>  <EState_VSA7>  (51) 
30.462312

>  <EState_VSA8>  (51) 
10.197364

>  <EState_VSA9>  (51) 
17.334607

>  <VSA_EState1>  (51) 
0.0

>  <VSA_EState10>  (51) 
5.907036

>  <VSA_EState2>  (51) 
0.0

>  <VSA_EState3>  (51) 
18.330327

>  <VSA_EState4>  (51) 
8.081582

>  <VSA_EState5>  (51) 
0.0

>  <VSA_EState6>  (51) 
14.716423

>  <VSA_EState7>  (51) 
3.576052

>  <VSA_EState8>  (51) 
0.083025

>  <VSA_EState9>  (51) 
0.0

>  <FractionCSP3>  (51) 
0.117647

>  <HeavyAtomCount>  (51) 
22

>  <NHOHCount>  (51) 
4

>  <NOCount>  (51) 
4

>  <NumAliphaticCarbocycles>  (51) 
0

>  <NumAliphaticHeterocycles>  (51) 
0

>  <NumAliphaticRings>  (51) 
0

>  <NumAromaticCarbocycles>  (51) 
2

>  <NumAromaticHeterocycles>  (51) 
1

>  <NumAromaticRings>  (51) 
3

>  <NumHAcceptors>  (51) 
3

>  <NumHDonors>  (51) 
3

>  <NumHeteroatoms>  (51) 
5

>  <NumRotatableBonds>  (51) 
4

>  <NumSaturatedCarbocycles>  (51) 
0

>  <NumSaturatedHeterocycles>  (51) 
0

>  <NumSaturatedRings>  (51) 
0

>  <RingCount>  (51) 
3

>  <MolLogP>  (51) 
2.9247

>  <MolMR>  (51) 
87.5289

>  <fr_Al_COO>  (51) 
0

>  <fr_Al_OH>  (51) 
1

>  <fr_Al_OH_noTert>  (51) 
0

>  <fr_ArN>  (51) 
0

>  <fr_Ar_COO>  (51) 
0

>  <fr_Ar_N>  (51) 
2

>  <fr_Ar_NH>  (51) 
1

>  <fr_Ar_OH>  (51) 
0

>  <fr_COO>  (51) 
0

>  <fr_COO2>  (51) 
0

>  <fr_C_O>  (51) 
0

>  <fr_C_O_noCOO>  (51) 
0

>  <fr_C_S>  (51) 
0

>  <fr_HOCCN>  (51) 
0

>  <fr_Imine>  (51) 
0

>  <fr_NH0>  (51) 
1

>  <fr_NH1>  (51) 
1

>  <fr_NH2>  (51) 
1

>  <fr_N_O>  (51) 
0

>  <fr_Ndealkylation1>  (51) 
0

>  <fr_Ndealkylation2>  (51) 
0

>  <fr_Nhpyrrole>  (51) 
1

>  <fr_SH>  (51) 
0

>  <fr_aldehyde>  (51) 
0

>  <fr_alkyl_carbamate>  (51) 
0

>  <fr_alkyl_halide>  (51) 
0

>  <fr_allylic_oxid>  (51) 
0

>  <fr_amide>  (51) 
0

>  <fr_amidine>  (51) 
0

>  <fr_aniline>  (51) 
0

>  <fr_aryl_methyl>  (51) 
0

>  <fr_azide>  (51) 
0

>  <fr_azo>  (51) 
0

>  <fr_barbitur>  (51) 
0

>  <fr_benzene>  (51) 
2

>  <fr_benzodiazepine>  (51) 
0

>  <fr_bicyclic>  (51) 
0

>  <fr_diazo>  (51) 
0

>  <fr_dihydropyridine>  (51) 
0

>  <fr_epoxide>  (51) 
0

>  <fr_ester>  (51) 
0

>  <fr_ether>  (51) 
0

>  <fr_furan>  (51) 
0

>  <fr_guanido>  (51) 
0

>  <fr_halogen>  (51) 
1

>  <fr_hdrzine>  (51) 
0

>  <fr_hdrzone>  (51) 
0

>  <fr_imidazole>  (51) 
0

>  <fr_imide>  (51) 
0

>  <fr_isocyan>  (51) 
0

>  <fr_isothiocyan>  (51) 
0

>  <fr_ketone>  (51) 
0

>  <fr_ketone_Topliss>  (51) 
0

>  <fr_lactam>  (51) 
0

>  <fr_lactone>  (51) 
0

>  <fr_methoxy>  (51) 
0

>  <fr_morpholine>  (51) 
0

>  <fr_nitrile>  (51) 
0

>  <fr_nitro>  (51) 
0

>  <fr_nitro_arom>  (51) 
0

>  <fr_nitro_arom_nonortho>  (51) 
0

>  <fr_nitroso>  (51) 
0

>  <fr_oxazole>  (51) 
0

>  <fr_oxime>  (51) 
0

>  <fr_para_hydroxylation>  (51) 
0

>  <fr_phenol>  (51) 
0

>  <fr_phenol_noOrthoHbond>  (51) 
0

>  <fr_phos_acid>  (51) 
0

>  <fr_phos_ester>  (51) 
0

>  <fr_piperdine>  (51) 
0

>  <fr_piperzine>  (51) 
0

>  <fr_priamide>  (51) 
0

>  <fr_prisulfonamd>  (51) 
0

>  <fr_pyridine>  (51) 
0

>  <fr_quatN>  (51) 
0

>  <fr_sulfide>  (51) 
0

>  <fr_sulfonamd>  (51) 
0

>  <fr_sulfone>  (51) 
0

>  <fr_term_acetylene>  (51) 
0

>  <fr_tetrazole>  (51) 
0

>  <fr_thiazole>  (51) 
0

>  <fr_thiocyan>  (51) 
0

>  <fr_thiophene>  (51) 
0

>  <fr_unbrch_alkane>  (51) 
0

>  <fr_urea>  (51) 
0

>  <NP_Likeness>  (51) 
-1.01226

$$$$
CHEMBL4080906
     RDKit          3D

  0  0  0  0  0  0  0  0  0  0999 V3000
M  V30 BEGIN CTAB
M  V30 COUNTS 71 77 0 0 0
M  V30 BEGIN ATOM
M  V30 1 C 6.598417 0.611846 0.746371 0
M  V30 2 N 6.072138 -0.678042 0.421404 0
M  V30 3 C 5.786123 -1.438793 1.646279 0
M  V30 4 C 4.826863 -0.611171 -0.313017 0 CFG=1
M  V30 5 C 3.732007 0.113424 0.475717 0
M  V30 6 C 2.438010 -0.303093 -0.150765 0 CFG=1
M  V30 7 C 2.139492 -1.698503 0.388073 0
M  V30 8 C 0.603861 -1.709509 0.422515 0
M  V30 9 C 0.258257 -0.375399 -0.100128 0 CFG=1
M  V30 10 O 1.355113 0.418315 0.283585 0
M  V30 11 C 0.111762 -0.323608 -1.603334 0
M  V30 12 C -1.036411 -0.102642 -2.161703 0
M  V30 13 C -2.356473 0.131381 -1.544855 0
M  V30 14 C -2.255414 -0.320341 -0.087522 0 CFG=2
M  V30 15 C -2.360202 -1.799906 -0.104021 0
M  V30 16 C -3.265221 0.381947 0.790210 0 CFG=1
M  V30 17 C -4.361515 -0.472532 1.261181 0
M  V30 18 C -4.227123 -1.493846 2.194060 0
M  V30 19 C -5.257891 -2.294545 2.628793 0
M  V30 20 C -6.521225 -2.092764 2.121779 0
M  V30 21 C -7.597753 -2.860309 2.515440 0
M  V30 22 C -8.850069 -2.596460 1.956791 0
M  V30 23 N -9.036430 -1.618238 1.048451 0
M  V30 24 C -7.998275 -0.835635 0.631537 0
M  V30 25 C -6.762479 -1.104133 1.189959 0
M  V30 26 C -5.679674 -0.341672 0.802319 0
M  V30 27 C -2.505343 1.073658 1.861065 0
M  V30 28 C -1.159960 0.376859 1.857367 0
M  V30 29 C -0.967954 0.257428 0.396713 0 CFG=1
M  V30 30 C 1.372610 -0.533636 -2.307948 0
M  V30 31 C 2.484160 -0.285741 -1.619700 0
M  V30 32 C 3.707196 -0.008131 -2.416988 0 CFG=1
M  V30 33 O 3.557292 1.141399 -3.186295 0
M  V30 34 C 4.952224 0.118474 -1.609727 0 CFG=2
M  V30 35 O 6.023483 -0.443768 -2.324513 0
M  V30 36 H 7.528748 0.431821 1.346223 0
M  V30 37 H 5.948733 1.243764 1.366756 0
M  V30 38 H 6.888390 1.097881 -0.215724 0
M  V30 39 H 5.553327 -0.744036 2.478769 0
M  V30 40 H 4.903051 -2.088599 1.505441 0
M  V30 41 H 6.634658 -2.071394 1.940053 0
M  V30 42 H 4.449980 -1.635579 -0.504409 0
M  V30 43 H 3.751250 -0.280502 1.514338 0
M  V30 44 H 3.893204 1.205235 0.474486 0
M  V30 45 H 2.556841 -2.418919 -0.316058 0
M  V30 46 H 2.519604 -1.809646 1.427749 0
M  V30 47 H 0.250828 -1.832404 1.467486 0
M  V30 48 H 0.309701 -2.576673 -0.170723 0
M  V30 49 H -1.006519 -0.090652 -3.261680 0
M  V30 50 H -2.572196 1.234504 -1.574904 0
M  V30 51 H -3.188800 -0.409947 -2.007786 0
M  V30 52 H -1.965019 -2.345421 0.743885 0
M  V30 53 H -3.464770 -2.035917 -0.129595 0
M  V30 54 H -2.015650 -2.194770 -1.093054 0
M  V30 55 H -3.760943 1.177574 0.150783 0
M  V30 56 H -3.279023 -1.689165 2.617814 0
M  V30 57 H -5.103210 -3.068213 3.349097 0
M  V30 58 H -7.476267 -3.660488 3.250375 0
M  V30 59 H -9.715729 -3.164164 2.229846 0
M  V30 60 H -8.102885 -0.046434 -0.089338 0
M  V30 61 H -5.852040 0.448025 0.063323 0
M  V30 62 H -2.980571 1.098295 2.845199 0
M  V30 63 H -2.286256 2.128177 1.553249 0
M  V30 64 H -0.378496 1.045604 2.274475 0
M  V30 65 H -1.159148 -0.622522 2.303241 0
M  V30 66 H -0.944808 1.323683 0.016029 0
M  V30 67 H 1.323560 -0.875169 -3.342278 0
M  V30 68 H 3.825683 -0.899602 -3.088791 0
M  V30 69 H 3.717186 0.938575 -4.145034 0
M  V30 70 H 5.195762 1.190622 -1.401292 0
M  V30 71 H 5.819501 -1.415287 -2.417446 0
M  V30 END ATOM
M  V30 BEGIN BOND
M  V30 1 1 1 2
M  V30 2 1 2 3
M  V30 3 1 2 4
M  V30 4 1 4 5
M  V30 5 1 6 5 CFG=1
M  V30 6 1 6 7
M  V30 7 1 7 8
M  V30 8 1 9 8 CFG=1
M  V30 9 1 9 10
M  V30 10 1 9 11
M  V30 11 2 11 12
M  V30 12 1 12 13
M  V30 13 1 13 14
M  V30 14 1 14 15 CFG=3
M  V30 15 1 14 16
M  V30 16 1 16 17
M  V30 17 2 17 18
M  V30 18 1 18 19
M  V30 19 2 19 20
M  V30 20 1 20 21
M  V30 21 2 21 22
M  V30 22 1 22 23
M  V30 23 2 23 24
M  V30 24 1 24 25
M  V30 25 2 25 26
M  V30 26 1 16 27
M  V30 27 1 27 28
M  V30 28 1 28 29
M  V30 29 1 11 30
M  V30 30 2 30 31
M  V30 31 1 31 32
M  V30 32 1 32 33
M  V30 33 1 32 34
M  V30 34 1 34 35
M  V30 35 1 34 4
M  V30 36 1 10 6
M  V30 37 1 29 14
M  V30 38 1 31 6
M  V30 39 1 29 9
M  V30 40 1 26 17
M  V30 41 1 25 20
M  V30 42 1 1 36
M  V30 43 1 1 37
M  V30 44 1 1 38
M  V30 45 1 3 39
M  V30 46 1 3 40
M  V30 47 1 3 41
M  V30 48 1 4 42 CFG=3
M  V30 49 1 5 43
M  V30 50 1 5 44
M  V30 51 1 7 45
M  V30 52 1 7 46
M  V30 53 1 8 47
M  V30 54 1 8 48
M  V30 55 1 12 49
M  V30 56 1 13 50
M  V30 57 1 13 51
M  V30 58 1 15 52
M  V30 59 1 15 53
M  V30 60 1 15 54
M  V30 61 1 16 55 CFG=3
M  V30 62 1 18 56
M  V30 63 1 19 57
M  V30 64 1 21 58
M  V30 65 1 22 59
M  V30 66 1 24 60
M  V30 67 1 26 61
M  V30 68 1 27 62
M  V30 69 1 27 63
M  V30 70 1 28 64
M  V30 71 1 28 65
M  V30 72 1 29 66 CFG=3
M  V30 73 1 30 67
M  V30 74 1 32 68 CFG=3
M  V30 75 1 33 69
M  V30 76 1 34 70 CFG=1
M  V30 77 1 35 71
M  V30 END BOND
M  V30 END CTAB
M  END
>  <Dataset>  (52) 
ChEMBL_PKA

>  <Ligand_Instance>  (52) 
nan

>  <PDB_ID>  (52) 
nan

>  <Standardized_SMILES>  (52) 
CN(C)[C@H]1C[C@@]23CC[C@@]4(O2)C(=CC[C@]2(C)[C@@H](c5ccc6ccncc6c5)CC[C@H]24)C=C3[C@@H](O)[C@@H]1O

>  <Name>  (52) 
nan

>  <Pocket>  (52) 
nan

>  <ATP_Site>  (52) 
nan

>  <Peripheral>  (52) 
nan

>  <Num_H_Atoms_ProtBoundConf>  (52) 
nan

>  <Num_Resolved_Atoms>  (52) 
nan

>  <Num_Not_Resolved_Atoms>  (52) 
nan

>  <2D_Mol_H>  (52) 
<rdkit.Chem.rdchem.Mol object at 0x72a239110350>

>  <MW>  (52) 
472.629

>  <HBA>  (52) 
5

>  <HBD>  (52) 
2

>  <LogP>  (52) 
4.3485

>  <NRB>  (52) 
7

>  <TPSA>  (52) 
65.82

>  <Num_Heavy_Atoms>  (52) 
35

>  <Ro5>  (52) 
[True, True, True, True, True, True]

>  <Ro5_Fulfilled>  (52) 
True

>  <Ro3>  (52) 
[False, False, True, False]

>  <Ro3_Fulfilled>  (52) 
False

>  <Fsp3>  (52) 
0.566667

>  <Fsp3_0.42>  (52) 
True

>  <Fsp3_0.45>  (52) 
True

>  <Stereogenic_Carbons>  (52) 
8

>  <C_Atoms>  (52) 
30

>  <FCStereo>  (52) 
0.266667

>  <SPS>  (52) 
1540

>  <nSPS>  (52) 
44.0

>  <PBF>  (52) 
0.976897

>  <PBF_0.6>  (52) 
True

>  <nPBF>  (52) 
0.027911

>  <nPBF_0.016>  (52) 
True

>  <PMI1>  (52) 
1263.699055

>  <PMI2>  (52) 
11027.543412

>  <PMI3>  (52) 
11592.414153

>  <NPR1>  (52) 
0.109011

>  <NPR2>  (52) 
0.951272

>  <Sum_NPR>  (52) 
1.060283

>  <Sum_NPR_1.07>  (52) 
False

>  <Sum_NPR_1.2>  (52) 
False

>  <MaxAbsEStateIndex>  (52) 
11.153098

>  <MaxEStateIndex>  (52) 
11.153098

>  <MinAbsEStateIndex>  (52) 
0.110797

>  <MinEStateIndex>  (52) 
-0.8713

>  <qed>  (52) 
0.680458

>  <MolWt>  (52) 
472.629

>  <HeavyAtomMolWt>  (52) 
436.341

>  <ExactMolWt>  (52) 
472.272593

>  <NumValenceElectrons>  (52) 
184

>  <NumRadicalElectrons>  (52) 
0

>  <MaxPartialCharge>  (52) 
0.105486

>  <MinPartialCharge>  (52) 
-0.388427

>  <MaxAbsPartialCharge>  (52) 
0.388427

>  <MinAbsPartialCharge>  (52) 
0.105486

>  <FpDensityMorgan1>  (52) 
1.085714

>  <FpDensityMorgan2>  (52) 
1.942857

>  <FpDensityMorgan3>  (52) 
2.771429

>  <BCUT2D_MWHI>  (52) 
16.536256

>  <BCUT2D_MWLOW>  (52) 
9.575971

>  <BCUT2D_CHGHI>  (52) 
2.678043

>  <BCUT2D_CHGLO>  (52) 
-2.556775

>  <BCUT2D_LOGPHI>  (52) 
2.688976

>  <BCUT2D_LOGPLOW>  (52) 
-2.614955

>  <BCUT2D_MRHI>  (52) 
5.81795

>  <BCUT2D_MRLOW>  (52) 
-0.164971

>  <AvgIpc>  (52) 
3.366421

>  <BalabanJ>  (52) 
1.292722

>  <BertzCT>  (52) 
1269.234953

>  <Chi0>  (52) 
24.164561

>  <Chi0n>  (52) 
20.945297

>  <Chi0v>  (52) 
20.945297

>  <Chi1>  (52) 
16.773077

>  <Chi1n>  (52) 
13.265662

>  <Chi1v>  (52) 
13.265662

>  <Chi2n>  (52) 
12.290228

>  <Chi2v>  (52) 
12.290228

>  <Chi3n>  (52) 
10.569796

>  <Chi3v>  (52) 
10.569796

>  <Chi4n>  (52) 
8.785235

>  <Chi4v>  (52) 
8.785235

>  <HallKierAlpha>  (52) 
-2.05

>  <Ipc>  (52) 
158967641.752944

>  <Kappa1>  (52) 
22.170844

>  <Kappa2>  (52) 
7.254941

>  <Kappa3>  (52) 
2.812237

>  <LabuteASA>  (52) 
207.049985

>  <PEOE_VSA1>  (52) 
19.849827

>  <PEOE_VSA10>  (52) 
6.103966

>  <PEOE_VSA11>  (52) 
0.0

>  <PEOE_VSA12>  (52) 
0.0

>  <PEOE_VSA13>  (52) 
0.0

>  <PEOE_VSA14>  (52) 
0.0

>  <PEOE_VSA2>  (52) 
4.983979

>  <PEOE_VSA3>  (52) 
0.0

>  <PEOE_VSA4>  (52) 
0.0

>  <PEOE_VSA5>  (52) 
0.0

>  <PEOE_VSA6>  (52) 
31.208512

>  <PEOE_VSA7>  (52) 
104.099695

>  <PEOE_VSA8>  (52) 
23.821752

>  <PEOE_VSA9>  (52) 
17.306068

>  <SMR_VSA1>  (52) 
14.949918

>  <SMR_VSA10>  (52) 
10.772448

>  <SMR_VSA2>  (52) 
0.0

>  <SMR_VSA3>  (52) 
9.883888

>  <SMR_VSA4>  (52) 
11.332897

>  <SMR_VSA5>  (52) 
80.818448

>  <SMR_VSA6>  (52) 
14.095344

>  <SMR_VSA7>  (52) 
65.520856

>  <SMR_VSA8>  (52) 
0.0

>  <SMR_VSA9>  (52) 
0.0

>  <SlogP_VSA1>  (52) 
0.0

>  <SlogP_VSA10>  (52) 
0.0

>  <SlogP_VSA11>  (52) 
0.0

>  <SlogP_VSA12>  (52) 
0.0

>  <SlogP_VSA2>  (52) 
63.644162

>  <SlogP_VSA3>  (52) 
4.736863

>  <SlogP_VSA4>  (52) 
11.332897

>  <SlogP_VSA5>  (52) 
56.930024

>  <SlogP_VSA6>  (52) 
59.957405

>  <SlogP_VSA7>  (52) 
0.0

>  <SlogP_VSA8>  (52) 
10.772448

>  <SlogP_VSA9>  (52) 
0.0

>  <EState_VSA1>  (52) 
17.808984

>  <EState_VSA10>  (52) 
10.213055

>  <EState_VSA11>  (52) 
0.0

>  <EState_VSA2>  (52) 
17.057882

>  <EState_VSA3>  (52) 
11.835812

>  <EState_VSA4>  (52) 
37.677213

>  <EState_VSA5>  (52) 
28.329826

>  <EState_VSA6>  (52) 
0.0

>  <EState_VSA7>  (52) 
31.388941

>  <EState_VSA8>  (52) 
48.325224

>  <EState_VSA9>  (52) 
4.736863

>  <VSA_EState1>  (52) 
7.268778

>  <VSA_EState10>  (52) 
0.0

>  <VSA_EState2>  (52) 
6.398958

>  <VSA_EState3>  (52) 
24.491853

>  <VSA_EState4>  (52) 
2.970961

>  <VSA_EState5>  (52) 
0.93673

>  <VSA_EState6>  (52) 
8.904379

>  <VSA_EState7>  (52) 
12.813257

>  <VSA_EState8>  (52) 
2.486592

>  <VSA_EState9>  (52) 
3.97849

>  <FractionCSP3>  (52) 
0.566667

>  <HeavyAtomCount>  (52) 
35

>  <NHOHCount>  (52) 
2

>  <NOCount>  (52) 
5

>  <NumAliphaticCarbocycles>  (52) 
3

>  <NumAliphaticHeterocycles>  (52) 
2

>  <NumAliphaticRings>  (52) 
5

>  <NumAromaticCarbocycles>  (52) 
1

>  <NumAromaticHeterocycles>  (52) 
1

>  <NumAromaticRings>  (52) 
2

>  <NumHAcceptors>  (52) 
5

>  <NumHDonors>  (52) 
2

>  <NumHeteroatoms>  (52) 
5

>  <NumRotatableBonds>  (52) 
2

>  <NumSaturatedCarbocycles>  (52) 
2

>  <NumSaturatedHeterocycles>  (52) 
1

>  <NumSaturatedRings>  (52) 
3

>  <RingCount>  (52) 
7

>  <MolLogP>  (52) 
4.3485

>  <MolMR>  (52) 
135.9846

>  <fr_Al_COO>  (52) 
0

>  <fr_Al_OH>  (52) 
2

>  <fr_Al_OH_noTert>  (52) 
2

>  <fr_ArN>  (52) 
0

>  <fr_Ar_COO>  (52) 
0

>  <fr_Ar_N>  (52) 
1

>  <fr_Ar_NH>  (52) 
0

>  <fr_Ar_OH>  (52) 
0

>  <fr_COO>  (52) 
0

>  <fr_COO2>  (52) 
0

>  <fr_C_O>  (52) 
0

>  <fr_C_O_noCOO>  (52) 
0

>  <fr_C_S>  (52) 
0

>  <fr_HOCCN>  (52) 
0

>  <fr_Imine>  (52) 
0

>  <fr_NH0>  (52) 
2

>  <fr_NH1>  (52) 
0

>  <fr_NH2>  (52) 
0

>  <fr_N_O>  (52) 
0

>  <fr_Ndealkylation1>  (52) 
1

>  <fr_Ndealkylation2>  (52) 
0

>  <fr_Nhpyrrole>  (52) 
0

>  <fr_SH>  (52) 
0

>  <fr_aldehyde>  (52) 
0

>  <fr_alkyl_carbamate>  (52) 
0

>  <fr_alkyl_halide>  (52) 
0

>  <fr_allylic_oxid>  (52) 
1

>  <fr_amide>  (52) 
0

>  <fr_amidine>  (52) 
0

>  <fr_aniline>  (52) 
0

>  <fr_aryl_methyl>  (52) 
0

>  <fr_azide>  (52) 
0

>  <fr_azo>  (52) 
0

>  <fr_barbitur>  (52) 
0

>  <fr_benzene>  (52) 
1

>  <fr_benzodiazepine>  (52) 
0

>  <fr_bicyclic>  (52) 
2

>  <fr_diazo>  (52) 
0

>  <fr_dihydropyridine>  (52) 
0

>  <fr_epoxide>  (52) 
0

>  <fr_ester>  (52) 
0

>  <fr_ether>  (52) 
1

>  <fr_furan>  (52) 
0

>  <fr_guanido>  (52) 
0

>  <fr_halogen>  (52) 
0

>  <fr_hdrzine>  (52) 
0

>  <fr_hdrzone>  (52) 
0

>  <fr_imidazole>  (52) 
0

>  <fr_imide>  (52) 
0

>  <fr_isocyan>  (52) 
0

>  <fr_isothiocyan>  (52) 
0

>  <fr_ketone>  (52) 
0

>  <fr_ketone_Topliss>  (52) 
0

>  <fr_lactam>  (52) 
0

>  <fr_lactone>  (52) 
0

>  <fr_methoxy>  (52) 
0

>  <fr_morpholine>  (52) 
0

>  <fr_nitrile>  (52) 
0

>  <fr_nitro>  (52) 
0

>  <fr_nitro_arom>  (52) 
0

>  <fr_nitro_arom_nonortho>  (52) 
0

>  <fr_nitroso>  (52) 
0

>  <fr_oxazole>  (52) 
0

>  <fr_oxime>  (52) 
0

>  <fr_para_hydroxylation>  (52) 
0

>  <fr_phenol>  (52) 
0

>  <fr_phenol_noOrthoHbond>  (52) 
0

>  <fr_phos_acid>  (52) 
0

>  <fr_phos_ester>  (52) 
0

>  <fr_piperdine>  (52) 
0

>  <fr_piperzine>  (52) 
0

>  <fr_priamide>  (52) 
0

>  <fr_prisulfonamd>  (52) 
0

>  <fr_pyridine>  (52) 
1

>  <fr_quatN>  (52) 
0

>  <fr_sulfide>  (52) 
0

>  <fr_sulfonamd>  (52) 
0

>  <fr_sulfone>  (52) 
0

>  <fr_term_acetylene>  (52) 
0

>  <fr_tetrazole>  (52) 
0

>  <fr_thiazole>  (52) 
0

>  <fr_thiocyan>  (52) 
0

>  <fr_thiophene>  (52) 
0

>  <fr_unbrch_alkane>  (52) 
0

>  <fr_urea>  (52) 
0

>  <NP_Likeness>  (52) 
1.598717

$$$$
CHEMBL413460
     RDKit          3D

  0  0  0  0  0  0  0  0  0  0999 V3000
M  V30 BEGIN CTAB
M  V30 COUNTS 234 238 0 0 0
M  V30 BEGIN ATOM
M  V30 1 N 5.791550 -4.864533 4.652516 0
M  V30 2 C 6.536326 -3.829158 4.275678 0
M  V30 3 N 6.692217 -4.118319 2.853770 0
M  V30 4 N 6.979161 -2.604276 4.833090 0
M  V30 5 C 6.098813 -1.946358 5.793185 0
M  V30 6 C 6.346199 -0.455105 5.801533 0
M  V30 7 C 6.411860 0.073352 4.401087 0
M  V30 8 C 5.173934 0.585626 3.760927 0 CFG=1
M  V30 9 N 4.082287 -0.370216 4.017361 0
M  V30 10 C 3.686466 -1.560418 3.460975 0
M  V30 11 O 4.378566 -1.880900 2.486183 0
M  V30 12 C 2.594565 -2.406233 3.941351 0
M  V30 13 C 2.367418 -3.581697 3.031843 0
M  V30 14 C 1.044682 -3.536247 2.334077 0
M  V30 15 C -0.107224 -3.545084 3.341735 0
M  V30 16 C -1.369237 -3.452581 2.557146 0
M  V30 17 N -2.618464 -3.399570 3.230632 0
M  V30 18 C -3.613453 -2.617103 2.538271 0
M  V30 19 O -3.310011 -1.916126 1.524846 0
M  V30 20 C -5.058110 -2.640634 2.974949 0 CFG=1
M  V30 21 O -5.718433 -1.614944 2.421460 0
M  V30 22 C -6.614885 -2.052403 1.413690 0 CFG=1
M  V30 23 N -6.686294 -1.075493 0.266056 0
M  V30 24 C -7.015131 0.228848 0.379525 0
M  V30 25 N -6.794578 0.871455 -0.796888 0
M  V30 26 C -6.341823 -0.063290 -1.689448 0
M  V30 27 C -6.117239 0.003025 -3.048654 0
M  V30 28 N -6.002331 1.278888 -3.611083 0
M  V30 29 N -5.887445 -1.142331 -3.577683 0
M  V30 30 C -5.835304 -2.355471 -3.028481 0
M  V30 31 N -6.037141 -2.406273 -1.698431 0
M  V30 32 C -6.311207 -1.252123 -1.003042 0
M  V30 33 C -6.068636 -3.367763 0.967286 0 CFG=2
M  V30 34 O -7.107743 -4.125493 0.409575 0
M  V30 35 C -5.591108 -3.931960 2.293933 0 CFG=2
M  V30 36 O -6.661651 -4.470406 2.949821 0
M  V30 37 C 4.901547 1.985047 3.887853 0
M  V30 38 O 5.458544 2.654366 4.771033 0
M  V30 39 N 3.982592 2.564994 3.052126 0
M  V30 40 C 3.359577 3.887578 3.163214 0 CFG=2
M  V30 41 C 2.288539 3.734490 4.286883 0
M  V30 42 C 2.872426 3.459087 5.636515 0
M  V30 43 C 1.695936 3.426200 6.642051 0
M  V30 44 N 1.043732 2.159573 6.607828 0
M  V30 45 C 1.643841 1.135754 7.476627 0
M  V30 46 N 2.225169 1.458237 8.569089 0
M  V30 47 N 1.539532 -0.250400 7.229286 0
M  V30 48 C 2.749880 4.305111 1.951760 0
M  V30 49 O 3.515748 4.885328 1.172239 0
M  V30 50 N 1.427875 4.141725 1.589593 0
M  V30 51 C 0.765267 4.484412 0.368529 0 CFG=2
M  V30 52 C -0.197617 5.658413 0.665369 0
M  V30 53 C -1.483370 5.385429 -0.052282 0
M  V30 54 C -2.322726 6.659084 0.135800 0
M  V30 55 N -3.601576 6.216159 -0.324319 0
M  V30 56 C -4.799759 6.829567 0.190760 0
M  V30 57 N -4.691713 8.035085 0.580034 0
M  V30 58 N -5.926121 5.936303 0.327760 0
M  V30 59 C 0.129242 3.523675 -0.492933 0
M  V30 60 O -0.773488 2.774390 -0.150161 0
M  V30 61 N 0.570713 3.360803 -1.811766 0
M  V30 62 C 0.058606 2.446038 -2.631880 0 CFG=2
M  V30 63 C -0.669309 3.217572 -3.838777 0
M  V30 64 C 0.183395 4.043646 -4.683681 0
M  V30 65 C -0.704442 4.365453 -5.913798 0
M  V30 66 N -1.064127 2.981133 -6.375523 0
M  V30 67 C -2.369756 2.688414 -6.861054 0
M  V30 68 N -3.184795 3.653746 -7.026560 0
M  V30 69 N -2.866248 1.397802 -7.136838 0
M  V30 70 C -0.922266 1.411982 -2.504422 0
M  V30 71 O -2.093999 1.655004 -2.303793 0
M  V30 72 N -0.515479 0.143068 -2.691649 0
M  V30 73 C -1.263196 -1.106669 -3.040381 0 CFG=2
M  V30 74 C -1.547238 -2.187732 -2.186492 0
M  V30 75 C -2.178426 -3.315541 -3.041183 0
M  V30 76 C -2.314582 -4.573732 -2.274087 0
M  V30 77 N -1.131207 -4.904035 -1.507130 0
M  V30 78 C -1.305350 -5.982900 -0.590787 0
M  V30 79 N -2.503658 -6.388993 -0.287373 0
M  V30 80 N -0.263926 -6.552595 0.167526 0
M  V30 81 C -0.276799 -1.478035 -4.164984 0
M  V30 82 O 0.352481 -2.489003 -3.897376 0
M  V30 83 N -0.091820 -0.635248 -5.279980 0
M  V30 84 C 1.111104 -0.965382 -6.034085 0 CFG=2
M  V30 85 C 1.033299 -1.752078 -7.237548 0
M  V30 86 C 0.271387 -1.072276 -8.334464 0
M  V30 87 C 0.000593 -2.111734 -9.399100 0
M  V30 88 N -0.320594 -3.383303 -8.702422 0
M  V30 89 C -1.461720 -3.643188 -7.891071 0
M  V30 90 N -2.151165 -2.593449 -7.715021 0
M  V30 91 N -1.829682 -4.859498 -7.318227 0
M  V30 92 C 2.257900 -1.327510 -5.142599 0
M  V30 93 O 2.630143 -2.511833 -5.256571 0
M  V30 94 N 3.045987 -0.487941 -4.320041 0
M  V30 95 C 4.313247 -0.916737 -3.737194 0
M  V30 96 O 4.517286 -2.147907 -3.825230 0
M  V30 97 C 5.163584 0.075106 -3.055600 0
M  V30 98 C 4.515797 0.988840 -2.077398 0
M  V30 99 C 4.073770 0.391450 -0.775176 0
M  V30 100 C 2.715998 1.004502 -0.441888 0
M  V30 101 C 2.114084 0.220178 0.710313 0
M  V30 102 N 0.674946 0.565302 0.860710 0
M  V30 103 C 0.307095 0.359871 2.219863 0
M  V30 104 C -0.939890 0.770691 2.872373 0
M  V30 105 N -1.298701 2.095374 3.231756 0
M  V30 106 S -2.651688 2.189409 4.308970 0
M  V30 107 O -2.427200 0.767451 5.037894 0
M  V30 108 O -3.986183 2.089363 3.783467 0
M  V30 109 C -2.287960 3.197318 5.667733 0
M  V30 110 C -2.031635 2.935574 6.979698 0
M  V30 111 C -1.642393 3.934291 7.826522 0
M  V30 112 C -1.402366 5.256638 7.363439 0
M  V30 113 C -1.612407 5.577944 6.011206 0
M  V30 114 C -1.612618 6.953454 5.784474 0
M  V30 115 N -2.221678 7.315832 4.604396 0
M  V30 116 C -2.695371 6.309497 3.809514 0
M  V30 117 C -2.636159 4.950913 4.117926 0
M  V30 118 C -2.075812 4.462250 5.308838 0
M  V30 119 H 5.563565 -4.727860 5.727264 0
M  V30 120 H 7.604740 -4.510459 2.606749 0
M  V30 121 H 6.022068 -3.974496 2.089091 0
M  V30 122 H 7.960403 -2.265497 4.518657 0
M  V30 123 H 6.822622 -2.156433 6.800311 0
M  V30 124 H 5.245750 -2.426590 6.094745 0
M  V30 125 H 6.908788 0.023996 6.502050 0
M  V30 126 H 5.187411 -0.158357 6.045592 0
M  V30 127 H 6.848227 -0.739929 3.792004 0
M  V30 128 H 7.150136 0.926658 4.365414 0
M  V30 129 H 5.324178 0.350779 2.618241 0
M  V30 130 H 3.467279 -0.002301 4.827419 0
M  V30 131 H 2.994934 -2.880263 4.901362 0
M  V30 132 H 1.698732 -1.892829 4.262844 0
M  V30 133 H 2.512889 -4.572296 3.471721 0
M  V30 134 H 3.140715 -3.498220 2.210286 0
M  V30 135 H 0.960729 -4.487822 1.762634 0
M  V30 136 H 0.952278 -2.736977 1.590444 0
M  V30 137 H -0.101713 -2.585932 3.944576 0
M  V30 138 H -0.010556 -4.435978 3.941704 0
M  V30 139 H -1.331689 -3.043046 1.559121 0
M  V30 140 H -1.472992 -4.685172 2.239814 0
M  V30 141 H -2.842212 -3.857367 4.134142 0
M  V30 142 H -5.177397 -2.764903 4.054601 0
M  V30 143 H -7.609110 -2.134185 1.859537 0
M  V30 144 H -7.460700 0.638136 1.272703 0
M  V30 145 H -6.503627 1.474166 -4.470473 0
M  V30 146 H -5.453071 2.074818 -3.140986 0
M  V30 147 H -5.683704 -3.175918 -3.620081 0
M  V30 148 H -5.201738 -3.327840 0.300779 0
M  V30 149 H -6.737953 -4.964229 0.135845 0
M  V30 150 H -4.772998 -4.645082 2.153517 0
M  V30 151 H -6.625127 -4.397175 3.915618 0
M  V30 152 H 3.831618 2.103086 2.083894 0
M  V30 153 H 4.048549 4.600601 3.624278 0
M  V30 154 H 1.806637 4.724496 4.342367 0
M  V30 155 H 1.523997 3.014391 4.054552 0
M  V30 156 H 3.098297 2.311687 5.677766 0
M  V30 157 H 3.625354 4.059948 6.063453 0
M  V30 158 H 2.015234 3.683720 7.651061 0
M  V30 159 H 0.958096 4.188141 6.250801 0
M  V30 160 H 0.262389 1.899063 5.993840 0
M  V30 161 H 2.634516 0.716752 9.188407 0
M  V30 162 H 2.433444 -0.732686 6.991094 0
M  V30 163 H 0.653156 -0.793194 7.312931 0
M  V30 164 H 0.758469 3.703882 2.308185 0
M  V30 165 H 1.633414 4.991177 -0.217385 0
M  V30 166 H -0.321695 5.706586 1.721079 0
M  V30 167 H 0.202159 6.605423 0.255851 0
M  V30 168 H -2.119804 4.661773 0.630001 0
M  V30 169 H -1.504474 5.041970 -1.046657 0
M  V30 170 H -1.898855 7.308931 -0.721970 0
M  V30 171 H -2.227158 7.160398 1.048101 0
M  V30 172 H -3.774860 5.532244 -1.086039 0
M  V30 173 H -5.557278 8.493085 1.044559 0
M  V30 174 H -6.350177 5.863147 -0.615215 0
M  V30 175 H -6.332121 5.396728 1.103513 0
M  V30 176 H 1.372837 3.962744 -2.181045 0
M  V30 177 H 0.952205 2.036964 -3.306817 0
M  V30 178 H -1.296390 2.470970 -4.344334 0
M  V30 179 H -1.410032 3.857330 -3.272490 0
M  V30 180 H 0.233559 5.073777 -4.179751 0
M  V30 181 H 1.144738 3.645820 -4.906732 0
M  V30 182 H -0.043873 4.740907 -6.730553 0
M  V30 183 H -1.559127 4.913079 -5.663121 0
M  V30 184 H -0.397894 2.196398 -6.245806 0
M  V30 185 H -4.141526 3.583451 -7.483639 0
M  V30 186 H -3.560321 0.761957 -6.672122 0
M  V30 187 H -2.376392 1.092810 -7.980723 0
M  V30 188 H 0.529522 -0.242632 -2.438429 0
M  V30 189 H -2.255287 -0.680337 -3.440536 0
M  V30 190 H -0.748336 -2.582528 -1.543377 0
M  V30 191 H -2.431776 -1.943079 -1.494697 0
M  V30 192 H -3.240892 -2.957835 -3.257592 0
M  V30 193 H -1.752145 -3.436435 -4.011110 0
M  V30 194 H -3.242593 -4.877168 -1.877559 0
M  V30 195 H -2.169377 -5.424961 -3.138096 0
M  V30 196 H -0.202271 -4.426588 -1.611075 0
M  V30 197 H -2.674069 -7.123780 0.417688 0
M  V30 198 H -0.211795 -6.706365 1.217014 0
M  V30 199 H 0.556235 -6.845347 -0.376436 0
M  V30 200 H -0.833100 0.057889 -5.548839 0
M  V30 201 H 1.439733 0.152495 -6.298440 0
M  V30 202 H 0.534528 -2.733468 -6.966057 0
M  V30 203 H 2.063926 -1.993433 -7.558923 0
M  V30 204 H 1.157393 -0.429949 -8.848034 0
M  V30 205 H -0.472184 -0.348834 -8.094648 0
M  V30 206 H 0.665009 -2.204216 -10.190337 0
M  V30 207 H -1.051418 -1.831293 -9.812227 0
M  V30 208 H 0.358011 -4.173972 -8.876937 0
M  V30 209 H -3.012954 -2.677167 -7.070426 0
M  V30 210 H -1.613194 -4.988077 -6.281208 0
M  V30 211 H -2.328357 -5.610085 -7.817438 0
M  V30 212 H 2.740017 0.522531 -4.209806 0
M  V30 213 H 5.788217 -0.622290 -2.351666 0
M  V30 214 H 5.870213 0.566611 -3.699849 0
M  V30 215 H 3.612616 1.454979 -2.599328 0
M  V30 216 H 5.191066 1.834204 -1.924472 0
M  V30 217 H 4.830732 0.760523 0.038606 0
M  V30 218 H 4.042862 -0.674576 -0.685342 0
M  V30 219 H 2.157298 1.049043 -1.350043 0
M  V30 220 H 2.813383 2.093660 -0.115002 0
M  V30 221 H 2.589449 0.426263 1.647604 0
M  V30 222 H 2.303819 -0.828369 0.468123 0
M  V30 223 H 0.259923 -0.336033 0.321874 0
M  V30 224 H 0.562380 -0.667883 2.560774 0
M  V30 225 H 1.161864 0.969364 2.734965 0
M  V30 226 H -1.584757 0.844838 1.741934 0
M  V30 227 H -1.707875 -0.023948 3.144668 0
M  V30 228 H -1.356431 2.706608 2.426011 0
M  V30 229 H -2.224854 1.972073 7.318416 0
M  V30 230 H -1.583870 3.754232 8.908093 0
M  V30 231 H -1.081336 6.019627 8.112465 0
M  V30 232 H -1.161114 7.659579 6.419166 0
M  V30 233 H -3.252618 6.695407 2.968649 0
M  V30 234 H -3.041535 4.268034 3.364715 0
M  V30 END ATOM
M  V30 BEGIN BOND
M  V30 1 2 1 2 CFG=2
M  V30 2 1 2 3
M  V30 3 1 2 4
M  V30 4 1 4 5
M  V30 5 1 5 6
M  V30 6 1 6 7
M  V30 7 1 7 8
M  V30 8 1 8 9
M  V30 9 1 9 10
M  V30 10 2 10 11
M  V30 11 1 10 12
M  V30 12 1 12 13
M  V30 13 1 13 14
M  V30 14 1 14 15
M  V30 15 1 15 16
M  V30 16 1 16 17
M  V30 17 1 17 18
M  V30 18 2 18 19
M  V30 19 1 18 20
M  V30 20 1 20 21
M  V30 21 1 21 22
M  V30 22 1 22 23
M  V30 23 1 23 24
M  V30 24 2 24 25
M  V30 25 1 25 26
M  V30 26 2 26 27
M  V30 27 1 27 28
M  V30 28 1 27 29
M  V30 29 2 29 30
M  V30 30 1 30 31
M  V30 31 2 31 32
M  V30 32 1 22 33
M  V30 33 1 33 34
M  V30 34 1 33 35
M  V30 35 1 35 36
M  V30 36 1 8 37
M  V30 37 2 37 38
M  V30 38 1 37 39
M  V30 39 1 39 40
M  V30 40 1 40 41
M  V30 41 1 41 42
M  V30 42 1 42 43
M  V30 43 1 43 44
M  V30 44 1 44 45
M  V30 45 2 45 46 CFG=2
M  V30 46 1 45 47
M  V30 47 1 40 48
M  V30 48 2 48 49
M  V30 49 1 48 50
M  V30 50 1 50 51
M  V30 51 1 51 52
M  V30 52 1 52 53
M  V30 53 1 53 54
M  V30 54 1 54 55
M  V30 55 1 55 56
M  V30 56 2 56 57 CFG=2
M  V30 57 1 56 58
M  V30 58 1 51 59
M  V30 59 2 59 60
M  V30 60 1 59 61
M  V30 61 1 61 62
M  V30 62 1 62 63
M  V30 63 1 63 64
M  V30 64 1 64 65
M  V30 65 1 65 66
M  V30 66 1 66 67
M  V30 67 2 67 68 CFG=2
M  V30 68 1 67 69
M  V30 69 1 62 70
M  V30 70 2 70 71
M  V30 71 1 70 72
M  V30 72 1 72 73
M  V30 73 1 73 74
M  V30 74 1 74 75
M  V30 75 1 75 76
M  V30 76 1 76 77
M  V30 77 1 77 78
M  V30 78 2 78 79 CFG=2
M  V30 79 1 78 80
M  V30 80 1 73 81
M  V30 81 2 81 82
M  V30 82 1 81 83
M  V30 83 1 83 84
M  V30 84 1 84 85
M  V30 85 1 85 86
M  V30 86 1 86 87
M  V30 87 1 87 88
M  V30 88 1 88 89
M  V30 89 2 89 90 CFG=2
M  V30 90 1 89 91
M  V30 91 1 84 92
M  V30 92 2 92 93
M  V30 93 1 92 94
M  V30 94 1 94 95
M  V30 95 2 95 96
M  V30 96 1 95 97
M  V30 97 1 97 98
M  V30 98 1 98 99
M  V30 99 1 99 100
M  V30 100 1 100 101
M  V30 101 1 101 102
M  V30 102 1 102 103
M  V30 103 1 103 104
M  V30 104 1 104 105
M  V30 105 1 105 106
M  V30 106 2 106 107
M  V30 107 2 106 108
M  V30 108 1 106 109
M  V30 109 2 109 110
M  V30 110 1 110 111
M  V30 111 2 111 112
M  V30 112 1 112 113
M  V30 113 2 113 114
M  V30 114 1 114 115
M  V30 115 2 115 116
M  V30 116 1 116 117
M  V30 117 2 117 118
M  V30 118 1 35 20
M  V30 119 1 118 109
M  V30 120 1 32 23
M  V30 121 1 118 113
M  V30 122 1 32 26
M  V30 123 1 1 119
M  V30 124 1 3 120
M  V30 125 1 3 121
M  V30 126 1 4 122
M  V30 127 1 5 123
M  V30 128 1 5 124
M  V30 129 1 6 125
M  V30 130 1 6 126
M  V30 131 1 7 127
M  V30 132 1 7 128
M  V30 133 1 8 129 CFG=3
M  V30 134 1 9 130
M  V30 135 1 12 131
M  V30 136 1 12 132
M  V30 137 1 13 133
M  V30 138 1 13 134
M  V30 139 1 14 135
M  V30 140 1 14 136
M  V30 141 1 15 137
M  V30 142 1 15 138
M  V30 143 1 16 139
M  V30 144 1 16 140
M  V30 145 1 17 141
M  V30 146 1 20 142 CFG=1
M  V30 147 1 22 143 CFG=1
M  V30 148 1 24 144
M  V30 149 1 28 145
M  V30 150 1 28 146
M  V30 151 1 30 147
M  V30 152 1 33 148 CFG=3
M  V30 153 1 34 149
M  V30 154 1 35 150 CFG=3
M  V30 155 1 36 151
M  V30 156 1 39 152
M  V30 157 1 40 153 CFG=1
M  V30 158 1 41 154
M  V30 159 1 41 155
M  V30 160 1 42 156
M  V30 161 1 42 157
M  V30 162 1 43 158
M  V30 163 1 43 159
M  V30 164 1 44 160
M  V30 165 1 46 161
M  V30 166 1 47 162
M  V30 167 1 47 163
M  V30 168 1 50 164
M  V30 169 1 51 165 CFG=3
M  V30 170 1 52 166
M  V30 171 1 52 167
M  V30 172 1 53 168
M  V30 173 1 53 169
M  V30 174 1 54 170
M  V30 175 1 54 171
M  V30 176 1 55 172
M  V30 177 1 57 173
M  V30 178 1 58 174
M  V30 179 1 58 175
M  V30 180 1 61 176
M  V30 181 1 62 177 CFG=3
M  V30 182 1 63 178
M  V30 183 1 63 179
M  V30 184 1 64 180
M  V30 185 1 64 181
M  V30 186 1 65 182
M  V30 187 1 65 183
M  V30 188 1 66 184
M  V30 189 1 68 185
M  V30 190 1 69 186
M  V30 191 1 69 187
M  V30 192 1 72 188
M  V30 193 1 73 189 CFG=3
M  V30 194 1 74 190
M  V30 195 1 74 191
M  V30 196 1 75 192
M  V30 197 1 75 193
M  V30 198 1 76 194
M  V30 199 1 76 195
M  V30 200 1 77 196
M  V30 201 1 79 197
M  V30 202 1 80 198
M  V30 203 1 80 199
M  V30 204 1 83 200
M  V30 205 1 84 201 CFG=3
M  V30 206 1 85 202
M  V30 207 1 85 203
M  V30 208 1 86 204
M  V30 209 1 86 205
M  V30 210 1 87 206
M  V30 211 1 87 207
M  V30 212 1 88 208
M  V30 213 1 90 209
M  V30 214 1 91 210
M  V30 215 1 91 211
M  V30 216 1 94 212
M  V30 217 1 97 213
M  V30 218 1 97 214
M  V30 219 1 98 215
M  V30 220 1 98 216
M  V30 221 1 99 217
M  V30 222 1 99 218
M  V30 223 1 100 219
M  V30 224 1 100 220
M  V30 225 1 101 221
M  V30 226 1 101 222
M  V30 227 1 102 223
M  V30 228 1 103 224
M  V30 229 1 103 225
M  V30 230 1 104 226
M  V30 231 1 104 227
M  V30 232 1 105 228
M  V30 233 1 110 229
M  V30 234 1 111 230
M  V30 235 1 112 231
M  V30 236 1 114 232
M  V30 237 1 116 233
M  V30 238 1 117 234
M  V30 END BOND
M  V30 END CTAB
M  END
>  <Dataset>  (53) 
ChEMBL_PKA

>  <Ligand_Instance>  (53) 
nan

>  <PDB_ID>  (53) 
nan

>  <Standardized_SMILES>  (53) 
N=C(N)NCCC[C@@H](NC(=O)CCCCCNC(=O)[C@H]1O[C@@H](n2cnc3c(N)ncnc32)[C@H](O)[C@@H]1O)C(=O)N[C@H](CCCNC(=N)N)C(=O)N[C@H](CCCNC(=N)N)C(=O)N[C@H](CCCNC(=N)N)C(=O)N[C@H](CCCNC(=N)N)C(=O)N[C@H](CCCNC(=N)N)C(=O)NC(=O)CCCCCNCCNS(=O)(=O)c1cccc2cnccc12

>  <Name>  (53) 
nan

>  <Pocket>  (53) 
nan

>  <ATP_Site>  (53) 
nan

>  <Peripheral>  (53) 
nan

>  <Num_H_Atoms_ProtBoundConf>  (53) 
nan

>  <Num_Resolved_Atoms>  (53) 
nan

>  <Num_Not_Resolved_Atoms>  (53) 
nan

>  <2D_Mol_H>  (53) 
<rdkit.Chem.rdchem.Mol object at 0x72a239110430>

>  <MW>  (53) 
1677.978

>  <HBA>  (53) 
27

>  <HBD>  (53) 
31

>  <LogP>  (53) 
-7.48778

>  <NRB>  (53) 
58

>  <TPSA>  (53) 
811.67

>  <Num_Heavy_Atoms>  (53) 
118

>  <Ro5>  (53) 
[False, False, False, True, False, False]

>  <Ro5_Fulfilled>  (53) 
False

>  <Ro3>  (53) 
[False, False, False, True]

>  <Ro3_Fulfilled>  (53) 
False

>  <Fsp3>  (53) 
0.57971

>  <Fsp3_0.42>  (53) 
True

>  <Fsp3_0.45>  (53) 
True

>  <Stereogenic_Carbons>  (53) 
10

>  <C_Atoms>  (53) 
69

>  <FCStereo>  (53) 
0.144928

>  <SPS>  (53) 
1870

>  <nSPS>  (53) 
15.847458

>  <PBF>  (53) 
2.656471

>  <PBF_0.6>  (53) 
True

>  <nPBF>  (53) 
0.022512

>  <nPBF_0.016>  (53) 
True

>  <PMI1>  (53) 
38205.466171

>  <PMI2>  (53) 
50363.874924

>  <PMI3>  (53) 
56131.745743

>  <NPR1>  (53) 
0.680639

>  <NPR2>  (53) 
0.897244

>  <Sum_NPR>  (53) 
1.577883

>  <Sum_NPR_1.07>  (53) 
True

>  <Sum_NPR_1.2>  (53) 
True

>  <MaxAbsEStateIndex>  (53) 
14.852926

>  <MaxEStateIndex>  (53) 
14.852926

>  <MinAbsEStateIndex>  (53) 
0.003902

>  <MinEStateIndex>  (53) 
-3.833887

>  <qed>  (53) 
0.011091

>  <MolWt>  (53) 
1677.978

>  <HeavyAtomMolWt>  (53) 
1561.05

>  <ExactMolWt>  (53) 
1676.913095

>  <NumValenceElectrons>  (53) 
652

>  <NumRadicalElectrons>  (53) 
0

>  <MaxPartialCharge>  (53) 
0.251567

>  <MinPartialCharge>  (53) 
-0.386941

>  <MaxAbsPartialCharge>  (53) 
0.386941

>  <MinAbsPartialCharge>  (53) 
0.251567

>  <FpDensityMorgan1>  (53) 
0.466102

>  <FpDensityMorgan2>  (53) 
0.881356

>  <FpDensityMorgan3>  (53) 
1.330508

>  <BCUT2D_MWHI>  (53) 
32.233279

>  <BCUT2D_MWLOW>  (53) 
10.034518

>  <BCUT2D_CHGHI>  (53) 
2.477712

>  <BCUT2D_CHGLO>  (53) 
-2.278718

>  <BCUT2D_LOGPHI>  (53) 
2.322255

>  <BCUT2D_LOGPLOW>  (53) 
-2.596247

>  <BCUT2D_MRHI>  (53) 
7.89347

>  <BCUT2D_MRLOW>  (53) 
-0.137452

>  <AvgIpc>  (53) 
1.562851

>  <BalabanJ>  (53) 
1.267576

>  <BertzCT>  (53) 
4172.476047

>  <Chi0>  (53) 
86.694509

>  <Chi0n>  (53) 
65.584683

>  <Chi0v>  (53) 
66.40118

>  <Chi1>  (53) 
56.253652

>  <Chi1n>  (53) 
38.638654

>  <Chi1v>  (53) 
40.121818

>  <Chi2n>  (53) 
27.658956

>  <Chi2v>  (53) 
29.394331

>  <Chi3n>  (53) 
18.308667

>  <Chi3v>  (53) 
19.827857

>  <Chi4n>  (53) 
12.281202

>  <Chi4v>  (53) 
13.540622

>  <HallKierAlpha>  (53) 
-12.22

>  <Ipc>  (53) 
13079372287287872413972196092805120.0

>  <Kappa1>  (53) 
96.363796

>  <Kappa2>  (53) 
50.981971

>  <Kappa3>  (53) 
34.686868

>  <LabuteASA>  (53) 
680.421159

>  <PEOE_VSA1>  (53) 
129.520631

>  <PEOE_VSA10>  (53) 
60.302999

>  <PEOE_VSA11>  (53) 
59.554235

>  <PEOE_VSA12>  (53) 
57.280729

>  <PEOE_VSA13>  (53) 
5.90718

>  <PEOE_VSA14>  (53) 
0.0

>  <PEOE_VSA2>  (53) 
90.474403

>  <PEOE_VSA3>  (53) 
28.091827

>  <PEOE_VSA4>  (53) 
0.0

>  <PEOE_VSA5>  (53) 
0.0

>  <PEOE_VSA6>  (53) 
24.974377

>  <PEOE_VSA7>  (53) 
121.410637

>  <PEOE_VSA8>  (53) 
94.910586

>  <PEOE_VSA9>  (53) 
11.222804

>  <SMR_VSA1>  (53) 
66.518549

>  <SMR_VSA10>  (53) 
126.699425

>  <SMR_VSA2>  (53) 
32.455702

>  <SMR_VSA3>  (53) 
108.976938

>  <SMR_VSA4>  (53) 
34.402005

>  <SMR_VSA5>  (53) 
194.102761

>  <SMR_VSA6>  (53) 
71.181232

>  <SMR_VSA7>  (53) 
49.313796

>  <SMR_VSA8>  (53) 
0.0

>  <SMR_VSA9>  (53) 
0.0

>  <SlogP_VSA1>  (53) 
124.609596

>  <SlogP_VSA10>  (53) 
5.817863

>  <SlogP_VSA11>  (53) 
0.0

>  <SlogP_VSA12>  (53) 
0.0

>  <SlogP_VSA2>  (53) 
252.066319

>  <SlogP_VSA3>  (53) 
57.910989

>  <SlogP_VSA4>  (53) 
32.455702

>  <SlogP_VSA5>  (53) 
134.644334

>  <SlogP_VSA6>  (53) 
54.209279

>  <SlogP_VSA7>  (53) 
0.0

>  <SlogP_VSA8>  (53) 
21.936326

>  <SlogP_VSA9>  (53) 
0.0

>  <EState_VSA1>  (53) 
147.816972

>  <EState_VSA10>  (53) 
61.781686

>  <EState_VSA11>  (53) 
0.0

>  <EState_VSA2>  (53) 
182.466709

>  <EState_VSA3>  (53) 
55.966069

>  <EState_VSA4>  (53) 
0.0

>  <EState_VSA5>  (53) 
29.48495

>  <EState_VSA6>  (53) 
24.395945

>  <EState_VSA7>  (53) 
0.0

>  <EState_VSA8>  (53) 
104.409838

>  <EState_VSA9>  (53) 
77.328237

>  <VSA_EState1>  (53) 
35.895626

>  <VSA_EState10>  (53) 
0.0

>  <VSA_EState2>  (53) 
143.956846

>  <VSA_EState3>  (53) 
108.790359

>  <VSA_EState4>  (53) 
39.564639

>  <VSA_EState5>  (53) 
-9.892376

>  <VSA_EState6>  (53) 
-2.289901

>  <VSA_EState7>  (53) 
1.418461

>  <VSA_EState8>  (53) 
1.140232

>  <VSA_EState9>  (53) 
-3.833887

>  <FractionCSP3>  (53) 
0.57971

>  <HeavyAtomCount>  (53) 
118

>  <NHOHCount>  (53) 
38

>  <NOCount>  (53) 
48

>  <NumAliphaticCarbocycles>  (53) 
0

>  <NumAliphaticHeterocycles>  (53) 
1

>  <NumAliphaticRings>  (53) 
1

>  <NumAromaticCarbocycles>  (53) 
1

>  <NumAromaticHeterocycles>  (53) 
3

>  <NumAromaticRings>  (53) 
4

>  <NumHAcceptors>  (53) 
27

>  <NumHDonors>  (53) 
31

>  <NumHeteroatoms>  (53) 
49

>  <NumRotatableBonds>  (53) 
55

>  <NumSaturatedCarbocycles>  (53) 
0

>  <NumSaturatedHeterocycles>  (53) 
1

>  <NumSaturatedRings>  (53) 
1

>  <RingCount>  (53) 
5

>  <MolLogP>  (53) 
-7.48778

>  <MolMR>  (53) 
435.0446

>  <fr_Al_COO>  (53) 
0

>  <fr_Al_OH>  (53) 
2

>  <fr_Al_OH_noTert>  (53) 
2

>  <fr_ArN>  (53) 
1

>  <fr_Ar_COO>  (53) 
0

>  <fr_Ar_N>  (53) 
5

>  <fr_Ar_NH>  (53) 
0

>  <fr_Ar_OH>  (53) 
0

>  <fr_COO>  (53) 
0

>  <fr_COO2>  (53) 
0

>  <fr_C_O>  (53) 
9

>  <fr_C_O_noCOO>  (53) 
9

>  <fr_C_S>  (53) 
0

>  <fr_HOCCN>  (53) 
0

>  <fr_Imine>  (53) 
0

>  <fr_NH0>  (53) 
5

>  <fr_NH1>  (53) 
22

>  <fr_NH2>  (53) 
7

>  <fr_N_O>  (53) 
0

>  <fr_Ndealkylation1>  (53) 
0

>  <fr_Ndealkylation2>  (53) 
0

>  <fr_Nhpyrrole>  (53) 
0

>  <fr_SH>  (53) 
0

>  <fr_aldehyde>  (53) 
0

>  <fr_alkyl_carbamate>  (53) 
0

>  <fr_alkyl_halide>  (53) 
0

>  <fr_allylic_oxid>  (53) 
0

>  <fr_amide>  (53) 
9

>  <fr_amidine>  (53) 
0

>  <fr_aniline>  (53) 
1

>  <fr_aryl_methyl>  (53) 
0

>  <fr_azide>  (53) 
0

>  <fr_azo>  (53) 
0

>  <fr_barbitur>  (53) 
0

>  <fr_benzene>  (53) 
1

>  <fr_benzodiazepine>  (53) 
0

>  <fr_bicyclic>  (53) 
2

>  <fr_diazo>  (53) 
0

>  <fr_dihydropyridine>  (53) 
0

>  <fr_epoxide>  (53) 
0

>  <fr_ester>  (53) 
0

>  <fr_ether>  (53) 
1

>  <fr_furan>  (53) 
0

>  <fr_guanido>  (53) 
6

>  <fr_halogen>  (53) 
0

>  <fr_hdrzine>  (53) 
0

>  <fr_hdrzone>  (53) 
0

>  <fr_imidazole>  (53) 
1

>  <fr_imide>  (53) 
1

>  <fr_isocyan>  (53) 
0

>  <fr_isothiocyan>  (53) 
0

>  <fr_ketone>  (53) 
0

>  <fr_ketone_Topliss>  (53) 
0

>  <fr_lactam>  (53) 
0

>  <fr_lactone>  (53) 
0

>  <fr_methoxy>  (53) 
0

>  <fr_morpholine>  (53) 
0

>  <fr_nitrile>  (53) 
0

>  <fr_nitro>  (53) 
0

>  <fr_nitro_arom>  (53) 
0

>  <fr_nitro_arom_nonortho>  (53) 
0

>  <fr_nitroso>  (53) 
0

>  <fr_oxazole>  (53) 
0

>  <fr_oxime>  (53) 
0

>  <fr_para_hydroxylation>  (53) 
0

>  <fr_phenol>  (53) 
0

>  <fr_phenol_noOrthoHbond>  (53) 
0

>  <fr_phos_acid>  (53) 
0

>  <fr_phos_ester>  (53) 
0

>  <fr_piperdine>  (53) 
0

>  <fr_piperzine>  (53) 
0

>  <fr_priamide>  (53) 
0

>  <fr_prisulfonamd>  (53) 
0

>  <fr_pyridine>  (53) 
1

>  <fr_quatN>  (53) 
0

>  <fr_sulfide>  (53) 
0

>  <fr_sulfonamd>  (53) 
1

>  <fr_sulfone>  (53) 
0

>  <fr_term_acetylene>  (53) 
0

>  <fr_tetrazole>  (53) 
0

>  <fr_thiazole>  (53) 
0

>  <fr_thiocyan>  (53) 
0

>  <fr_thiophene>  (53) 
0

>  <fr_unbrch_alkane>  (53) 
4

>  <fr_urea>  (53) 
0

>  <NP_Likeness>  (53) 
-0.066075

$$$$
CHEMBL4242549
     RDKit          3D

  0  0  0  0  0  0  0  0  0  0999 V3000
M  V30 BEGIN CTAB
M  V30 COUNTS 56 59 0 0 0
M  V30 BEGIN ATOM
M  V30 1 O 1.029754 -2.481891 1.607488 0
M  V30 2 C 0.732668 -3.107686 2.647611 0
M  V30 3 C 2.033421 -2.705689 3.238243 0
M  V30 4 C 2.778843 -2.078077 2.112262 0
M  V30 5 C 3.821465 -2.718495 1.553597 0
M  V30 6 C 4.615924 -2.358542 0.504543 0
M  V30 7 C 4.278049 -1.117405 -0.076968 0
M  V30 8 C 3.211014 -0.381421 0.435722 0
M  V30 9 O 2.814226 0.867316 -0.112551 0
M  V30 10 C 1.676308 1.529008 0.469589 0
M  V30 11 C 1.285120 2.784947 -0.207782 0
M  V30 12 N 0.111674 3.316926 0.400707 0
M  V30 13 C 0.180534 3.838998 1.697792 0
M  V30 14 C -1.191564 3.652723 2.363970 0
M  V30 15 C -2.330900 3.951338 1.433976 0
M  V30 16 C -2.271258 2.949304 0.271307 0
M  V30 17 C -0.944530 2.280684 0.314932 0
M  V30 18 C 2.501300 -0.857482 1.493579 0
M  V30 19 N -0.466471 -3.830580 2.875610 0
M  V30 20 C -1.336178 -3.642325 1.667360 0
M  V30 21 N -1.697814 -3.841232 0.683044 0
M  V30 22 C -2.136240 -4.034085 -0.434920 0
M  V30 23 C -2.604733 -4.573980 -1.647766 0
M  V30 24 C -2.999666 -5.625999 -2.363640 0
M  V30 25 C -3.172998 -6.059985 -3.576415 0
M  V30 26 N -2.848937 -5.142963 -4.507972 0
M  V30 27 C -2.390081 -3.897961 -4.118075 0
M  V30 28 C -2.295765 -3.674917 -2.775014 0
M  V30 29 C -3.011200 -2.874873 -0.229737 0
M  V30 30 S -2.553939 -2.305489 1.512543 0
M  V30 31 H 2.627502 -3.443366 3.726284 0
M  V30 32 H 1.846163 -1.893313 4.007469 0
M  V30 33 H 4.113141 -3.673405 1.970426 0
M  V30 34 H 5.482365 -2.870586 0.054121 0
M  V30 35 H 4.808125 -0.706306 -0.933989 0
M  V30 36 H 0.860764 0.813311 0.511690 0
M  V30 37 H 2.082580 1.839567 1.475523 0
M  V30 38 H 2.139327 3.530135 -0.155806 0
M  V30 39 H 1.063552 2.575518 -1.288957 0
M  V30 40 H 0.925648 3.417865 2.364795 0
M  V30 41 H 0.362362 4.961248 1.644149 0
M  V30 42 H -1.229453 4.315999 3.275764 0
M  V30 43 H -1.336413 2.644539 2.799277 0
M  V30 44 H -2.301795 4.973770 1.056584 0
M  V30 45 H -3.251147 3.762553 2.000228 0
M  V30 46 H -2.393263 3.553260 -0.644328 0
M  V30 47 H -3.086715 2.203099 0.355899 0
M  V30 48 H -0.861521 1.602693 1.182421 0
M  V30 49 H -0.702374 1.690712 -0.562434 0
M  V30 50 H 1.682107 -0.300015 1.916804 0
M  V30 51 H -0.364794 -4.249924 3.782614 0
M  V30 52 H -3.276836 -6.336465 -1.535796 0
M  V30 53 H -3.537131 -7.055324 -3.785071 0
M  V30 54 H -2.129163 -3.233435 -4.970350 0
M  V30 55 H -1.919522 -2.602657 -2.759320 0
M  V30 56 H -3.798029 -2.185502 -0.598190 0
M  V30 END ATOM
M  V30 BEGIN BOND
M  V30 1 2 1 2
M  V30 2 1 2 3
M  V30 3 1 3 4
M  V30 4 2 4 5
M  V30 5 1 5 6
M  V30 6 2 6 7
M  V30 7 1 7 8
M  V30 8 1 8 9
M  V30 9 1 9 10
M  V30 10 1 10 11
M  V30 11 1 11 12
M  V30 12 1 12 13
M  V30 13 1 13 14
M  V30 14 1 14 15
M  V30 15 1 15 16
M  V30 16 1 16 17
M  V30 17 2 8 18
M  V30 18 1 2 19
M  V30 19 1 19 20
M  V30 20 2 20 21
M  V30 21 1 21 22
M  V30 22 1 22 23
M  V30 23 2 23 24
M  V30 24 1 24 25
M  V30 25 2 25 26
M  V30 26 1 26 27
M  V30 27 2 27 28
M  V30 28 2 22 29
M  V30 29 1 29 30
M  V30 30 1 18 4
M  V30 31 1 30 20
M  V30 32 1 17 12
M  V30 33 1 28 23
M  V30 34 1 3 31
M  V30 35 1 3 32
M  V30 36 1 5 33
M  V30 37 1 6 34
M  V30 38 1 7 35
M  V30 39 1 10 36
M  V30 40 1 10 37
M  V30 41 1 11 38
M  V30 42 1 11 39
M  V30 43 1 13 40
M  V30 44 1 13 41
M  V30 45 1 14 42
M  V30 46 1 14 43
M  V30 47 1 15 44
M  V30 48 1 15 45
M  V30 49 1 16 46
M  V30 50 1 16 47
M  V30 51 1 17 48
M  V30 52 1 17 49
M  V30 53 1 18 50
M  V30 54 1 19 51
M  V30 55 1 24 52
M  V30 56 1 25 53
M  V30 57 1 27 54
M  V30 58 1 28 55
M  V30 59 1 29 56
M  V30 END BOND
M  V30 END CTAB
M  END
>  <Dataset>  (54) 
ChEMBL_PKA

>  <Ligand_Instance>  (54) 
nan

>  <PDB_ID>  (54) 
nan

>  <Standardized_SMILES>  (54) 
O=C(Cc1cccc(OCCN2CCCCC2)c1)Nc1nc(-c2ccncc2)cs1

>  <Name>  (54) 
nan

>  <Pocket>  (54) 
nan

>  <ATP_Site>  (54) 
nan

>  <Peripheral>  (54) 
nan

>  <Num_H_Atoms_ProtBoundConf>  (54) 
nan

>  <Num_Resolved_Atoms>  (54) 
nan

>  <Num_Not_Resolved_Atoms>  (54) 
nan

>  <2D_Mol_H>  (54) 
<rdkit.Chem.rdchem.Mol object at 0x72a239110510>

>  <MW>  (54) 
422.554

>  <HBA>  (54) 
6

>  <HBD>  (54) 
1

>  <LogP>  (54) 
4.251

>  <NRB>  (54) 
8

>  <TPSA>  (54) 
67.35

>  <Num_Heavy_Atoms>  (54) 
30

>  <Ro5>  (54) 
[True, True, True, True, True, True]

>  <Ro5_Fulfilled>  (54) 
True

>  <Ro3>  (54) 
[False, False, True, False]

>  <Ro3_Fulfilled>  (54) 
False

>  <Fsp3>  (54) 
0.347826

>  <Fsp3_0.42>  (54) 
False

>  <Fsp3_0.45>  (54) 
False

>  <Stereogenic_Carbons>  (54) 
0

>  <C_Atoms>  (54) 
23

>  <FCStereo>  (54) 
0.0

>  <SPS>  (54) 
432

>  <nSPS>  (54) 
14.4

>  <PBF>  (54) 
1.367899

>  <PBF_0.6>  (54) 
True

>  <nPBF>  (54) 
0.045597

>  <nPBF_0.016>  (54) 
True

>  <PMI1>  (54) 
3362.868439

>  <PMI2>  (54) 
5753.045732

>  <PMI3>  (54) 
6974.541439

>  <NPR1>  (54) 
0.482163

>  <NPR2>  (54) 
0.824864

>  <Sum_NPR>  (54) 
1.307027

>  <Sum_NPR_1.07>  (54) 
True

>  <Sum_NPR_1.2>  (54) 
True

>  <MaxAbsEStateIndex>  (54) 
12.457553

>  <MaxEStateIndex>  (54) 
12.457553

>  <MinAbsEStateIndex>  (54) 
0.086949

>  <MinEStateIndex>  (54) 
-0.086949

>  <qed>  (54) 
0.587772

>  <MolWt>  (54) 
422.554

>  <HeavyAtomMolWt>  (54) 
396.346

>  <ExactMolWt>  (54) 
422.177647

>  <NumValenceElectrons>  (54) 
156

>  <NumRadicalElectrons>  (54) 
0

>  <MaxPartialCharge>  (54) 
0.230077

>  <MinPartialCharge>  (54) 
-0.492254

>  <MaxAbsPartialCharge>  (54) 
0.492254

>  <MinAbsPartialCharge>  (54) 
0.230077

>  <FpDensityMorgan1>  (54) 
1.133333

>  <FpDensityMorgan2>  (54) 
1.966667

>  <FpDensityMorgan3>  (54) 
2.8

>  <BCUT2D_MWHI>  (54) 
32.133491

>  <BCUT2D_MWLOW>  (54) 
10.126122

>  <BCUT2D_CHGHI>  (54) 
2.110307

>  <BCUT2D_CHGLO>  (54) 
-2.256801

>  <BCUT2D_LOGPHI>  (54) 
2.241947

>  <BCUT2D_LOGPLOW>  (54) 
-2.327899

>  <BCUT2D_MRHI>  (54) 
7.137578

>  <BCUT2D_MRLOW>  (54) 
-0.115119

>  <AvgIpc>  (54) 
3.23622

>  <BalabanJ>  (54) 
1.269702

>  <BertzCT>  (54) 
954.601662

>  <Chi0>  (54) 
20.597801

>  <Chi0n>  (54) 
16.919392

>  <Chi0v>  (54) 
17.735889

>  <Chi1>  (54) 
14.759153

>  <Chi1n>  (54) 
10.360211

>  <Chi1v>  (54) 
11.239863

>  <Chi2n>  (54) 
7.396908

>  <Chi2v>  (54) 
8.255011

>  <Chi3n>  (54) 
5.114677

>  <Chi3v>  (54) 
5.872398

>  <Chi4n>  (54) 
3.556108

>  <Chi4v>  (54) 
4.29197

>  <HallKierAlpha>  (54) 
-2.77

>  <Ipc>  (54) 
12293286.784825

>  <Kappa1>  (54) 
20.500664

>  <Kappa2>  (54) 
10.316508

>  <Kappa3>  (54) 
5.870806

>  <LabuteASA>  (54) 
180.488662

>  <PEOE_VSA1>  (54) 
10.053652

>  <PEOE_VSA10>  (54) 
12.356394

>  <PEOE_VSA11>  (54) 
5.131558

>  <PEOE_VSA12>  (54) 
5.90718

>  <PEOE_VSA13>  (54) 
0.0

>  <PEOE_VSA14>  (54) 
0.0

>  <PEOE_VSA2>  (54) 
14.678425

>  <PEOE_VSA3>  (54) 
4.983979

>  <PEOE_VSA4>  (54) 
0.0

>  <PEOE_VSA5>  (54) 
11.336786

>  <PEOE_VSA6>  (54) 
18.553556

>  <PEOE_VSA7>  (54) 
55.760076

>  <PEOE_VSA8>  (54) 
29.881958

>  <PEOE_VSA9>  (54) 
12.11475

>  <SMR_VSA1>  (54) 
9.5314

>  <SMR_VSA10>  (54) 
22.375524

>  <SMR_VSA2>  (54) 
0.0

>  <SMR_VSA3>  (54) 
14.867867

>  <SMR_VSA4>  (54) 
0.0

>  <SMR_VSA5>  (54) 
25.683286

>  <SMR_VSA6>  (54) 
31.55794

>  <SMR_VSA7>  (54) 
59.735404

>  <SMR_VSA8>  (54) 
0.0

>  <SMR_VSA9>  (54) 
17.006891

>  <SlogP_VSA1>  (54) 
10.053652

>  <SlogP_VSA10>  (54) 
5.131558

>  <SlogP_VSA11>  (54) 
5.749512

>  <SlogP_VSA12>  (54) 
11.336786

>  <SlogP_VSA2>  (54) 
47.016198

>  <SlogP_VSA3>  (54) 
11.215359

>  <SlogP_VSA4>  (54) 
0.0

>  <SlogP_VSA5>  (54) 
24.825916

>  <SlogP_VSA6>  (54) 
54.171952

>  <SlogP_VSA7>  (54) 
0.0

>  <SlogP_VSA8>  (54) 
11.257379

>  <SlogP_VSA9>  (54) 
0.0

>  <EState_VSA1>  (54) 
0.0

>  <EState_VSA10>  (54) 
4.794537

>  <EState_VSA11>  (54) 
0.0

>  <EState_VSA2>  (54) 
12.328001

>  <EState_VSA3>  (54) 
11.73844

>  <EState_VSA4>  (54) 
29.115099

>  <EState_VSA5>  (54) 
43.688764

>  <EState_VSA6>  (54) 
12.393687

>  <EState_VSA7>  (54) 
41.778265

>  <EState_VSA8>  (54) 
20.184655

>  <EState_VSA9>  (54) 
4.736863

>  <VSA_EState1>  (54) 
5.912821

>  <VSA_EState10>  (54) 
1.418198

>  <VSA_EState2>  (54) 
23.42049

>  <VSA_EState3>  (54) 
5.421764

>  <VSA_EState4>  (54) 
2.742445

>  <VSA_EState5>  (54) 
0.724654

>  <VSA_EState6>  (54) 
11.56888

>  <VSA_EState7>  (54) 
7.658284

>  <VSA_EState8>  (54) 
3.965797

>  <VSA_EState9>  (54) 
0.0

>  <FractionCSP3>  (54) 
0.347826

>  <HeavyAtomCount>  (54) 
30

>  <NHOHCount>  (54) 
1

>  <NOCount>  (54) 
6

>  <NumAliphaticCarbocycles>  (54) 
0

>  <NumAliphaticHeterocycles>  (54) 
1

>  <NumAliphaticRings>  (54) 
1

>  <NumAromaticCarbocycles>  (54) 
1

>  <NumAromaticHeterocycles>  (54) 
2

>  <NumAromaticRings>  (54) 
3

>  <NumHAcceptors>  (54) 
6

>  <NumHDonors>  (54) 
1

>  <NumHeteroatoms>  (54) 
7

>  <NumRotatableBonds>  (54) 
8

>  <NumSaturatedCarbocycles>  (54) 
0

>  <NumSaturatedHeterocycles>  (54) 
1

>  <NumSaturatedRings>  (54) 
1

>  <RingCount>  (54) 
4

>  <MolLogP>  (54) 
4.251

>  <MolMR>  (54) 
119.9067

>  <fr_Al_COO>  (54) 
0

>  <fr_Al_OH>  (54) 
0

>  <fr_Al_OH_noTert>  (54) 
0

>  <fr_ArN>  (54) 
0

>  <fr_Ar_COO>  (54) 
0

>  <fr_Ar_N>  (54) 
2

>  <fr_Ar_NH>  (54) 
0

>  <fr_Ar_OH>  (54) 
0

>  <fr_COO>  (54) 
0

>  <fr_COO2>  (54) 
0

>  <fr_C_O>  (54) 
1

>  <fr_C_O_noCOO>  (54) 
1

>  <fr_C_S>  (54) 
0

>  <fr_HOCCN>  (54) 
0

>  <fr_Imine>  (54) 
0

>  <fr_NH0>  (54) 
3

>  <fr_NH1>  (54) 
1

>  <fr_NH2>  (54) 
0

>  <fr_N_O>  (54) 
0

>  <fr_Ndealkylation1>  (54) 
0

>  <fr_Ndealkylation2>  (54) 
1

>  <fr_Nhpyrrole>  (54) 
0

>  <fr_SH>  (54) 
0

>  <fr_aldehyde>  (54) 
0

>  <fr_alkyl_carbamate>  (54) 
0

>  <fr_alkyl_halide>  (54) 
0

>  <fr_allylic_oxid>  (54) 
0

>  <fr_amide>  (54) 
1

>  <fr_amidine>  (54) 
0

>  <fr_aniline>  (54) 
1

>  <fr_aryl_methyl>  (54) 
0

>  <fr_azide>  (54) 
0

>  <fr_azo>  (54) 
0

>  <fr_barbitur>  (54) 
0

>  <fr_benzene>  (54) 
1

>  <fr_benzodiazepine>  (54) 
0

>  <fr_bicyclic>  (54) 
0

>  <fr_diazo>  (54) 
0

>  <fr_dihydropyridine>  (54) 
0

>  <fr_epoxide>  (54) 
0

>  <fr_ester>  (54) 
0

>  <fr_ether>  (54) 
1

>  <fr_furan>  (54) 
0

>  <fr_guanido>  (54) 
0

>  <fr_halogen>  (54) 
0

>  <fr_hdrzine>  (54) 
0

>  <fr_hdrzone>  (54) 
0

>  <fr_imidazole>  (54) 
0

>  <fr_imide>  (54) 
0

>  <fr_isocyan>  (54) 
0

>  <fr_isothiocyan>  (54) 
0

>  <fr_ketone>  (54) 
0

>  <fr_ketone_Topliss>  (54) 
0

>  <fr_lactam>  (54) 
0

>  <fr_lactone>  (54) 
0

>  <fr_methoxy>  (54) 
0

>  <fr_morpholine>  (54) 
0

>  <fr_nitrile>  (54) 
0

>  <fr_nitro>  (54) 
0

>  <fr_nitro_arom>  (54) 
0

>  <fr_nitro_arom_nonortho>  (54) 
0

>  <fr_nitroso>  (54) 
0

>  <fr_oxazole>  (54) 
0

>  <fr_oxime>  (54) 
0

>  <fr_para_hydroxylation>  (54) 
0

>  <fr_phenol>  (54) 
0

>  <fr_phenol_noOrthoHbond>  (54) 
0

>  <fr_phos_acid>  (54) 
0

>  <fr_phos_ester>  (54) 
0

>  <fr_piperdine>  (54) 
1

>  <fr_piperzine>  (54) 
0

>  <fr_priamide>  (54) 
0

>  <fr_prisulfonamd>  (54) 
0

>  <fr_pyridine>  (54) 
1

>  <fr_quatN>  (54) 
0

>  <fr_sulfide>  (54) 
0

>  <fr_sulfonamd>  (54) 
0

>  <fr_sulfone>  (54) 
0

>  <fr_term_acetylene>  (54) 
0

>  <fr_tetrazole>  (54) 
0

>  <fr_thiazole>  (54) 
1

>  <fr_thiocyan>  (54) 
0

>  <fr_thiophene>  (54) 
0

>  <fr_unbrch_alkane>  (54) 
0

>  <fr_urea>  (54) 
0

>  <NP_Likeness>  (54) 
-2.06506

$$$$
CHEMBL4453941
     RDKit          3D

  0  0  0  0  0  0  0  0  0  0999 V3000
M  V30 BEGIN CTAB
M  V30 COUNTS 34 36 0 0 0
M  V30 BEGIN ATOM
M  V30 1 C -0.941021 -2.184474 2.734077 0
M  V30 2 C 0.410197 -2.729521 2.318935 0
M  V30 3 C 0.205395 -4.168029 1.924160 0
M  V30 4 C 1.255450 -2.670579 3.516161 0
M  V30 5 N 1.936613 -2.630969 4.448981 0
M  V30 6 C 0.987680 -1.916208 1.220676 0
M  V30 7 C 2.223129 -2.336636 0.773555 0
M  V30 8 C 2.797985 -1.598690 -0.256674 0
M  V30 9 C 2.088907 -0.518594 -0.738764 0
M  V30 10 C 0.854479 -0.098540 -0.291993 0
M  V30 11 C 0.170835 1.058932 -0.859157 0
M  V30 12 C 0.693707 1.823581 -1.878003 0
M  V30 13 C 0.036913 2.915473 -2.405222 0
M  V30 14 N -1.166748 3.273855 -1.925155 0
M  V30 15 C -1.696199 2.540980 -0.929939 0
M  V30 16 N -2.878075 2.728025 -0.313445 0
M  V30 17 C -3.053596 1.792763 0.625996 0
M  V30 18 C -1.920525 0.992166 0.581949 0
M  V30 19 C -1.064617 1.435666 -0.374236 0
M  V30 20 N 0.359869 -0.857321 0.703491 0
M  V30 21 H -0.774477 -1.104534 3.019704 0
M  V30 22 H -1.377666 -2.735607 3.571223 0
M  V30 23 H -1.604595 -2.164991 1.857377 0
M  V30 24 H -0.651055 -4.639231 2.450858 0
M  V30 25 H 1.104730 -4.734608 2.295614 0
M  V30 26 H 0.044361 -4.301138 0.848870 0
M  V30 27 H 2.733783 -3.183881 1.181857 0
M  V30 28 H 3.757269 -1.900062 -0.625933 0
M  V30 29 H 2.606767 -0.003010 -1.535444 0
M  V30 30 H 1.637571 1.597393 -2.302738 0
M  V30 31 H 0.474272 3.496797 -3.206136 0
M  V30 32 H -3.607061 3.467546 -0.482710 0
M  V30 33 H -3.907420 1.668040 1.300146 0
M  V30 34 H -1.738463 0.141922 1.210162 0
M  V30 END ATOM
M  V30 BEGIN BOND
M  V30 1 1 1 2
M  V30 2 1 2 3
M  V30 3 1 2 4
M  V30 4 3 4 5
M  V30 5 1 2 6
M  V30 6 2 6 7
M  V30 7 1 7 8
M  V30 8 2 8 9
M  V30 9 1 9 10
M  V30 10 1 10 11
M  V30 11 2 11 12
M  V30 12 1 12 13
M  V30 13 2 13 14
M  V30 14 1 14 15
M  V30 15 1 15 16
M  V30 16 1 16 17
M  V30 17 2 17 18
M  V30 18 1 18 19
M  V30 19 2 10 20
M  V30 20 1 20 6
M  V30 21 1 19 11
M  V30 22 2 19 15
M  V30 23 1 1 21
M  V30 24 1 1 22
M  V30 25 1 1 23
M  V30 26 1 3 24
M  V30 27 1 3 25
M  V30 28 1 3 26
M  V30 29 1 7 27
M  V30 30 1 8 28
M  V30 31 1 9 29
M  V30 32 1 12 30
M  V30 33 1 13 31
M  V30 34 1 16 32
M  V30 35 1 17 33
M  V30 36 1 18 34
M  V30 END BOND
M  V30 END CTAB
M  END
>  <Dataset>  (55) 
ChEMBL_PKA

>  <Ligand_Instance>  (55) 
nan

>  <PDB_ID>  (55) 
nan

>  <Standardized_SMILES>  (55) 
CC(C)(C#N)c1cccc(-c2ccnc3[nH]ccc23)n1

>  <Name>  (55) 
nan

>  <Pocket>  (55) 
nan

>  <ATP_Site>  (55) 
nan

>  <Peripheral>  (55) 
nan

>  <Num_H_Atoms_ProtBoundConf>  (55) 
nan

>  <Num_Resolved_Atoms>  (55) 
nan

>  <Num_Not_Resolved_Atoms>  (55) 
nan

>  <2D_Mol_H>  (55) 
<rdkit.Chem.rdchem.Mol object at 0x72a2391105f0>

>  <MW>  (55) 
262.316

>  <HBA>  (55) 
3

>  <HBD>  (55) 
1

>  <LogP>  (55) 
3.42608

>  <NRB>  (55) 
4

>  <TPSA>  (55) 
65.36

>  <Num_Heavy_Atoms>  (55) 
20

>  <Ro5>  (55) 
[True, True, True, True, True, True]

>  <Ro5_Fulfilled>  (55) 
True

>  <Ro3>  (55) 
[True, True, True, False]

>  <Ro3_Fulfilled>  (55) 
True

>  <Fsp3>  (55) 
0.1875

>  <Fsp3_0.42>  (55) 
False

>  <Fsp3_0.45>  (55) 
False

>  <Stereogenic_Carbons>  (55) 
0

>  <C_Atoms>  (55) 
16

>  <FCStereo>  (55) 
0.0

>  <SPS>  (55) 
229

>  <nSPS>  (55) 
11.45

>  <PBF>  (55) 
0.358716

>  <PBF_0.6>  (55) 
False

>  <nPBF>  (55) 
0.017936

>  <nPBF_0.016>  (55) 
True

>  <PMI1>  (55) 
730.032534

>  <PMI2>  (55) 
2328.444498

>  <PMI3>  (55) 
2857.714172

>  <NPR1>  (55) 
0.25546

>  <NPR2>  (55) 
0.814793

>  <Sum_NPR>  (55) 
1.070253

>  <Sum_NPR_1.07>  (55) 
True

>  <Sum_NPR_1.2>  (55) 
False

>  <MaxAbsEStateIndex>  (55) 
9.242632

>  <MaxEStateIndex>  (55) 
9.242632

>  <MinAbsEStateIndex>  (55) 
0.596922

>  <MinEStateIndex>  (55) 
-0.596922

>  <qed>  (55) 
0.769077

>  <MolWt>  (55) 
262.316

>  <HeavyAtomMolWt>  (55) 
248.204

>  <ExactMolWt>  (55) 
262.121846

>  <NumValenceElectrons>  (55) 
98

>  <NumRadicalElectrons>  (55) 
0

>  <MaxPartialCharge>  (55) 
0.137385

>  <MinPartialCharge>  (55) 
-0.346139

>  <MaxAbsPartialCharge>  (55) 
0.346139

>  <MinAbsPartialCharge>  (55) 
0.137385

>  <FpDensityMorgan1>  (55) 
1.2

>  <FpDensityMorgan2>  (55) 
2.05

>  <FpDensityMorgan3>  (55) 
2.85

>  <BCUT2D_MWHI>  (55) 
14.834884

>  <BCUT2D_MWLOW>  (55) 
9.902377

>  <BCUT2D_CHGHI>  (55) 
2.215381

>  <BCUT2D_CHGLO>  (55) 
-2.151348

>  <BCUT2D_LOGPHI>  (55) 
2.27663

>  <BCUT2D_LOGPLOW>  (55) 
-2.155601

>  <BCUT2D_MRHI>  (55) 
5.911954

>  <BCUT2D_MRLOW>  (55) 
0.660419

>  <AvgIpc>  (55) 
2.954115

>  <BalabanJ>  (55) 
2.187913

>  <BertzCT>  (55) 
808.454979

>  <Chi0>  (55) 
14.164926

>  <Chi0n>  (55) 
11.383093

>  <Chi0v>  (55) 
11.383093

>  <Chi1>  (55) 
9.615322

>  <Chi1n>  (55) 
6.429335

>  <Chi1v>  (55) 
6.429335

>  <Chi2n>  (55) 
5.243336

>  <Chi2v>  (55) 
5.243336

>  <Chi3n>  (55) 
3.405086

>  <Chi3v>  (55) 
3.405086

>  <Chi4n>  (55) 
2.17432

>  <Chi4v>  (55) 
2.17432

>  <HallKierAlpha>  (55) 
-2.67

>  <Ipc>  (55) 
59206.380886

>  <Kappa1>  (55) 
12.368221

>  <Kappa2>  (55) 
4.461145

>  <Kappa3>  (55) 
1.935433

>  <LabuteASA>  (55) 
116.670966

>  <PEOE_VSA1>  (55) 
4.983979

>  <PEOE_VSA10>  (55) 
5.647177

>  <PEOE_VSA11>  (55) 
0.0

>  <PEOE_VSA12>  (55) 
0.0

>  <PEOE_VSA13>  (55) 
0.0

>  <PEOE_VSA14>  (55) 
0.0

>  <PEOE_VSA2>  (55) 
4.983979

>  <PEOE_VSA3>  (55) 
4.983979

>  <PEOE_VSA4>  (55) 
5.261892

>  <PEOE_VSA5>  (55) 
0.0

>  <PEOE_VSA6>  (55) 
6.066367

>  <PEOE_VSA7>  (55) 
38.112943

>  <PEOE_VSA8>  (55) 
23.343363

>  <PEOE_VSA9>  (55) 
22.872068

>  <SMR_VSA1>  (55) 
0.0

>  <SMR_VSA10>  (55) 
11.033401

>  <SMR_VSA2>  (55) 
5.261892

>  <SMR_VSA3>  (55) 
14.951936

>  <SMR_VSA4>  (55) 
0.0

>  <SMR_VSA5>  (55) 
19.262465

>  <SMR_VSA6>  (55) 
0.0

>  <SMR_VSA7>  (55) 
48.41945

>  <SMR_VSA8>  (55) 
0.0

>  <SMR_VSA9>  (55) 
17.326601

>  <SlogP_VSA1>  (55) 
0.0

>  <SlogP_VSA10>  (55) 
0.0

>  <SlogP_VSA11>  (55) 
0.0

>  <SlogP_VSA12>  (55) 
0.0

>  <SlogP_VSA2>  (55) 
14.951936

>  <SlogP_VSA3>  (55) 
5.41499

>  <SlogP_VSA4>  (55) 
11.331113

>  <SlogP_VSA5>  (55) 
19.541402

>  <SlogP_VSA6>  (55) 
42.725522

>  <SlogP_VSA7>  (55) 
0.0

>  <SlogP_VSA8>  (55) 
22.290781

>  <SlogP_VSA9>  (55) 
0.0

>  <EState_VSA1>  (55) 
5.41499

>  <EState_VSA10>  (55) 
5.261892

>  <EState_VSA11>  (55) 
0.0

>  <EState_VSA2>  (55) 
0.0

>  <EState_VSA3>  (55) 
0.0

>  <EState_VSA4>  (55) 
27.984709

>  <EState_VSA5>  (55) 
0.0

>  <EState_VSA6>  (55) 
6.196844

>  <EState_VSA7>  (55) 
50.376153

>  <EState_VSA8>  (55) 
21.021157

>  <EState_VSA9>  (55) 
0.0

>  <VSA_EState1>  (55) 
0.0

>  <VSA_EState10>  (55) 
0.0

>  <VSA_EState2>  (55) 
12.024602

>  <VSA_EState3>  (55) 
10.276812

>  <VSA_EState4>  (55) 
2.900216

>  <VSA_EState5>  (55) 
0.0

>  <VSA_EState6>  (55) 
12.009398

>  <VSA_EState7>  (55) 
3.627173

>  <VSA_EState8>  (55) 
3.745133

>  <VSA_EState9>  (55) 
0.0

>  <FractionCSP3>  (55) 
0.1875

>  <HeavyAtomCount>  (55) 
20

>  <NHOHCount>  (55) 
1

>  <NOCount>  (55) 
4

>  <NumAliphaticCarbocycles>  (55) 
0

>  <NumAliphaticHeterocycles>  (55) 
0

>  <NumAliphaticRings>  (55) 
0

>  <NumAromaticCarbocycles>  (55) 
0

>  <NumAromaticHeterocycles>  (55) 
3

>  <NumAromaticRings>  (55) 
3

>  <NumHAcceptors>  (55) 
3

>  <NumHDonors>  (55) 
1

>  <NumHeteroatoms>  (55) 
4

>  <NumRotatableBonds>  (55) 
2

>  <NumSaturatedCarbocycles>  (55) 
0

>  <NumSaturatedHeterocycles>  (55) 
0

>  <NumSaturatedRings>  (55) 
0

>  <RingCount>  (55) 
3

>  <MolLogP>  (55) 
3.42608

>  <MolMR>  (55) 
77.9637

>  <fr_Al_COO>  (55) 
0

>  <fr_Al_OH>  (55) 
0

>  <fr_Al_OH_noTert>  (55) 
0

>  <fr_ArN>  (55) 
0

>  <fr_Ar_COO>  (55) 
0

>  <fr_Ar_N>  (55) 
3

>  <fr_Ar_NH>  (55) 
1

>  <fr_Ar_OH>  (55) 
0

>  <fr_COO>  (55) 
0

>  <fr_COO2>  (55) 
0

>  <fr_C_O>  (55) 
0

>  <fr_C_O_noCOO>  (55) 
0

>  <fr_C_S>  (55) 
0

>  <fr_HOCCN>  (55) 
0

>  <fr_Imine>  (55) 
0

>  <fr_NH0>  (55) 
3

>  <fr_NH1>  (55) 
1

>  <fr_NH2>  (55) 
0

>  <fr_N_O>  (55) 
0

>  <fr_Ndealkylation1>  (55) 
0

>  <fr_Ndealkylation2>  (55) 
0

>  <fr_Nhpyrrole>  (55) 
1

>  <fr_SH>  (55) 
0

>  <fr_aldehyde>  (55) 
0

>  <fr_alkyl_carbamate>  (55) 
0

>  <fr_alkyl_halide>  (55) 
0

>  <fr_allylic_oxid>  (55) 
0

>  <fr_amide>  (55) 
0

>  <fr_amidine>  (55) 
0

>  <fr_aniline>  (55) 
0

>  <fr_aryl_methyl>  (55) 
0

>  <fr_azide>  (55) 
0

>  <fr_azo>  (55) 
0

>  <fr_barbitur>  (55) 
0

>  <fr_benzene>  (55) 
0

>  <fr_benzodiazepine>  (55) 
0

>  <fr_bicyclic>  (55) 
1

>  <fr_diazo>  (55) 
0

>  <fr_dihydropyridine>  (55) 
0

>  <fr_epoxide>  (55) 
0

>  <fr_ester>  (55) 
0

>  <fr_ether>  (55) 
0

>  <fr_furan>  (55) 
0

>  <fr_guanido>  (55) 
0

>  <fr_halogen>  (55) 
0

>  <fr_hdrzine>  (55) 
0

>  <fr_hdrzone>  (55) 
0

>  <fr_imidazole>  (55) 
0

>  <fr_imide>  (55) 
0

>  <fr_isocyan>  (55) 
0

>  <fr_isothiocyan>  (55) 
0

>  <fr_ketone>  (55) 
0

>  <fr_ketone_Topliss>  (55) 
0

>  <fr_lactam>  (55) 
0

>  <fr_lactone>  (55) 
0

>  <fr_methoxy>  (55) 
0

>  <fr_morpholine>  (55) 
0

>  <fr_nitrile>  (55) 
1

>  <fr_nitro>  (55) 
0

>  <fr_nitro_arom>  (55) 
0

>  <fr_nitro_arom_nonortho>  (55) 
0

>  <fr_nitroso>  (55) 
0

>  <fr_oxazole>  (55) 
0

>  <fr_oxime>  (55) 
0

>  <fr_para_hydroxylation>  (55) 
0

>  <fr_phenol>  (55) 
0

>  <fr_phenol_noOrthoHbond>  (55) 
0

>  <fr_phos_acid>  (55) 
0

>  <fr_phos_ester>  (55) 
0

>  <fr_piperdine>  (55) 
0

>  <fr_piperzine>  (55) 
0

>  <fr_priamide>  (55) 
0

>  <fr_prisulfonamd>  (55) 
0

>  <fr_pyridine>  (55) 
2

>  <fr_quatN>  (55) 
0

>  <fr_sulfide>  (55) 
0

>  <fr_sulfonamd>  (55) 
0

>  <fr_sulfone>  (55) 
0

>  <fr_term_acetylene>  (55) 
0

>  <fr_tetrazole>  (55) 
0

>  <fr_thiazole>  (55) 
0

>  <fr_thiocyan>  (55) 
0

>  <fr_thiophene>  (55) 
0

>  <fr_unbrch_alkane>  (55) 
0

>  <fr_urea>  (55) 
0

>  <NP_Likeness>  (55) 
-0.807488

$$$$
CHEMBL4457150
     RDKit          3D

  0  0  0  0  0  0  0  0  0  0999 V3000
M  V30 BEGIN CTAB
M  V30 COUNTS 46 49 0 0 0
M  V30 BEGIN ATOM
M  V30 1 N -0.314249 -3.025855 2.995822 0
M  V30 2 C -1.236907 -2.678199 1.926918 0
M  V30 3 C -0.498784 -2.634908 0.579138 0
M  V30 4 C 0.533536 -1.611979 0.740921 0
M  V30 5 C 1.805796 -1.910574 1.180673 0
M  V30 6 C 2.743373 -0.908316 1.319696 0
M  V30 7 C 2.376237 0.408830 1.006629 0
M  V30 8 C 1.081228 0.735403 0.555925 0
M  V30 9 C 1.065795 2.157649 0.287903 0
M  V30 10 C 1.771014 2.419655 -0.898308 0
M  V30 11 C 1.884267 3.723622 -1.395372 0
M  V30 12 N 1.311699 4.737844 -0.728978 0
M  V30 13 C 0.632431 4.515789 0.408225 0
M  V30 14 N -0.029825 5.252332 1.338896 0
M  V30 15 N -0.501967 4.479548 2.307714 0
M  V30 16 C -0.185108 3.178695 2.083332 0
M  V30 17 C -0.598674 2.055167 2.954946 0
M  V30 18 F -1.505719 1.200373 2.384322 0
M  V30 19 F 0.514439 1.360988 3.427608 0
M  V30 20 F -1.206331 2.565061 4.079363 0
M  V30 21 C 0.510985 3.244305 0.908508 0
M  V30 22 C 0.218562 -0.332455 0.449731 0
M  V30 23 C 0.232181 -3.951892 0.433203 0
M  V30 24 C -0.607046 -5.038334 -0.158520 0
M  V30 25 O -1.396296 -4.631595 -1.217720 0
M  V30 26 C -1.111008 -3.339852 -1.645355 0
M  V30 27 C -1.502229 -2.428513 -0.482343 0
M  V30 28 H -0.535995 -3.988569 3.338900 0
M  V30 29 H -0.310416 -2.312897 3.770194 0
M  V30 30 H -1.678061 -1.684357 2.150809 0
M  V30 31 H -2.064654 -3.405584 1.910288 0
M  V30 32 H 2.080484 -2.945417 1.423023 0
M  V30 33 H 3.718676 -1.215797 1.668568 0
M  V30 34 H 3.241773 1.067671 1.175216 0
M  V30 35 H 2.287763 1.696759 -1.545235 0
M  V30 36 H 2.414359 3.969805 -2.300054 0
M  V30 37 H -0.137207 6.305350 1.270198 0
M  V30 38 H -0.721089 0.071894 0.093403 0
M  V30 39 H 0.543143 -4.282589 1.445628 0
M  V30 40 H 1.160543 -3.833432 -0.161393 0
M  V30 41 H 0.071800 -5.831453 -0.536564 0
M  V30 42 H -1.248658 -5.514627 0.609452 0
M  V30 43 H -0.012598 -3.280094 -1.793970 0
M  V30 44 H -1.687984 -3.132748 -2.544640 0
M  V30 45 H -2.490209 -2.852418 -0.128662 0
M  V30 46 H -1.730774 -1.420755 -0.800140 0
M  V30 END ATOM
M  V30 BEGIN BOND
M  V30 1 1 1 2
M  V30 2 1 2 3
M  V30 3 1 3 4
M  V30 4 2 4 5
M  V30 5 1 5 6
M  V30 6 2 6 7
M  V30 7 1 7 8
M  V30 8 1 8 9
M  V30 9 2 9 10
M  V30 10 1 10 11
M  V30 11 2 11 12
M  V30 12 1 12 13
M  V30 13 1 13 14
M  V30 14 1 14 15
M  V30 15 2 15 16
M  V30 16 1 16 17
M  V30 17 1 17 18
M  V30 18 1 17 19
M  V30 19 1 17 20
M  V30 20 1 16 21
M  V30 21 2 8 22
M  V30 22 1 3 23
M  V30 23 1 23 24
M  V30 24 1 24 25
M  V30 25 1 25 26
M  V30 26 1 26 27
M  V30 27 1 27 3
M  V30 28 1 22 4
M  V30 29 1 21 9
M  V30 30 2 21 13
M  V30 31 1 1 28
M  V30 32 1 1 29
M  V30 33 1 2 30
M  V30 34 1 2 31
M  V30 35 1 5 32
M  V30 36 1 6 33
M  V30 37 1 7 34
M  V30 38 1 10 35
M  V30 39 1 11 36
M  V30 40 1 14 37
M  V30 41 1 22 38
M  V30 42 1 23 39
M  V30 43 1 23 40
M  V30 44 1 24 41
M  V30 45 1 24 42
M  V30 46 1 26 43
M  V30 47 1 26 44
M  V30 48 1 27 45
M  V30 49 1 27 46
M  V30 END BOND
M  V30 END CTAB
M  END
>  <Dataset>  (56) 
ChEMBL_PKA

>  <Ligand_Instance>  (56) 
nan

>  <PDB_ID>  (56) 
nan

>  <Standardized_SMILES>  (56) 
NCC1(c2cccc(-c3ccnc4[nH]nc(C(F)(F)F)c34)c2)CCOCC1

>  <Name>  (56) 
nan

>  <Pocket>  (56) 
nan

>  <ATP_Site>  (56) 
nan

>  <Peripheral>  (56) 
nan

>  <Num_H_Atoms_ProtBoundConf>  (56) 
nan

>  <Num_Resolved_Atoms>  (56) 
nan

>  <Num_Not_Resolved_Atoms>  (56) 
nan

>  <2D_Mol_H>  (56) 
<rdkit.Chem.rdchem.Mol object at 0x72a2391106d0>

>  <MW>  (56) 
376.382

>  <HBA>  (56) 
4

>  <HBD>  (56) 
2

>  <LogP>  (56) 
3.6506

>  <NRB>  (56) 
4

>  <TPSA>  (56) 
76.82

>  <Num_Heavy_Atoms>  (56) 
27

>  <Ro5>  (56) 
[True, True, True, True, True, True]

>  <Ro5_Fulfilled>  (56) 
True

>  <Ro3>  (56) 
[False, False, True, False]

>  <Ro3_Fulfilled>  (56) 
False

>  <Fsp3>  (56) 
0.368421

>  <Fsp3_0.42>  (56) 
False

>  <Fsp3_0.45>  (56) 
False

>  <Stereogenic_Carbons>  (56) 
0

>  <C_Atoms>  (56) 
19

>  <FCStereo>  (56) 
0.0

>  <SPS>  (56) 
468

>  <nSPS>  (56) 
17.333333

>  <PBF>  (56) 
1.057388

>  <PBF_0.6>  (56) 
True

>  <nPBF>  (56) 
0.039163

>  <nPBF_0.016>  (56) 
True

>  <PMI1>  (56) 
1401.32357

>  <PMI2>  (56) 
4175.898254

>  <PMI3>  (56) 
4711.582512

>  <NPR1>  (56) 
0.297421

>  <NPR2>  (56) 
0.886305

>  <Sum_NPR>  (56) 
1.183726

>  <Sum_NPR_1.07>  (56) 
True

>  <Sum_NPR_1.2>  (56) 
False

>  <MaxAbsEStateIndex>  (56) 
13.391894

>  <MaxEStateIndex>  (56) 
13.391894

>  <MinAbsEStateIndex>  (56) 
0.017661

>  <MinEStateIndex>  (56) 
-4.562665

>  <qed>  (56) 
0.731567

>  <MolWt>  (56) 
376.382

>  <HeavyAtomMolWt>  (56) 
357.23

>  <ExactMolWt>  (56) 
376.151096

>  <NumValenceElectrons>  (56) 
142

>  <NumRadicalElectrons>  (56) 
0

>  <MaxPartialCharge>  (56) 
0.435364

>  <MinPartialCharge>  (56) 
-0.381382

>  <MaxAbsPartialCharge>  (56) 
0.435364

>  <MinAbsPartialCharge>  (56) 
0.381382

>  <FpDensityMorgan1>  (56) 
1.185185

>  <FpDensityMorgan2>  (56) 
1.962963

>  <FpDensityMorgan3>  (56) 
2.666667

>  <BCUT2D_MWHI>  (56) 
19.41323

>  <BCUT2D_MWLOW>  (56) 
9.734295

>  <BCUT2D_CHGHI>  (56) 
2.374448

>  <BCUT2D_CHGLO>  (56) 
-2.365419

>  <BCUT2D_LOGPHI>  (56) 
2.395976

>  <BCUT2D_LOGPLOW>  (56) 
-2.401034

>  <BCUT2D_MRHI>  (56) 
5.944722

>  <BCUT2D_MRLOW>  (56) 
-0.139456

>  <AvgIpc>  (56) 
3.131803

>  <BalabanJ>  (56) 
1.867488

>  <BertzCT>  (56) 
960.988321

>  <Chi0>  (56) 
19.070703

>  <Chi0n>  (56) 
14.513555

>  <Chi0v>  (56) 
14.513555

>  <Chi1>  (56) 
12.944437

>  <Chi1n>  (56) 
8.7356

>  <Chi1v>  (56) 
8.7356

>  <Chi2n>  (56) 
6.829723

>  <Chi2v>  (56) 
6.829723

>  <Chi3n>  (56) 
5.356489

>  <Chi3v>  (56) 
5.356489

>  <Chi4n>  (56) 
3.786095

>  <Chi4v>  (56) 
3.786095

>  <HallKierAlpha>  (56) 
-2.45

>  <Ipc>  (56) 
1940064.172968

>  <Kappa1>  (56) 
17.938665

>  <Kappa2>  (56) 
6.614315

>  <Kappa3>  (56) 
3.084054

>  <LabuteASA>  (56) 
153.285878

>  <PEOE_VSA1>  (56) 
10.47053

>  <PEOE_VSA10>  (56) 
0.0

>  <PEOE_VSA11>  (56) 
11.341105

>  <PEOE_VSA12>  (56) 
0.0

>  <PEOE_VSA13>  (56) 
0.0

>  <PEOE_VSA14>  (56) 
6.176299

>  <PEOE_VSA2>  (56) 
5.098682

>  <PEOE_VSA3>  (56) 
4.983979

>  <PEOE_VSA4>  (56) 
18.269927

>  <PEOE_VSA5>  (56) 
0.0

>  <PEOE_VSA6>  (56) 
24.265468

>  <PEOE_VSA7>  (56) 
35.598365

>  <PEOE_VSA8>  (56) 
31.370354

>  <PEOE_VSA9>  (56) 
5.386224

>  <SMR_VSA1>  (56) 
17.908108

>  <SMR_VSA10>  (56) 
11.033401

>  <SMR_VSA2>  (56) 
0.0

>  <SMR_VSA3>  (56) 
15.181342

>  <SMR_VSA4>  (56) 
5.733667

>  <SMR_VSA5>  (56) 
24.432932

>  <SMR_VSA6>  (56) 
19.75852

>  <SMR_VSA7>  (56) 
47.786058

>  <SMR_VSA8>  (56) 
0.0

>  <SMR_VSA9>  (56) 
11.126903

>  <SlogP_VSA1>  (56) 
5.733667

>  <SlogP_VSA10>  (56) 
13.171245

>  <SlogP_VSA11>  (56) 
0.0

>  <SlogP_VSA12>  (56) 
0.0

>  <SlogP_VSA2>  (56) 
34.939862

>  <SlogP_VSA3>  (56) 
16.328152

>  <SlogP_VSA4>  (56) 
0.0

>  <SlogP_VSA5>  (56) 
24.099023

>  <SlogP_VSA6>  (56) 
36.528679

>  <SlogP_VSA7>  (56) 
0.0

>  <SlogP_VSA8>  (56) 
22.160304

>  <SlogP_VSA9>  (56) 
0.0

>  <EState_VSA1>  (56) 
11.870227

>  <EState_VSA10>  (56) 
13.171245

>  <EState_VSA11>  (56) 
0.0

>  <EState_VSA2>  (56) 
16.448392

>  <EState_VSA3>  (56) 
30.885423

>  <EState_VSA4>  (56) 
18.405095

>  <EState_VSA5>  (56) 
6.196844

>  <EState_VSA6>  (56) 
12.132734

>  <EState_VSA7>  (56) 
18.199101

>  <EState_VSA8>  (56) 
15.181342

>  <EState_VSA9>  (56) 
10.47053

>  <VSA_EState1>  (56) 
45.637832

>  <VSA_EState10>  (56) 
0.0

>  <VSA_EState2>  (56) 
3.989048

>  <VSA_EState3>  (56) 
5.812006

>  <VSA_EState4>  (56) 
7.182561

>  <VSA_EState5>  (56) 
0.0

>  <VSA_EState6>  (56) 
9.164323

>  <VSA_EState7>  (56) 
-1.500894

>  <VSA_EState8>  (56) 
1.715125

>  <VSA_EState9>  (56) 
0.0

>  <FractionCSP3>  (56) 
0.368421

>  <HeavyAtomCount>  (56) 
27

>  <NHOHCount>  (56) 
3

>  <NOCount>  (56) 
5

>  <NumAliphaticCarbocycles>  (56) 
0

>  <NumAliphaticHeterocycles>  (56) 
1

>  <NumAliphaticRings>  (56) 
1

>  <NumAromaticCarbocycles>  (56) 
1

>  <NumAromaticHeterocycles>  (56) 
2

>  <NumAromaticRings>  (56) 
3

>  <NumHAcceptors>  (56) 
4

>  <NumHDonors>  (56) 
2

>  <NumHeteroatoms>  (56) 
8

>  <NumRotatableBonds>  (56) 
3

>  <NumSaturatedCarbocycles>  (56) 
0

>  <NumSaturatedHeterocycles>  (56) 
1

>  <NumSaturatedRings>  (56) 
1

>  <RingCount>  (56) 
4

>  <MolLogP>  (56) 
3.6506

>  <MolMR>  (56) 
95.1121

>  <fr_Al_COO>  (56) 
0

>  <fr_Al_OH>  (56) 
0

>  <fr_Al_OH_noTert>  (56) 
0

>  <fr_ArN>  (56) 
0

>  <fr_Ar_COO>  (56) 
0

>  <fr_Ar_N>  (56) 
3

>  <fr_Ar_NH>  (56) 
1

>  <fr_Ar_OH>  (56) 
0

>  <fr_COO>  (56) 
0

>  <fr_COO2>  (56) 
0

>  <fr_C_O>  (56) 
0

>  <fr_C_O_noCOO>  (56) 
0

>  <fr_C_S>  (56) 
0

>  <fr_HOCCN>  (56) 
0

>  <fr_Imine>  (56) 
0

>  <fr_NH0>  (56) 
2

>  <fr_NH1>  (56) 
1

>  <fr_NH2>  (56) 
1

>  <fr_N_O>  (56) 
0

>  <fr_Ndealkylation1>  (56) 
0

>  <fr_Ndealkylation2>  (56) 
0

>  <fr_Nhpyrrole>  (56) 
1

>  <fr_SH>  (56) 
0

>  <fr_aldehyde>  (56) 
0

>  <fr_alkyl_carbamate>  (56) 
0

>  <fr_alkyl_halide>  (56) 
3

>  <fr_allylic_oxid>  (56) 
0

>  <fr_amide>  (56) 
0

>  <fr_amidine>  (56) 
0

>  <fr_aniline>  (56) 
0

>  <fr_aryl_methyl>  (56) 
0

>  <fr_azide>  (56) 
0

>  <fr_azo>  (56) 
0

>  <fr_barbitur>  (56) 
0

>  <fr_benzene>  (56) 
1

>  <fr_benzodiazepine>  (56) 
0

>  <fr_bicyclic>  (56) 
1

>  <fr_diazo>  (56) 
0

>  <fr_dihydropyridine>  (56) 
0

>  <fr_epoxide>  (56) 
0

>  <fr_ester>  (56) 
0

>  <fr_ether>  (56) 
1

>  <fr_furan>  (56) 
0

>  <fr_guanido>  (56) 
0

>  <fr_halogen>  (56) 
3

>  <fr_hdrzine>  (56) 
0

>  <fr_hdrzone>  (56) 
0

>  <fr_imidazole>  (56) 
0

>  <fr_imide>  (56) 
0

>  <fr_isocyan>  (56) 
0

>  <fr_isothiocyan>  (56) 
0

>  <fr_ketone>  (56) 
0

>  <fr_ketone_Topliss>  (56) 
0

>  <fr_lactam>  (56) 
0

>  <fr_lactone>  (56) 
0

>  <fr_methoxy>  (56) 
0

>  <fr_morpholine>  (56) 
0

>  <fr_nitrile>  (56) 
0

>  <fr_nitro>  (56) 
0

>  <fr_nitro_arom>  (56) 
0

>  <fr_nitro_arom_nonortho>  (56) 
0

>  <fr_nitroso>  (56) 
0

>  <fr_oxazole>  (56) 
0

>  <fr_oxime>  (56) 
0

>  <fr_para_hydroxylation>  (56) 
0

>  <fr_phenol>  (56) 
0

>  <fr_phenol_noOrthoHbond>  (56) 
0

>  <fr_phos_acid>  (56) 
0

>  <fr_phos_ester>  (56) 
0

>  <fr_piperdine>  (56) 
0

>  <fr_piperzine>  (56) 
0

>  <fr_priamide>  (56) 
0

>  <fr_prisulfonamd>  (56) 
0

>  <fr_pyridine>  (56) 
1

>  <fr_quatN>  (56) 
0

>  <fr_sulfide>  (56) 
0

>  <fr_sulfonamd>  (56) 
0

>  <fr_sulfone>  (56) 
0

>  <fr_term_acetylene>  (56) 
0

>  <fr_tetrazole>  (56) 
0

>  <fr_thiazole>  (56) 
0

>  <fr_thiocyan>  (56) 
0

>  <fr_thiophene>  (56) 
0

>  <fr_unbrch_alkane>  (56) 
0

>  <fr_urea>  (56) 
0

>  <NP_Likeness>  (56) 
-0.789702

$$$$
CHEMBL4465866
     RDKit          3D

  0  0  0  0  0  0  0  0  0  0999 V3000
M  V30 BEGIN CTAB
M  V30 COUNTS 120 130 0 0 0
M  V30 BEGIN ATOM
M  V30 1 C 0.617375 -3.766722 -7.061061 0
M  V30 2 O 0.654148 -3.359794 -5.731980 0
M  V30 3 C 1.896137 -3.649846 -5.147244 0 CFG=2
M  V30 4 C 1.710001 -4.700970 -4.141190 0 CFG=2
M  V30 5 N 0.426732 -4.565437 -3.402360 0
M  V30 6 C 0.012492 -5.842009 -2.921536 0
M  V30 7 C -1.239701 -5.928693 -2.177240 0
M  V30 8 O -1.326517 -5.213966 -0.964306 0
M  V30 9 C -2.586698 -5.523518 -0.456024 0
M  V30 10 C -3.008464 -5.105566 0.863674 0
M  V30 11 O -3.073449 -3.784834 1.228109 0
M  V30 12 C -3.660806 -3.783018 2.516304 0
M  V30 13 C -3.844914 -2.452058 3.129032 0
M  V30 14 O -2.733612 -1.693537 3.372169 0
M  V30 15 C -1.910732 -2.241265 4.315938 0
M  V30 16 C -0.634019 -1.530270 4.606706 0
M  V30 17 N -0.719496 -0.181101 5.087095 0
M  V30 18 C -1.272183 1.005526 4.475516 0
M  V30 19 O -1.700822 0.590534 3.374843 0
M  V30 20 C -1.121998 2.185873 5.336637 0
M  V30 21 C -1.557011 3.498409 4.771485 0
M  V30 22 C -0.808026 3.847807 3.548222 0
M  V30 23 N 0.165264 4.736282 3.494321 0 CHG=1 VAL=4
M  V30 24 C 0.682142 4.832925 2.167883 0
M  V30 25 C 1.670855 5.628502 1.805086 0
M  V30 26 C 2.295872 6.476668 2.800653 0
M  V30 27 C 3.340121 7.381426 2.661617 0
M  V30 28 C 4.060569 7.675011 1.381643 0
M  V30 29 C 3.504596 7.889000 3.932800 0
M  V30 30 C 2.589088 7.308635 4.806370 0
M  V30 31 C 2.494924 7.634801 6.266836 0
M  V30 32 N 1.862122 6.444629 4.072156 0
M  V30 33 B 0.739313 5.583950 4.615617 0 CHG=-1 VAL=4
M  V30 34 F 1.165541 4.776885 5.746732 0
M  V30 35 F -0.319208 6.486010 5.074099 0
M  V30 36 C -0.075671 3.888636 1.337373 0
M  V30 37 C -0.928007 3.343560 2.189459 0
M  V30 38 C 2.836554 -4.753671 -3.124305 0
M  V30 39 C 2.960554 -3.373347 -2.609671 0 CFG=1
M  V30 40 O 3.314398 -2.497214 -3.557370 0
M  V30 41 C 2.634886 -2.387541 -4.727710 0 CFG=1
M  V30 42 C 3.631798 -2.077601 -5.784423 0
M  V30 43 N 1.561202 -1.432149 -4.537948 0
M  V30 44 C 1.023296 -0.574909 -5.385889 0
M  V30 45 C 1.313286 -0.232757 -6.682700 0
M  V30 46 C 0.632161 0.698409 -7.428449 0
M  V30 47 C -0.425407 1.340968 -6.833020 0
M  V30 48 C -0.781532 1.049886 -5.526468 0
M  V30 49 C -0.049085 0.103403 -4.843286 0
M  V30 50 C -0.153800 -0.396760 -3.565385 0
M  V30 51 C -1.049453 -0.148423 -2.522081 0
M  V30 52 C -0.886983 -0.860627 -1.361772 0
M  V30 53 C 0.098494 -1.780645 -1.195234 0
M  V30 54 C 0.430501 -2.555838 -0.156161 0
M  V30 55 C 0.021576 -2.828533 1.110883 0
M  V30 56 C 0.631306 -3.738199 1.944492 0
M  V30 57 C 1.731743 -4.450512 1.527255 0
M  V30 58 C 2.194107 -4.217936 0.252347 0
M  V30 59 C 1.532300 -3.293720 -0.522021 0
M  V30 60 N 1.853679 -2.955658 -1.777442 0
M  V30 61 C 0.963600 -2.020208 -2.201874 0
M  V30 62 C 0.838520 -1.330102 -3.395287 0
M  V30 63 C -1.951586 -0.379822 -0.529387 0
M  V30 64 O -2.335184 -0.627262 0.615677 0
M  V30 65 N -2.731758 0.601907 -1.185729 0
M  V30 66 C -2.182255 0.812937 -2.526115 0
M  V30 67 H 0.784099 -4.858955 -7.190795 0
M  V30 68 H -0.355194 -3.443997 -7.453920 0
M  V30 69 H 1.393035 -3.279859 -7.688732 0
M  V30 70 H 2.450271 -4.142769 -6.008599 0
M  V30 71 H 1.654908 -5.717314 -4.583549 0
M  V30 72 H -0.257414 -4.080972 -3.990867 0
M  V30 73 H 0.823134 -6.293760 -2.275968 0
M  V30 74 H 0.023541 -6.531617 -3.826963 0
M  V30 75 H -1.395656 -7.013767 -1.869161 0
M  V30 76 H -2.152199 -5.714613 -2.798582 0
M  V30 77 H -2.619118 -6.663001 -0.485768 0
M  V30 78 H -3.380161 -5.243241 -1.211557 0
M  V30 79 H -4.084004 -5.485300 1.006008 0
M  V30 80 H -2.481023 -5.674156 1.695725 0
M  V30 81 H -4.685103 -4.253801 2.443904 0
M  V30 82 H -3.085492 -4.433722 3.207136 0
M  V30 83 H -4.316187 -2.632894 4.147073 0
M  V30 84 H -4.654980 -1.856637 2.606381 0
M  V30 85 H -1.634353 -3.305210 4.088931 0
M  V30 86 H -2.454629 -2.350579 5.315213 0
M  V30 87 H 0.007457 -2.118432 5.324741 0
M  V30 88 H 0.015497 -1.555478 3.666490 0
M  V30 89 H -0.291900 -0.083600 6.071922 0
M  V30 90 H -1.656119 1.943739 6.291870 0
M  V30 91 H -0.030892 2.220935 5.646782 0
M  V30 92 H -1.381799 4.284024 5.541324 0
M  V30 93 H -2.637693 3.471552 4.481951 0
M  V30 94 H 2.009335 5.653883 0.795499 0
M  V30 95 H 4.735697 6.852413 1.074345 0
M  V30 96 H 4.608290 8.615456 1.413508 0
M  V30 97 H 3.253616 7.681359 0.589372 0
M  V30 98 H 4.282343 8.642215 4.114374 0
M  V30 99 H 3.241634 8.393439 6.522931 0
M  V30 100 H 1.466025 8.030197 6.429700 0
M  V30 101 H 2.621605 6.714650 6.889011 0
M  V30 102 H 0.071251 3.721069 0.285645 0
M  V30 103 H -1.611250 2.614693 1.779718 0
M  V30 104 H 3.750825 -5.048961 -3.686994 0
M  V30 105 H 2.629488 -5.519690 -2.386969 0
M  V30 106 H 3.839132 -3.402134 -1.878000 0
M  V30 107 H 3.475548 -2.561202 -6.766716 0
M  V30 108 H 3.981313 -1.023679 -5.822869 0
M  V30 109 H 4.618717 -2.581563 -5.470042 0
M  V30 110 H 2.130890 -0.727654 -7.171435 0
M  V30 111 H 0.903849 0.931415 -8.447581 0
M  V30 112 H -1.003307 2.086239 -7.366858 0
M  V30 113 H -1.612268 1.550553 -5.049616 0
M  V30 114 H -0.807406 -2.331865 1.534947 0
M  V30 115 H 0.334556 -3.982231 2.959908 0
M  V30 116 H 2.245790 -5.173865 2.140845 0
M  V30 117 H 3.055538 -4.761625 -0.100067 0
M  V30 118 H -3.565833 1.181078 -0.949037 0
M  V30 119 H -1.782740 1.840073 -2.575873 0
M  V30 120 H -2.931199 0.572652 -3.304341 0
M  V30 END ATOM
M  V30 BEGIN BOND
M  V30 1 1 1 2
M  V30 2 1 2 3
M  V30 3 1 3 4
M  V30 4 1 4 5
M  V30 5 1 5 6
M  V30 6 1 6 7
M  V30 7 1 7 8
M  V30 8 1 8 9
M  V30 9 1 9 10
M  V30 10 1 10 11
M  V30 11 1 11 12
M  V30 12 1 12 13
M  V30 13 1 13 14
M  V30 14 1 14 15
M  V30 15 1 15 16
M  V30 16 1 16 17
M  V30 17 1 17 18
M  V30 18 2 18 19
M  V30 19 1 18 20
M  V30 20 1 20 21
M  V30 21 1 21 22
M  V30 22 2 22 23
M  V30 23 1 23 24
M  V30 24 2 24 25
M  V30 25 1 25 26
M  V30 26 2 26 27
M  V30 27 1 27 28
M  V30 28 1 27 29
M  V30 29 2 29 30
M  V30 30 1 30 31
M  V30 31 1 30 32
M  V30 32 1 32 33
M  V30 33 1 33 34
M  V30 34 1 33 35
M  V30 35 1 24 36
M  V30 36 2 36 37
M  V30 37 1 4 38
M  V30 38 1 38 39
M  V30 39 1 39 40
M  V30 40 1 40 41
M  V30 41 1 41 42 CFG=3
M  V30 42 1 41 43
M  V30 43 1 43 44
M  V30 44 2 44 45
M  V30 45 1 45 46
M  V30 46 2 46 47
M  V30 47 1 47 48
M  V30 48 2 48 49
M  V30 49 1 49 50
M  V30 50 2 50 51
M  V30 51 1 51 52
M  V30 52 2 52 53
M  V30 53 1 53 54
M  V30 54 2 54 55
M  V30 55 1 55 56
M  V30 56 2 56 57
M  V30 57 1 57 58
M  V30 58 2 58 59
M  V30 59 1 59 60
M  V30 60 1 60 61
M  V30 61 2 61 62
M  V30 62 1 52 63
M  V30 63 2 63 64
M  V30 64 1 63 65
M  V30 65 1 65 66
M  V30 66 1 41 3
M  V30 67 1 62 43
M  V30 68 1 37 22
M  V30 69 1 60 39
M  V30 70 1 33 23
M  V30 71 1 49 44
M  V30 72 1 62 50
M  V30 73 1 32 26
M  V30 74 1 66 51
M  V30 75 1 61 53
M  V30 76 1 59 54
M  V30 77 1 1 67
M  V30 78 1 1 68
M  V30 79 1 1 69
M  V30 80 1 3 70 CFG=3
M  V30 81 1 4 71 CFG=3
M  V30 82 1 5 72
M  V30 83 1 6 73
M  V30 84 1 6 74
M  V30 85 1 7 75
M  V30 86 1 7 76
M  V30 87 1 9 77
M  V30 88 1 9 78
M  V30 89 1 10 79
M  V30 90 1 10 80
M  V30 91 1 12 81
M  V30 92 1 12 82
M  V30 93 1 13 83
M  V30 94 1 13 84
M  V30 95 1 15 85
M  V30 96 1 15 86
M  V30 97 1 16 87
M  V30 98 1 16 88
M  V30 99 1 17 89
M  V30 100 1 20 90
M  V30 101 1 20 91
M  V30 102 1 21 92
M  V30 103 1 21 93
M  V30 104 1 25 94
M  V30 105 1 28 95
M  V30 106 1 28 96
M  V30 107 1 28 97
M  V30 108 1 29 98
M  V30 109 1 31 99
M  V30 110 1 31 100
M  V30 111 1 31 101
M  V30 112 1 36 102
M  V30 113 1 37 103
M  V30 114 1 38 104
M  V30 115 1 38 105
M  V30 116 1 39 106 CFG=1
M  V30 117 1 42 107
M  V30 118 1 42 108
M  V30 119 1 42 109
M  V30 120 1 45 110
M  V30 121 1 46 111
M  V30 122 1 47 112
M  V30 123 1 48 113
M  V30 124 1 55 114
M  V30 125 1 56 115
M  V30 126 1 57 116
M  V30 127 1 58 117
M  V30 128 1 65 118
M  V30 129 1 66 119
M  V30 130 1 66 120
M  V30 END BOND
M  V30 END CTAB
M  END
>  <Dataset>  (57) 
ChEMBL_PKA

>  <Ligand_Instance>  (57) 
nan

>  <PDB_ID>  (57) 
nan

>  <Standardized_SMILES>  (57) 
CO[C@@H]1[C@H](NCCOCCOCCOCCNC(=O)CCC2=[N+]3C(=Cc4c(C)cc(C)n4[B-]3(F)F)C=C2)C[C@H]2O[C@]1(C)n1c3ccccc3c3c4c(c5c6ccccc6n2c5c31)C(=O)NC4

>  <Name>  (57) 
nan

>  <Pocket>  (57) 
nan

>  <ATP_Site>  (57) 
nan

>  <Peripheral>  (57) 
nan

>  <Num_H_Atoms_ProtBoundConf>  (57) 
nan

>  <Num_Resolved_Atoms>  (57) 
nan

>  <Num_Not_Resolved_Atoms>  (57) 
nan

>  <2D_Mol_H>  (57) 
<rdkit.Chem.rdchem.Mol object at 0x72a2391107b0>

>  <MW>  (57) 
901.821

>  <HBA>  (57) 
11

>  <HBD>  (57) 
3

>  <LogP>  (57) 
6.38944

>  <NRB>  (57) 
21

>  <TPSA>  (57) 
134.18

>  <Num_Heavy_Atoms>  (57) 
66

>  <Ro5>  (57) 
[False, False, True, False, False, True]

>  <Ro5_Fulfilled>  (57) 
False

>  <Ro3>  (57) 
[False, False, True, False]

>  <Ro3_Fulfilled>  (57) 
False

>  <Fsp3>  (57) 
0.408163

>  <Fsp3_0.42>  (57) 
False

>  <Fsp3_0.45>  (57) 
False

>  <Stereogenic_Carbons>  (57) 
4

>  <C_Atoms>  (57) 
49

>  <FCStereo>  (57) 
0.081633

>  <SPS>  (57) 
1480

>  <nSPS>  (57) 
22.424242

>  <PBF>  (57) 
1.506111

>  <PBF_0.6>  (57) 
True

>  <nPBF>  (57) 
0.02282

>  <nPBF_0.016>  (57) 
True

>  <PMI1>  (57) 
10275.129952

>  <PMI2>  (57) 
23443.380844

>  <PMI3>  (57) 
29079.669482

>  <NPR1>  (57) 
0.353344

>  <NPR2>  (57) 
0.806178

>  <Sum_NPR>  (57) 
1.159522

>  <Sum_NPR_1.07>  (57) 
True

>  <Sum_NPR_1.2>  (57) 
False

>  <MaxAbsEStateIndex>  (57) 
15.679831

>  <MaxEStateIndex>  (57) 
15.679831

>  <MinAbsEStateIndex>  (57) 
0.042641

>  <MinEStateIndex>  (57) 
-4.05192

>  <qed>  (57) 
0.070945

>  <MolWt>  (57) 
901.821

>  <HeavyAtomMolWt>  (57) 
847.389

>  <ExactMolWt>  (57) 
901.414584

>  <NumValenceElectrons>  (57) 
344

>  <NumRadicalElectrons>  (57) 
0

>  <MaxPartialCharge>  (57) 
0.736886

>  <MinPartialCharge>  (57) 
-0.393765

>  <MaxAbsPartialCharge>  (57) 
0.736886

>  <MinAbsPartialCharge>  (57) 
0.393765

>  <FpDensityMorgan1>  (57) 
0.939394

>  <FpDensityMorgan2>  (57) 
1.636364

>  <FpDensityMorgan3>  (57) 
2.393939

>  <BCUT2D_MWHI>  (57) 
19.2481

>  <BCUT2D_MWLOW>  (57) 
9.897939

>  <BCUT2D_CHGHI>  (57) 
2.541079

>  <BCUT2D_CHGLO>  (57) 
-2.482811

>  <BCUT2D_LOGPHI>  (57) 
2.534336

>  <BCUT2D_LOGPLOW>  (57) 
-2.601866

>  <BCUT2D_MRHI>  (57) 
6.577646

>  <BCUT2D_MRLOW>  (57) 
-0.361884

>  <AvgIpc>  (57) 
4.106237

>  <BalabanJ>  (57) 
0.65376

>  <BertzCT>  (57) 
3078.558542

>  <Chi0>  (57) 
45.483823

>  <Chi0n>  (57) 
37.625407

>  <Chi0v>  (57) 
37.625407

>  <Chi1>  (57) 
32.023061

>  <Chi1n>  (57) 
23.016155

>  <Chi1v>  (57) 
23.016155

>  <Chi2n>  (57) 
18.066152

>  <Chi2v>  (57) 
18.066152

>  <Chi3n>  (57) 
14.208089

>  <Chi3v>  (57) 
14.208089

>  <Chi4n>  (57) 
11.60279

>  <Chi4v>  (57) 
11.60279

>  <HallKierAlpha>  (57) 
-5.685065

>  <Ipc>  (57) 
1143674451497248.75

>  <Kappa1>  (57) 
42.919813

>  <Kappa2>  (57) 
16.575057

>  <Kappa3>  (57) 
6.604044

>  <LabuteASA>  (57) 
379.696408

>  <PEOE_VSA1>  (57) 
66.364849

>  <PEOE_VSA10>  (57) 
18.043553

>  <PEOE_VSA11>  (57) 
11.422025

>  <PEOE_VSA12>  (57) 
5.90718

>  <PEOE_VSA13>  (57) 
5.90718

>  <PEOE_VSA14>  (57) 
6.970049

>  <PEOE_VSA2>  (57) 
9.589074

>  <PEOE_VSA3>  (57) 
0.0

>  <PEOE_VSA4>  (57) 
0.0

>  <PEOE_VSA5>  (57) 
0.0

>  <PEOE_VSA6>  (57) 
36.398202

>  <PEOE_VSA7>  (57) 
55.791144

>  <PEOE_VSA8>  (57) 
97.515258

>  <PEOE_VSA9>  (57) 
67.271546

>  <SMR_VSA1>  (57) 
46.391246

>  <SMR_VSA10>  (57) 
74.183813

>  <SMR_VSA2>  (57) 
0.0

>  <SMR_VSA3>  (57) 
29.562678

>  <SMR_VSA4>  (57) 
0.0

>  <SMR_VSA5>  (57) 
70.677127

>  <SMR_VSA6>  (57) 
59.840602

>  <SMR_VSA7>  (57) 
100.524594

>  <SMR_VSA8>  (57) 
0.0

>  <SMR_VSA9>  (57) 
0.0

>  <SlogP_VSA1>  (57) 
15.950366

>  <SlogP_VSA10>  (57) 
8.631318

>  <SlogP_VSA11>  (57) 
0.0

>  <SlogP_VSA12>  (57) 
0.0

>  <SlogP_VSA2>  (57) 
114.581353

>  <SlogP_VSA3>  (57) 
40.748594

>  <SlogP_VSA4>  (57) 
13.847474

>  <SlogP_VSA5>  (57) 
65.286851

>  <SlogP_VSA6>  (57) 
72.446383

>  <SlogP_VSA7>  (57) 
0.0

>  <SlogP_VSA8>  (57) 
49.68772

>  <SlogP_VSA9>  (57) 
0.0

>  <EState_VSA1>  (57) 
12.695034

>  <EState_VSA10>  (57) 
9.589074

>  <EState_VSA11>  (57) 
8.631318

>  <EState_VSA2>  (57) 
43.029711

>  <EState_VSA3>  (57) 
88.492963

>  <EState_VSA4>  (57) 
69.266706

>  <EState_VSA5>  (57) 
0.0

>  <EState_VSA6>  (57) 
38.327962

>  <EState_VSA7>  (57) 
19.056471

>  <EState_VSA8>  (57) 
68.406505

>  <EState_VSA9>  (57) 
23.684315

>  <VSA_EState1>  (57) 
69.206394

>  <VSA_EState10>  (57) 
0.0

>  <VSA_EState2>  (57) 
26.224152

>  <VSA_EState3>  (57) 
13.887418

>  <VSA_EState4>  (57) 
7.741904

>  <VSA_EState5>  (57) 
-0.264552

>  <VSA_EState6>  (57) 
18.384573

>  <VSA_EState7>  (57) 
5.371751

>  <VSA_EState8>  (57) 
5.285123

>  <VSA_EState9>  (57) 
1.746571

>  <FractionCSP3>  (57) 
0.408163

>  <HeavyAtomCount>  (57) 
66

>  <NHOHCount>  (57) 
3

>  <NOCount>  (57) 
14

>  <NumAliphaticCarbocycles>  (57) 
0

>  <NumAliphaticHeterocycles>  (57) 
5

>  <NumAliphaticRings>  (57) 
5

>  <NumAromaticCarbocycles>  (57) 
3

>  <NumAromaticHeterocycles>  (57) 
3

>  <NumAromaticRings>  (57) 
6

>  <NumHAcceptors>  (57) 
11

>  <NumHDonors>  (57) 
3

>  <NumHeteroatoms>  (57) 
17

>  <NumRotatableBonds>  (57) 
17

>  <NumSaturatedCarbocycles>  (57) 
0

>  <NumSaturatedHeterocycles>  (57) 
1

>  <NumSaturatedRings>  (57) 
1

>  <RingCount>  (57) 
11

>  <MolLogP>  (57) 
6.38944

>  <MolMR>  (57) 
248.95

>  <fr_Al_COO>  (57) 
0

>  <fr_Al_OH>  (57) 
0

>  <fr_Al_OH_noTert>  (57) 
0

>  <fr_ArN>  (57) 
0

>  <fr_Ar_COO>  (57) 
0

>  <fr_Ar_N>  (57) 
3

>  <fr_Ar_NH>  (57) 
0

>  <fr_Ar_OH>  (57) 
0

>  <fr_COO>  (57) 
0

>  <fr_COO2>  (57) 
0

>  <fr_C_O>  (57) 
2

>  <fr_C_O_noCOO>  (57) 
2

>  <fr_C_S>  (57) 
0

>  <fr_HOCCN>  (57) 
0

>  <fr_Imine>  (57) 
0

>  <fr_NH0>  (57) 
4

>  <fr_NH1>  (57) 
3

>  <fr_NH2>  (57) 
0

>  <fr_N_O>  (57) 
0

>  <fr_Ndealkylation1>  (57) 
0

>  <fr_Ndealkylation2>  (57) 
0

>  <fr_Nhpyrrole>  (57) 
0

>  <fr_SH>  (57) 
0

>  <fr_aldehyde>  (57) 
0

>  <fr_alkyl_carbamate>  (57) 
0

>  <fr_alkyl_halide>  (57) 
0

>  <fr_allylic_oxid>  (57) 
2

>  <fr_amide>  (57) 
2

>  <fr_amidine>  (57) 
0

>  <fr_aniline>  (57) 
0

>  <fr_aryl_methyl>  (57) 
2

>  <fr_azide>  (57) 
0

>  <fr_azo>  (57) 
0

>  <fr_barbitur>  (57) 
0

>  <fr_benzene>  (57) 
3

>  <fr_benzodiazepine>  (57) 
0

>  <fr_bicyclic>  (57) 
15

>  <fr_diazo>  (57) 
0

>  <fr_dihydropyridine>  (57) 
0

>  <fr_epoxide>  (57) 
0

>  <fr_ester>  (57) 
0

>  <fr_ether>  (57) 
5

>  <fr_furan>  (57) 
0

>  <fr_guanido>  (57) 
0

>  <fr_halogen>  (57) 
2

>  <fr_hdrzine>  (57) 
0

>  <fr_hdrzone>  (57) 
0

>  <fr_imidazole>  (57) 
0

>  <fr_imide>  (57) 
0

>  <fr_isocyan>  (57) 
0

>  <fr_isothiocyan>  (57) 
0

>  <fr_ketone>  (57) 
0

>  <fr_ketone_Topliss>  (57) 
0

>  <fr_lactam>  (57) 
0

>  <fr_lactone>  (57) 
0

>  <fr_methoxy>  (57) 
1

>  <fr_morpholine>  (57) 
0

>  <fr_nitrile>  (57) 
0

>  <fr_nitro>  (57) 
0

>  <fr_nitro_arom>  (57) 
0

>  <fr_nitro_arom_nonortho>  (57) 
0

>  <fr_nitroso>  (57) 
0

>  <fr_oxazole>  (57) 
0

>  <fr_oxime>  (57) 
0

>  <fr_para_hydroxylation>  (57) 
2

>  <fr_phenol>  (57) 
0

>  <fr_phenol_noOrthoHbond>  (57) 
0

>  <fr_phos_acid>  (57) 
0

>  <fr_phos_ester>  (57) 
0

>  <fr_piperdine>  (57) 
0

>  <fr_piperzine>  (57) 
0

>  <fr_priamide>  (57) 
0

>  <fr_prisulfonamd>  (57) 
0

>  <fr_pyridine>  (57) 
0

>  <fr_quatN>  (57) 
0

>  <fr_sulfide>  (57) 
0

>  <fr_sulfonamd>  (57) 
0

>  <fr_sulfone>  (57) 
0

>  <fr_term_acetylene>  (57) 
0

>  <fr_tetrazole>  (57) 
0

>  <fr_thiazole>  (57) 
0

>  <fr_thiocyan>  (57) 
0

>  <fr_thiophene>  (57) 
0

>  <fr_unbrch_alkane>  (57) 
0

>  <fr_urea>  (57) 
0

>  <NP_Likeness>  (57) 
0.334617

$$$$
CHEMBL4552628
     RDKit          3D

  0  0  0  0  0  0  0  0  0  0999 V3000
M  V30 BEGIN CTAB
M  V30 COUNTS 46 49 0 0 0
M  V30 BEGIN ATOM
M  V30 1 C -1.133487 -4.566180 2.323001 0
M  V30 2 C -0.936060 -3.169572 2.027072 0
M  V30 3 S 0.710508 -2.664591 1.557067 0
M  V30 4 C 0.639250 -1.061581 1.285520 0
M  V30 5 C 0.586140 0.505596 1.016366 0
M  V30 6 O 0.149635 1.707650 0.897862 0
M  V30 7 N 1.965813 0.701475 0.674531 0
M  V30 8 C 2.636433 1.955910 0.297690 0 CFG=2
M  V30 9 C 3.038784 1.769630 -1.164510 0 CFG=2
M  V30 10 N 3.455807 0.398480 -1.385156 0
M  V30 11 C 4.145506 2.721444 -1.548618 0
M  V30 12 C 5.381200 2.409334 -0.770397 0
M  V30 13 C 5.126325 1.896128 0.607899 0
M  V30 14 C 3.795610 2.301844 1.163520 0
M  V30 15 F 3.687991 1.760626 2.423671 0
M  V30 16 F 3.871968 3.695030 1.337667 0
M  V30 17 C -0.854558 -0.860245 1.593935 0
M  V30 18 C -1.639104 -1.966774 1.973245 0
M  V30 19 C -3.037198 -2.217775 2.340223 0
M  V30 20 C -3.492128 -2.145921 3.637939 0
M  V30 21 N -4.816518 -2.413760 3.482331 0
M  V30 22 N -5.100544 -2.621843 2.209401 0
M  V30 23 C -6.298625 -2.913571 1.647181 0
M  V30 24 C -6.413342 -3.098635 0.284074 0
M  V30 25 Cl -7.928749 -3.477086 -0.494707 0
M  V30 26 C -5.270948 -2.976865 -0.484151 0
M  V30 27 N -4.079210 -2.684589 0.096451 0
M  V30 28 C -4.000552 -2.513011 1.405680 0
M  V30 29 H -0.888726 -4.774724 3.382199 0
M  V30 30 H -0.610574 -5.267662 1.676673 0
M  V30 31 H -2.236146 -4.778685 2.227833 0
M  V30 32 H 2.807263 0.047257 0.611968 0
M  V30 33 H 1.944204 2.822368 0.309155 0
M  V30 34 H 2.131587 1.937327 -1.780203 0
M  V30 35 H 2.904849 -0.051201 -2.124992 0
M  V30 36 H 4.461794 0.282758 -1.527433 0
M  V30 37 H 3.791808 3.755049 -1.420865 0
M  V30 38 H 4.348964 2.523625 -2.621723 0
M  V30 39 H 5.997183 3.349605 -0.776470 0
M  V30 40 H 5.985930 1.659591 -1.341701 0
M  V30 41 H 5.214219 0.800033 0.698191 0
M  V30 42 H 5.902933 2.332965 1.275517 0
M  V30 43 H -1.705924 -0.114568 1.657205 0
M  V30 44 H -2.876711 -1.924972 4.497737 0
M  V30 45 H -7.177583 -3.004549 2.269792 0
M  V30 46 H -5.296722 -3.111836 -1.559768 0
M  V30 END ATOM
M  V30 BEGIN BOND
M  V30 1 1 1 2
M  V30 2 1 2 3
M  V30 3 1 3 4
M  V30 4 1 4 5
M  V30 5 2 5 6
M  V30 6 1 5 7
M  V30 7 1 7 8
M  V30 8 1 8 9
M  V30 9 1 9 10
M  V30 10 1 9 11
M  V30 11 1 11 12
M  V30 12 1 12 13
M  V30 13 1 13 14
M  V30 14 1 14 15
M  V30 15 1 14 16
M  V30 16 2 4 17
M  V30 17 1 17 18
M  V30 18 1 18 19
M  V30 19 1 19 20
M  V30 20 2 20 21
M  V30 21 1 21 22
M  V30 22 1 22 23
M  V30 23 2 23 24
M  V30 24 1 24 25
M  V30 25 1 24 26
M  V30 26 2 26 27
M  V30 27 1 27 28
M  V30 28 2 18 2
M  V30 29 2 28 19
M  V30 30 1 14 8
M  V30 31 1 28 22
M  V30 32 1 1 29
M  V30 33 1 1 30
M  V30 34 1 1 31
M  V30 35 1 7 32
M  V30 36 1 8 33 CFG=3
M  V30 37 1 9 34 CFG=3
M  V30 38 1 10 35
M  V30 39 1 10 36
M  V30 40 1 11 37
M  V30 41 1 11 38
M  V30 42 1 12 39
M  V30 43 1 12 40
M  V30 44 1 13 41
M  V30 45 1 13 42
M  V30 46 1 17 43
M  V30 47 1 20 44
M  V30 48 1 23 45
M  V30 49 1 26 46
M  V30 END BOND
M  V30 END CTAB
M  END
>  <Dataset>  (58) 
ChEMBL_PKA

>  <Ligand_Instance>  (58) 
nan

>  <PDB_ID>  (58) 
nan

>  <Standardized_SMILES>  (58) 
Cc1sc(C(=O)N[C@@H]2[C@H](N)CCCC2(F)F)cc1-c1cnn2cc(Cl)cnc12

>  <Name>  (58) 
nan

>  <Pocket>  (58) 
nan

>  <ATP_Site>  (58) 
nan

>  <Peripheral>  (58) 
nan

>  <Num_H_Atoms_ProtBoundConf>  (58) 
nan

>  <Num_Resolved_Atoms>  (58) 
nan

>  <Num_Not_Resolved_Atoms>  (58) 
nan

>  <2D_Mol_H>  (58) 
<rdkit.Chem.rdchem.Mol object at 0x72a239110890>

>  <MW>  (58) 
425.892

>  <HBA>  (58) 
6

>  <HBD>  (58) 
2

>  <LogP>  (58) 
3.66452

>  <NRB>  (58) 
5

>  <TPSA>  (58) 
85.31

>  <Num_Heavy_Atoms>  (58) 
28

>  <Ro5>  (58) 
[True, True, True, True, True, True]

>  <Ro5_Fulfilled>  (58) 
True

>  <Ro3>  (58) 
[False, False, True, False]

>  <Ro3_Fulfilled>  (58) 
False

>  <Fsp3>  (58) 
0.388889

>  <Fsp3_0.42>  (58) 
False

>  <Fsp3_0.45>  (58) 
False

>  <Stereogenic_Carbons>  (58) 
2

>  <C_Atoms>  (58) 
18

>  <FCStereo>  (58) 
0.111111

>  <SPS>  (58) 
609

>  <nSPS>  (58) 
21.75

>  <PBF>  (58) 
1.035472

>  <PBF_0.6>  (58) 
True

>  <nPBF>  (58) 
0.036981

>  <nPBF_0.016>  (58) 
True

>  <PMI1>  (58) 
1372.204389

>  <PMI2>  (58) 
9508.923623

>  <PMI3>  (58) 
9868.399853

>  <NPR1>  (58) 
0.13905

>  <NPR2>  (58) 
0.963573

>  <Sum_NPR>  (58) 
1.102623

>  <Sum_NPR_1.07>  (58) 
True

>  <Sum_NPR_1.2>  (58) 
False

>  <MaxAbsEStateIndex>  (58) 
14.188861

>  <MaxEStateIndex>  (58) 
14.188861

>  <MinAbsEStateIndex>  (58) 
0.266874

>  <MinEStateIndex>  (58) 
-3.005864

>  <qed>  (58) 
0.670127

>  <MolWt>  (58) 
425.892

>  <HeavyAtomMolWt>  (58) 
407.748

>  <ExactMolWt>  (58) 
425.088865

>  <NumValenceElectrons>  (58) 
148

>  <NumRadicalElectrons>  (58) 
0

>  <MaxPartialCharge>  (58) 
0.268917

>  <MinPartialCharge>  (58) 
-0.340957

>  <MaxAbsPartialCharge>  (58) 
0.340957

>  <MinAbsPartialCharge>  (58) 
0.268917

>  <FpDensityMorgan1>  (58) 
1.428571

>  <FpDensityMorgan2>  (58) 
2.214286

>  <FpDensityMorgan3>  (58) 
2.964286

>  <BCUT2D_MWHI>  (58) 
35.495692

>  <BCUT2D_MWLOW>  (58) 
9.87186

>  <BCUT2D_CHGHI>  (58) 
2.462362

>  <BCUT2D_CHGLO>  (58) 
-2.357999

>  <BCUT2D_LOGPHI>  (58) 
2.352714

>  <BCUT2D_LOGPLOW>  (58) 
-2.591775

>  <BCUT2D_MRHI>  (58) 
7.140482

>  <BCUT2D_MRLOW>  (58) 
-0.067356

>  <AvgIpc>  (58) 
3.203121

>  <BalabanJ>  (58) 
1.626236

>  <BertzCT>  (58) 
1049.952084

>  <Chi0>  (58) 
20.051677

>  <Chi0n>  (58) 
14.954803

>  <Chi0v>  (58) 
16.527229

>  <Chi1>  (58) 
13.258857

>  <Chi1n>  (58) 
8.800324

>  <Chi1v>  (58) 
9.994785

>  <Chi2n>  (58) 
6.947363

>  <Chi2v>  (58) 
8.640122

>  <Chi3n>  (58) 
4.973977

>  <Chi3v>  (58) 
6.218417

>  <Chi4n>  (58) 
3.537106

>  <Chi4v>  (58) 
4.615448

>  <HallKierAlpha>  (58) 
-2.1

>  <Ipc>  (58) 
2471194.794748

>  <Kappa1>  (58) 
19.226612

>  <Kappa2>  (58) 
7.055089

>  <Kappa3>  (58) 
3.379359

>  <LabuteASA>  (58) 
168.254088

>  <PEOE_VSA1>  (58) 
11.050456

>  <PEOE_VSA10>  (58) 
6.041841

>  <PEOE_VSA11>  (58) 
5.647177

>  <PEOE_VSA12>  (58) 
0.0

>  <PEOE_VSA13>  (58) 
11.829709

>  <PEOE_VSA14>  (58) 
0.0

>  <PEOE_VSA2>  (58) 
4.794537

>  <PEOE_VSA3>  (58) 
18.280207

>  <PEOE_VSA4>  (58) 
5.098682

>  <PEOE_VSA5>  (58) 
11.336786

>  <PEOE_VSA6>  (58) 
11.60094

>  <PEOE_VSA7>  (58) 
25.831748

>  <PEOE_VSA8>  (58) 
34.663556

>  <PEOE_VSA9>  (58) 
22.293468

>  <SMR_VSA1>  (58) 
13.575367

>  <SMR_VSA10>  (58) 
34.492083

>  <SMR_VSA2>  (58) 
0.0

>  <SMR_VSA3>  (58) 
19.914847

>  <SMR_VSA4>  (58) 
5.733667

>  <SMR_VSA5>  (58) 
44.192413

>  <SMR_VSA6>  (58) 
0.0

>  <SMR_VSA7>  (58) 
39.433825

>  <SMR_VSA8>  (58) 
0.0

>  <SMR_VSA9>  (58) 
11.126903

>  <SlogP_VSA1>  (58) 
11.050456

>  <SlogP_VSA10>  (58) 
8.78083

>  <SlogP_VSA11>  (58) 
0.0

>  <SlogP_VSA12>  (58) 
22.937726

>  <SlogP_VSA2>  (58) 
38.511449

>  <SlogP_VSA3>  (58) 
0.0

>  <SlogP_VSA4>  (58) 
6.923737

>  <SlogP_VSA5>  (58) 
33.811296

>  <SlogP_VSA6>  (58) 
24.656898

>  <SlogP_VSA7>  (58) 
5.022633

>  <SlogP_VSA8>  (58) 
16.77408

>  <SlogP_VSA9>  (58) 
0.0

>  <EState_VSA1>  (58) 
23.913391

>  <EState_VSA10>  (58) 
13.575367

>  <EState_VSA11>  (58) 
0.0

>  <EState_VSA2>  (58) 
6.420822

>  <EState_VSA3>  (58) 
28.388601

>  <EState_VSA4>  (58) 
16.00405

>  <EState_VSA5>  (58) 
17.533629

>  <EState_VSA6>  (58) 
22.975452

>  <EState_VSA7>  (58) 
6.923737

>  <EState_VSA8>  (58) 
15.399449

>  <EState_VSA9>  (58) 
17.334607

>  <VSA_EState1>  (58) 
29.929425

>  <VSA_EState10>  (58) 
7.16634

>  <VSA_EState2>  (58) 
18.137783

>  <VSA_EState3>  (58) 
7.13278

>  <VSA_EState4>  (58) 
7.95919

>  <VSA_EState5>  (58) 
-3.553223

>  <VSA_EState6>  (58) 
-0.447253

>  <VSA_EState7>  (58) 
5.344455

>  <VSA_EState8>  (58) 
1.858281

>  <VSA_EState9>  (58) 
0.0

>  <FractionCSP3>  (58) 
0.388889

>  <HeavyAtomCount>  (58) 
28

>  <NHOHCount>  (58) 
3

>  <NOCount>  (58) 
6

>  <NumAliphaticCarbocycles>  (58) 
1

>  <NumAliphaticHeterocycles>  (58) 
0

>  <NumAliphaticRings>  (58) 
1

>  <NumAromaticCarbocycles>  (58) 
0

>  <NumAromaticHeterocycles>  (58) 
3

>  <NumAromaticRings>  (58) 
3

>  <NumHAcceptors>  (58) 
6

>  <NumHDonors>  (58) 
2

>  <NumHeteroatoms>  (58) 
10

>  <NumRotatableBonds>  (58) 
3

>  <NumSaturatedCarbocycles>  (58) 
1

>  <NumSaturatedHeterocycles>  (58) 
0

>  <NumSaturatedRings>  (58) 
1

>  <RingCount>  (58) 
4

>  <MolLogP>  (58) 
3.66452

>  <MolMR>  (58) 
104.0746

>  <fr_Al_COO>  (58) 
0

>  <fr_Al_OH>  (58) 
0

>  <fr_Al_OH_noTert>  (58) 
0

>  <fr_ArN>  (58) 
0

>  <fr_Ar_COO>  (58) 
0

>  <fr_Ar_N>  (58) 
3

>  <fr_Ar_NH>  (58) 
0

>  <fr_Ar_OH>  (58) 
0

>  <fr_COO>  (58) 
0

>  <fr_COO2>  (58) 
0

>  <fr_C_O>  (58) 
1

>  <fr_C_O_noCOO>  (58) 
1

>  <fr_C_S>  (58) 
0

>  <fr_HOCCN>  (58) 
0

>  <fr_Imine>  (58) 
0

>  <fr_NH0>  (58) 
3

>  <fr_NH1>  (58) 
1

>  <fr_NH2>  (58) 
1

>  <fr_N_O>  (58) 
0

>  <fr_Ndealkylation1>  (58) 
0

>  <fr_Ndealkylation2>  (58) 
0

>  <fr_Nhpyrrole>  (58) 
0

>  <fr_SH>  (58) 
0

>  <fr_aldehyde>  (58) 
0

>  <fr_alkyl_carbamate>  (58) 
0

>  <fr_alkyl_halide>  (58) 
2

>  <fr_allylic_oxid>  (58) 
0

>  <fr_amide>  (58) 
1

>  <fr_amidine>  (58) 
0

>  <fr_aniline>  (58) 
0

>  <fr_aryl_methyl>  (58) 
1

>  <fr_azide>  (58) 
0

>  <fr_azo>  (58) 
0

>  <fr_barbitur>  (58) 
0

>  <fr_benzene>  (58) 
0

>  <fr_benzodiazepine>  (58) 
0

>  <fr_bicyclic>  (58) 
1

>  <fr_diazo>  (58) 
0

>  <fr_dihydropyridine>  (58) 
0

>  <fr_epoxide>  (58) 
0

>  <fr_ester>  (58) 
0

>  <fr_ether>  (58) 
0

>  <fr_furan>  (58) 
0

>  <fr_guanido>  (58) 
0

>  <fr_halogen>  (58) 
3

>  <fr_hdrzine>  (58) 
0

>  <fr_hdrzone>  (58) 
0

>  <fr_imidazole>  (58) 
0

>  <fr_imide>  (58) 
0

>  <fr_isocyan>  (58) 
0

>  <fr_isothiocyan>  (58) 
0

>  <fr_ketone>  (58) 
0

>  <fr_ketone_Topliss>  (58) 
0

>  <fr_lactam>  (58) 
0

>  <fr_lactone>  (58) 
0

>  <fr_methoxy>  (58) 
0

>  <fr_morpholine>  (58) 
0

>  <fr_nitrile>  (58) 
0

>  <fr_nitro>  (58) 
0

>  <fr_nitro_arom>  (58) 
0

>  <fr_nitro_arom_nonortho>  (58) 
0

>  <fr_nitroso>  (58) 
0

>  <fr_oxazole>  (58) 
0

>  <fr_oxime>  (58) 
0

>  <fr_para_hydroxylation>  (58) 
0

>  <fr_phenol>  (58) 
0

>  <fr_phenol_noOrthoHbond>  (58) 
0

>  <fr_phos_acid>  (58) 
0

>  <fr_phos_ester>  (58) 
0

>  <fr_piperdine>  (58) 
0

>  <fr_piperzine>  (58) 
0

>  <fr_priamide>  (58) 
0

>  <fr_prisulfonamd>  (58) 
0

>  <fr_pyridine>  (58) 
0

>  <fr_quatN>  (58) 
0

>  <fr_sulfide>  (58) 
0

>  <fr_sulfonamd>  (58) 
0

>  <fr_sulfone>  (58) 
0

>  <fr_term_acetylene>  (58) 
0

>  <fr_tetrazole>  (58) 
0

>  <fr_thiazole>  (58) 
0

>  <fr_thiocyan>  (58) 
0

>  <fr_thiophene>  (58) 
1

>  <fr_unbrch_alkane>  (58) 
0

>  <fr_urea>  (58) 
0

>  <NP_Likeness>  (58) 
-1.184391

$$$$
CHEMBL4568087
     RDKit          3D

  0  0  0  0  0  0  0  0  0  0999 V3000
M  V30 BEGIN CTAB
M  V30 COUNTS 53 57 0 0 0
M  V30 BEGIN ATOM
M  V30 1 C 4.880564 -9.139445 2.333844 0
M  V30 2 N 4.312355 -7.812741 2.486939 0
M  V30 3 C 3.772322 -7.138408 1.430306 0
M  V30 4 C 3.335571 -5.930196 1.934586 0
M  V30 5 C 2.685735 -4.905540 1.099969 0
M  V30 6 C 1.731371 -4.052149 1.617883 0
M  V30 7 N 1.163642 -3.128574 0.812874 0
M  V30 8 C 1.520221 -3.028795 -0.501144 0
M  V30 9 C 1.094771 -2.185541 -1.509490 0
M  V30 10 C 0.078967 -1.112213 -1.392791 0
M  V30 11 C -0.867376 -1.013878 -2.358491 0
M  V30 12 S -1.879313 0.463769 -1.760844 0
M  V30 13 C -0.896494 0.746105 -0.301185 0
M  V30 14 C -1.065678 1.792984 0.747926 0
M  V30 15 O -0.295742 1.890892 1.744999 0
M  V30 16 N -2.176989 2.662151 0.508012 0
M  V30 17 C -2.393104 3.711701 1.505268 0 CFG=2
M  V30 18 C -3.747205 3.504315 2.105573 0
M  V30 19 C -4.786031 3.508274 1.027873 0
M  V30 20 C -4.599857 4.673515 0.090160 0
M  V30 21 C -3.682833 5.689870 0.710086 0
M  V30 22 C -2.316181 5.079588 0.913394 0 CFG=2
M  V30 23 N -1.536902 5.121928 -0.307521 0
M  V30 24 C 0.112089 -0.248917 -0.329356 0
M  V30 25 C 1.790911 -2.522470 -2.651908 0
M  V30 26 N 2.607982 -3.545439 -2.312582 0
M  V30 27 N 2.462099 -3.863923 -1.031297 0
M  V30 28 C 3.037684 -4.791640 -0.238161 0
M  V30 29 C 3.617704 -5.893193 3.284664 0
M  V30 30 N 4.215356 -7.061625 3.588580 0
M  V30 31 H 5.298077 -9.519855 3.265113 0
M  V30 32 H 5.590340 -9.127100 1.478435 0
M  V30 33 H 4.047094 -9.813549 2.006468 0
M  V30 34 H 3.701409 -7.480899 0.407639 0
M  V30 35 H 1.488677 -4.176192 2.662456 0
M  V30 36 H -1.034905 -1.596091 -3.241768 0
M  V30 37 H -2.798877 2.561615 -0.323895 0
M  V30 38 H -1.588145 3.603758 2.273681 0
M  V30 39 H -3.924486 4.342492 2.829480 0
M  V30 40 H -3.821697 2.587088 2.719070 0
M  V30 41 H -5.792998 3.523603 1.506672 0
M  V30 42 H -4.687896 2.577300 0.424020 0
M  V30 43 H -5.578499 5.192926 -0.106893 0
M  V30 44 H -4.216309 4.407294 -0.898015 0
M  V30 45 H -3.623026 6.578365 0.055585 0
M  V30 46 H -4.137518 6.025891 1.662405 0
M  V30 47 H -1.792586 5.750433 1.639030 0
M  V30 48 H -2.076918 4.743891 -1.123962 0
M  V30 49 H -1.262968 6.098613 -0.545575 0
M  V30 50 H 0.827063 -0.256777 0.479220 0
M  V30 51 H 1.652565 -2.017982 -3.596174 0
M  V30 52 H 3.780637 -5.455593 -0.642573 0
M  V30 53 H 3.361393 -5.033614 3.889019 0
M  V30 END ATOM
M  V30 BEGIN BOND
M  V30 1 1 1 2
M  V30 2 1 2 3
M  V30 3 2 3 4
M  V30 4 1 4 5
M  V30 5 1 5 6
M  V30 6 2 6 7
M  V30 7 1 7 8
M  V30 8 2 8 9
M  V30 9 1 9 10
M  V30 10 2 10 11
M  V30 11 1 11 12
M  V30 12 1 12 13
M  V30 13 1 13 14
M  V30 14 2 14 15
M  V30 15 1 14 16
M  V30 16 1 16 17
M  V30 17 1 17 18
M  V30 18 1 18 19
M  V30 19 1 19 20
M  V30 20 1 20 21
M  V30 21 1 21 22
M  V30 22 1 22 23
M  V30 23 2 13 24
M  V30 24 1 9 25
M  V30 25 2 25 26
M  V30 26 1 26 27
M  V30 27 1 27 28
M  V30 28 1 4 29
M  V30 29 2 29 30
M  V30 30 1 30 2
M  V30 31 2 28 5
M  V30 32 1 27 8
M  V30 33 1 24 10
M  V30 34 1 22 17
M  V30 35 1 1 31
M  V30 36 1 1 32
M  V30 37 1 1 33
M  V30 38 1 3 34
M  V30 39 1 6 35
M  V30 40 1 11 36
M  V30 41 1 16 37
M  V30 42 1 17 38 CFG=1
M  V30 43 1 18 39
M  V30 44 1 18 40
M  V30 45 1 19 41
M  V30 46 1 19 42
M  V30 47 1 20 43
M  V30 48 1 20 44
M  V30 49 1 21 45
M  V30 50 1 21 46
M  V30 51 1 22 47 CFG=1
M  V30 52 1 23 48
M  V30 53 1 23 49
M  V30 54 1 24 50
M  V30 55 1 25 51
M  V30 56 1 28 52
M  V30 57 1 29 53
M  V30 END BOND
M  V30 END CTAB
M  END
>  <Dataset>  (59) 
ChEMBL_PKA

>  <Ligand_Instance>  (59) 
nan

>  <PDB_ID>  (59) 
nan

>  <Standardized_SMILES>  (59) 
Cn1cc(-c2cnc3c(-c4csc(C(=O)N[C@@H]5CCCC[C@@H]5N)c4)cnn3c2)cn1

>  <Name>  (59) 
nan

>  <Pocket>  (59) 
nan

>  <ATP_Site>  (59) 
nan

>  <Peripheral>  (59) 
nan

>  <Num_H_Atoms_ProtBoundConf>  (59) 
nan

>  <Num_Resolved_Atoms>  (59) 
nan

>  <Num_Not_Resolved_Atoms>  (59) 
nan

>  <2D_Mol_H>  (59) 
<rdkit.Chem.rdchem.Mol object at 0x72a239110900>

>  <MW>  (59) 
421.53

>  <HBA>  (59) 
8

>  <HBD>  (59) 
2

>  <LogP>  (59) 
2.858

>  <NRB>  (59) 
6

>  <TPSA>  (59) 
103.13

>  <Num_Heavy_Atoms>  (59) 
30

>  <Ro5>  (59) 
[True, True, True, True, True, True]

>  <Ro5_Fulfilled>  (59) 
True

>  <Ro3>  (59) 
[False, False, True, True]

>  <Ro3_Fulfilled>  (59) 
False

>  <Fsp3>  (59) 
0.333333

>  <Fsp3_0.42>  (59) 
False

>  <Fsp3_0.45>  (59) 
False

>  <Stereogenic_Carbons>  (59) 
2

>  <C_Atoms>  (59) 
21

>  <FCStereo>  (59) 
0.095238

>  <SPS>  (59) 
578

>  <nSPS>  (59) 
19.266667

>  <PBF>  (59) 
0.746961

>  <PBF_0.6>  (59) 
True

>  <nPBF>  (59) 
0.024899

>  <nPBF_0.016>  (59) 
True

>  <PMI1>  (59) 
1365.742937

>  <PMI2>  (59) 
11078.881438

>  <PMI3>  (59) 
11948.203863

>  <NPR1>  (59) 
0.114305

>  <NPR2>  (59) 
0.927242

>  <Sum_NPR>  (59) 
1.041548

>  <Sum_NPR_1.07>  (59) 
False

>  <Sum_NPR_1.2>  (59) 
False

>  <MaxAbsEStateIndex>  (59) 
12.707877

>  <MaxEStateIndex>  (59) 
12.707877

>  <MinAbsEStateIndex>  (59) 
0.04163

>  <MinEStateIndex>  (59) 
-0.058429

>  <qed>  (59) 
0.527387

>  <MolWt>  (59) 
421.53

>  <HeavyAtomMolWt>  (59) 
398.346

>  <ExactMolWt>  (59) 
421.168479

>  <NumValenceElectrons>  (59) 
154

>  <NumRadicalElectrons>  (59) 
0

>  <MaxPartialCharge>  (59) 
0.261138

>  <MinPartialCharge>  (59) 
-0.347049

>  <MaxAbsPartialCharge>  (59) 
0.347049

>  <MinAbsPartialCharge>  (59) 
0.261138

>  <FpDensityMorgan1>  (59) 
1.133333

>  <FpDensityMorgan2>  (59) 
1.966667

>  <FpDensityMorgan3>  (59) 
2.766667

>  <BCUT2D_MWHI>  (59) 
32.133475

>  <BCUT2D_MWLOW>  (59) 
9.908043

>  <BCUT2D_CHGHI>  (59) 
2.242174

>  <BCUT2D_CHGLO>  (59) 
-2.285669

>  <BCUT2D_LOGPHI>  (59) 
2.294073

>  <BCUT2D_LOGPLOW>  (59) 
-2.486594

>  <BCUT2D_MRHI>  (59) 
7.120804

>  <BCUT2D_MRLOW>  (59) 
0.092518

>  <AvgIpc>  (59) 
3.476574

>  <BalabanJ>  (59) 
1.381448

>  <BertzCT>  (59) 
1207.118709

>  <Chi0>  (59) 
20.664561

>  <Chi0n>  (59) 
16.654494

>  <Chi0v>  (59) 
17.470991

>  <Chi1>  (59) 
14.58052

>  <Chi1n>  (59) 
10.060612

>  <Chi1v>  (59) 
10.940264

>  <Chi2n>  (59) 
7.79964

>  <Chi2v>  (59) 
8.710871

>  <Chi3n>  (59) 
5.664799

>  <Chi3v>  (59) 
6.593764

>  <Chi4n>  (59) 
3.972518

>  <Chi4v>  (59) 
4.782432

>  <HallKierAlpha>  (59) 
-3.04

>  <Ipc>  (59) 
14188352.44671

>  <Kappa1>  (59) 
18.955156

>  <Kappa2>  (59) 
7.656562

>  <Kappa3>  (59) 
3.502687

>  <LabuteASA>  (59) 
177.284079

>  <PEOE_VSA1>  (59) 
11.050456

>  <PEOE_VSA10>  (59) 
0.0

>  <PEOE_VSA11>  (59) 
5.647177

>  <PEOE_VSA12>  (59) 
0.0

>  <PEOE_VSA13>  (59) 
5.90718

>  <PEOE_VSA14>  (59) 
0.0

>  <PEOE_VSA2>  (59) 
9.47634

>  <PEOE_VSA3>  (59) 
9.499376

>  <PEOE_VSA4>  (59) 
10.197364

>  <PEOE_VSA5>  (59) 
11.336786

>  <PEOE_VSA6>  (59) 
12.841643

>  <PEOE_VSA7>  (59) 
29.851525

>  <PEOE_VSA8>  (59) 
54.412239

>  <PEOE_VSA9>  (59) 
17.270834

>  <SMR_VSA1>  (59) 
4.794537

>  <SMR_VSA10>  (59) 
22.891143

>  <SMR_VSA2>  (59) 
0.0

>  <SMR_VSA3>  (59) 
29.695332

>  <SMR_VSA4>  (59) 
12.781339

>  <SMR_VSA5>  (59) 
37.766968

>  <SMR_VSA6>  (59) 
0.0

>  <SMR_VSA7>  (59) 
47.307795

>  <SMR_VSA8>  (59) 
0.0

>  <SMR_VSA9>  (59) 
22.253806

>  <SlogP_VSA1>  (59) 
11.050456

>  <SlogP_VSA10>  (59) 
0.0

>  <SlogP_VSA11>  (59) 
0.0

>  <SlogP_VSA12>  (59) 
11.336786

>  <SlogP_VSA2>  (59) 
42.369404

>  <SlogP_VSA3>  (59) 
7.047672

>  <SlogP_VSA4>  (59) 
0.0

>  <SlogP_VSA5>  (59) 
35.354971

>  <SlogP_VSA6>  (59) 
42.430648

>  <SlogP_VSA7>  (59) 
0.0

>  <SlogP_VSA8>  (59) 
27.900983

>  <SlogP_VSA9>  (59) 
0.0

>  <EState_VSA1>  (59) 
0.0

>  <EState_VSA10>  (59) 
4.794537

>  <EState_VSA11>  (59) 
0.0

>  <EState_VSA2>  (59) 
17.990861

>  <EState_VSA3>  (59) 
4.877147

>  <EState_VSA4>  (59) 
53.58427

>  <EState_VSA5>  (59) 
11.336786

>  <EState_VSA6>  (59) 
21.590888

>  <EState_VSA7>  (59) 
37.084633

>  <EState_VSA8>  (59) 
20.498131

>  <EState_VSA9>  (59) 
5.733667

>  <VSA_EState1>  (59) 
3.516168

>  <VSA_EState10>  (59) 
1.428334

>  <VSA_EState2>  (59) 
17.994722

>  <VSA_EState3>  (59) 
13.752624

>  <VSA_EState4>  (59) 
10.690618

>  <VSA_EState5>  (59) 
-0.058429

>  <VSA_EState6>  (59) 
2.00326

>  <VSA_EState7>  (59) 
13.456704

>  <VSA_EState8>  (59) 
0.0

>  <VSA_EState9>  (59) 
1.882666

>  <FractionCSP3>  (59) 
0.333333

>  <HeavyAtomCount>  (59) 
30

>  <NHOHCount>  (59) 
3

>  <NOCount>  (59) 
8

>  <NumAliphaticCarbocycles>  (59) 
1

>  <NumAliphaticHeterocycles>  (59) 
0

>  <NumAliphaticRings>  (59) 
1

>  <NumAromaticCarbocycles>  (59) 
0

>  <NumAromaticHeterocycles>  (59) 
4

>  <NumAromaticRings>  (59) 
4

>  <NumHAcceptors>  (59) 
8

>  <NumHDonors>  (59) 
2

>  <NumHeteroatoms>  (59) 
9

>  <NumRotatableBonds>  (59) 
4

>  <NumSaturatedCarbocycles>  (59) 
1

>  <NumSaturatedHeterocycles>  (59) 
0

>  <NumSaturatedRings>  (59) 
1

>  <RingCount>  (59) 
5

>  <MolLogP>  (59) 
2.858

>  <MolMR>  (59) 
116.1996

>  <fr_Al_COO>  (59) 
0

>  <fr_Al_OH>  (59) 
0

>  <fr_Al_OH_noTert>  (59) 
0

>  <fr_ArN>  (59) 
0

>  <fr_Ar_COO>  (59) 
0

>  <fr_Ar_N>  (59) 
5

>  <fr_Ar_NH>  (59) 
0

>  <fr_Ar_OH>  (59) 
0

>  <fr_COO>  (59) 
0

>  <fr_COO2>  (59) 
0

>  <fr_C_O>  (59) 
1

>  <fr_C_O_noCOO>  (59) 
1

>  <fr_C_S>  (59) 
0

>  <fr_HOCCN>  (59) 
0

>  <fr_Imine>  (59) 
0

>  <fr_NH0>  (59) 
5

>  <fr_NH1>  (59) 
1

>  <fr_NH2>  (59) 
1

>  <fr_N_O>  (59) 
0

>  <fr_Ndealkylation1>  (59) 
0

>  <fr_Ndealkylation2>  (59) 
0

>  <fr_Nhpyrrole>  (59) 
0

>  <fr_SH>  (59) 
0

>  <fr_aldehyde>  (59) 
0

>  <fr_alkyl_carbamate>  (59) 
0

>  <fr_alkyl_halide>  (59) 
0

>  <fr_allylic_oxid>  (59) 
0

>  <fr_amide>  (59) 
1

>  <fr_amidine>  (59) 
0

>  <fr_aniline>  (59) 
0

>  <fr_aryl_methyl>  (59) 
1

>  <fr_azide>  (59) 
0

>  <fr_azo>  (59) 
0

>  <fr_barbitur>  (59) 
0

>  <fr_benzene>  (59) 
0

>  <fr_benzodiazepine>  (59) 
0

>  <fr_bicyclic>  (59) 
1

>  <fr_diazo>  (59) 
0

>  <fr_dihydropyridine>  (59) 
0

>  <fr_epoxide>  (59) 
0

>  <fr_ester>  (59) 
0

>  <fr_ether>  (59) 
0

>  <fr_furan>  (59) 
0

>  <fr_guanido>  (59) 
0

>  <fr_halogen>  (59) 
0

>  <fr_hdrzine>  (59) 
0

>  <fr_hdrzone>  (59) 
0

>  <fr_imidazole>  (59) 
0

>  <fr_imide>  (59) 
0

>  <fr_isocyan>  (59) 
0

>  <fr_isothiocyan>  (59) 
0

>  <fr_ketone>  (59) 
0

>  <fr_ketone_Topliss>  (59) 
0

>  <fr_lactam>  (59) 
0

>  <fr_lactone>  (59) 
0

>  <fr_methoxy>  (59) 
0

>  <fr_morpholine>  (59) 
0

>  <fr_nitrile>  (59) 
0

>  <fr_nitro>  (59) 
0

>  <fr_nitro_arom>  (59) 
0

>  <fr_nitro_arom_nonortho>  (59) 
0

>  <fr_nitroso>  (59) 
0

>  <fr_oxazole>  (59) 
0

>  <fr_oxime>  (59) 
0

>  <fr_para_hydroxylation>  (59) 
0

>  <fr_phenol>  (59) 
0

>  <fr_phenol_noOrthoHbond>  (59) 
0

>  <fr_phos_acid>  (59) 
0

>  <fr_phos_ester>  (59) 
0

>  <fr_piperdine>  (59) 
0

>  <fr_piperzine>  (59) 
0

>  <fr_priamide>  (59) 
0

>  <fr_prisulfonamd>  (59) 
0

>  <fr_pyridine>  (59) 
0

>  <fr_quatN>  (59) 
0

>  <fr_sulfide>  (59) 
0

>  <fr_sulfonamd>  (59) 
0

>  <fr_sulfone>  (59) 
0

>  <fr_term_acetylene>  (59) 
0

>  <fr_tetrazole>  (59) 
0

>  <fr_thiazole>  (59) 
0

>  <fr_thiocyan>  (59) 
0

>  <fr_thiophene>  (59) 
1

>  <fr_unbrch_alkane>  (59) 
0

>  <fr_urea>  (59) 
0

>  <NP_Likeness>  (59) 
-1.577407

$$$$
CHEMBL4576489
     RDKit          3D

  0  0  0  0  0  0  0  0  0  0999 V3000
M  V30 BEGIN CTAB
M  V30 COUNTS 123 133 0 0 0
M  V30 BEGIN ATOM
M  V30 1 C -1.196597 0.729502 -1.434546 0
M  V30 2 O 0.055446 0.747441 -2.026865 0
M  V30 3 C 1.085309 1.052274 -1.131729 0 CFG=2
M  V30 4 C 1.908897 2.232995 -1.639037 0 CFG=2
M  V30 5 N 1.542363 3.505217 -1.257625 0
M  V30 6 C 1.651563 3.633170 0.189623 0
M  V30 7 C 0.435409 4.221029 -1.783251 0
M  V30 8 C 0.502934 4.656609 -3.208424 0
M  V30 9 O -0.556222 5.346145 -3.678580 0
M  V30 10 C -1.788213 4.891530 -3.860639 0
M  V30 11 C -2.608390 4.369953 -2.739214 0
M  V30 12 O -2.856811 5.256852 -1.714256 0
M  V30 13 C -3.503069 4.494497 -0.701636 0
M  V30 14 C -3.905473 5.350660 0.440530 0
M  V30 15 O -4.522842 4.686035 1.494050 0
M  V30 16 C -3.600396 3.845512 2.083237 0
M  V30 17 C -4.152074 3.048813 3.262216 0
M  V30 18 N -3.049378 2.227306 3.788771 0
M  V30 19 C -3.229768 1.305503 4.896901 0
M  V30 20 O -4.472906 1.529417 5.071213 0
M  V30 21 C -1.939869 0.664102 5.179072 0
M  V30 22 C -2.014884 -0.463101 6.142153 0
M  V30 23 C -2.807792 -1.614310 5.664419 0
M  V30 24 N -2.276892 -2.775876 5.415379 0 CHG=1 VAL=4
M  V30 25 C -3.207285 -3.731511 4.966447 0
M  V30 26 C -2.999405 -4.985161 4.633814 0
M  V30 27 C -1.639783 -5.490710 4.729016 0
M  V30 28 C -1.040702 -6.716502 4.481013 0
M  V30 29 C -1.764804 -7.926019 3.995786 0
M  V30 30 C 0.306997 -6.619729 4.755688 0
M  V30 31 C 0.547292 -5.328497 5.176386 0
M  V30 32 C 1.907711 -4.838650 5.571978 0
M  V30 33 N -0.653911 -4.693811 5.142203 0
M  V30 34 B -0.822020 -3.235715 5.532072 0 CHG=-1 VAL=4
M  V30 35 F 0.015897 -2.418539 4.633200 0
M  V30 36 F -0.292670 -2.957536 6.878635 0
M  V30 37 C -4.494320 -3.023554 4.945592 0
M  V30 38 C -4.205281 -1.802952 5.358147 0
M  V30 39 C 2.188024 1.933797 -3.073230 0
M  V30 40 C 3.117008 0.711593 -3.054682 0 CFG=1
M  V30 41 O 3.190765 0.072629 -1.868753 0
M  V30 42 C 2.015377 -0.150510 -1.160666 0 CFG=1
M  V30 43 C 2.495978 -0.397070 0.276971 0
M  V30 44 N 1.392756 -1.356793 -1.642833 0
M  V30 45 C 0.630421 -2.298814 -1.076549 0
M  V30 46 C 0.186425 -2.362138 0.219725 0
M  V30 47 C -0.601970 -3.415750 0.640377 0
M  V30 48 C -0.990533 -4.450958 -0.186707 0
M  V30 49 C -0.528005 -4.360533 -1.498385 0
M  V30 50 C 0.260212 -3.300944 -1.904875 0
M  V30 51 C 0.812517 -3.020810 -3.139564 0
M  V30 52 C 0.793695 -3.626436 -4.360482 0
M  V30 53 C 1.449628 -3.076169 -5.433148 0
M  V30 54 C 2.119429 -1.914174 -5.254545 0
M  V30 55 C 2.829536 -1.180220 -6.146813 0
M  V30 56 C 3.212331 -1.166313 -7.450711 0
M  V30 57 C 3.979425 -0.208974 -8.076191 0
M  V30 58 C 4.423603 0.865042 -7.326759 0
M  V30 59 C 4.076458 0.935661 -5.970136 0
M  V30 60 C 3.305289 -0.086424 -5.467805 0
M  V30 61 N 2.883017 -0.169709 -4.187222 0
M  V30 62 C 2.140827 -1.306701 -4.040028 0
M  V30 63 C 1.478783 -1.847783 -2.926538 0
M  V30 64 C 1.226176 -3.951687 -6.541976 0
M  V30 65 O 1.561972 -3.969680 -7.733418 0
M  V30 66 N 0.425161 -5.053695 -6.152896 0
M  V30 67 C 0.111215 -4.899220 -4.725666 0
M  V30 68 H -1.928403 0.488854 -2.245388 0
M  V30 69 H -1.318369 -0.099749 -0.709168 0
M  V30 70 H -1.495961 1.705686 -1.018402 0
M  V30 71 H 0.702126 1.240768 -0.108298 0
M  V30 72 H 2.931506 2.063676 -1.127045 0
M  V30 73 H 2.393409 2.914401 0.534821 0
M  V30 74 H 0.694342 3.576197 0.704544 0
M  V30 75 H 2.080585 4.644359 0.387247 0
M  V30 76 H 0.458956 5.212781 -1.193783 0
M  V30 77 H -0.533118 3.821809 -1.540438 0
M  V30 78 H 1.415166 5.308038 -3.381558 0
M  V30 79 H 0.590732 3.756154 -3.902274 0
M  V30 80 H -1.799878 4.051776 -4.646514 0
M  V30 81 H -2.380896 5.696415 -4.393570 0
M  V30 82 H -2.430132 3.358468 -2.432023 0
M  V30 83 H -3.673499 4.261321 -3.231116 0
M  V30 84 H -4.450805 4.055540 -1.130002 0
M  V30 85 H -2.850352 3.641394 -0.460629 0
M  V30 86 H -4.518506 6.222862 0.101793 0
M  V30 87 H -2.966860 5.810080 0.873542 0
M  V30 88 H -2.664763 4.376045 2.389894 0
M  V30 89 H -3.261685 3.110997 1.314164 0
M  V30 90 H -4.415917 3.762010 4.048326 0
M  V30 91 H -4.992128 2.415879 2.967687 0
M  V30 92 H -2.117462 2.369886 3.285448 0
M  V30 93 H -1.208283 1.428752 5.557818 0
M  V30 94 H -1.527156 0.286135 4.212043 0
M  V30 95 H -0.995996 -0.780570 6.412666 0
M  V30 96 H -2.464083 -0.082606 7.115846 0
M  V30 97 H -3.784719 -5.646045 4.297524 0
M  V30 98 H -2.200513 -8.494135 4.856793 0
M  V30 99 H -1.033266 -8.610183 3.479085 0
M  V30 100 H -2.576592 -7.636897 3.306593 0
M  V30 101 H 1.017258 -7.445962 4.646898 0
M  V30 102 H 2.465756 -5.642433 6.076705 0
M  V30 103 H 2.469550 -4.419291 4.723296 0
M  V30 104 H 1.755989 -4.044270 6.362884 0
M  V30 105 H -5.463540 -3.414343 4.654419 0
M  V30 106 H -4.974439 -1.060667 5.446590 0
M  V30 107 H 2.675259 2.758541 -3.628395 0
M  V30 108 H 1.262058 1.540634 -3.539283 0
M  V30 109 H 4.152626 1.127288 -3.252529 0
M  V30 110 H 3.532778 0.077168 0.405591 0
M  V30 111 H 2.690382 -1.454735 0.490368 0
M  V30 112 H 1.898128 0.153745 1.024383 0
M  V30 113 H 0.428527 -1.590470 0.923671 0
M  V30 114 H -0.971275 -3.489862 1.673632 0
M  V30 115 H -1.604041 -5.285523 0.113628 0
M  V30 116 H -0.787266 -5.120952 -2.200770 0
M  V30 117 H 2.913616 -1.957003 -8.092562 0
M  V30 118 H 4.256577 -0.249528 -9.121183 0
M  V30 119 H 5.028502 1.679416 -7.700808 0
M  V30 120 H 4.417288 1.767666 -5.391212 0
M  V30 121 H 0.034062 -5.897165 -6.623605 0
M  V30 122 H -0.990118 -4.858541 -4.594301 0
M  V30 123 H 0.507179 -5.751080 -4.144052 0
M  V30 END ATOM
M  V30 BEGIN BOND
M  V30 1 1 1 2
M  V30 2 1 2 3
M  V30 3 1 3 4
M  V30 4 1 4 5
M  V30 5 1 5 6
M  V30 6 1 5 7
M  V30 7 1 7 8
M  V30 8 1 8 9
M  V30 9 1 9 10
M  V30 10 1 10 11
M  V30 11 1 11 12
M  V30 12 1 12 13
M  V30 13 1 13 14
M  V30 14 1 14 15
M  V30 15 1 15 16
M  V30 16 1 16 17
M  V30 17 1 17 18
M  V30 18 1 18 19
M  V30 19 2 19 20
M  V30 20 1 19 21
M  V30 21 1 21 22
M  V30 22 1 22 23
M  V30 23 2 23 24
M  V30 24 1 24 25
M  V30 25 2 25 26
M  V30 26 1 26 27
M  V30 27 2 27 28
M  V30 28 1 28 29
M  V30 29 1 28 30
M  V30 30 2 30 31
M  V30 31 1 31 32
M  V30 32 1 31 33
M  V30 33 1 33 34
M  V30 34 1 34 35
M  V30 35 1 34 36
M  V30 36 1 25 37
M  V30 37 2 37 38
M  V30 38 1 4 39
M  V30 39 1 39 40
M  V30 40 1 40 41
M  V30 41 1 41 42
M  V30 42 1 42 43 CFG=1
M  V30 43 1 42 44
M  V30 44 1 44 45
M  V30 45 2 45 46
M  V30 46 1 46 47
M  V30 47 2 47 48
M  V30 48 1 48 49
M  V30 49 2 49 50
M  V30 50 1 50 51
M  V30 51 2 51 52
M  V30 52 1 52 53
M  V30 53 2 53 54
M  V30 54 1 54 55
M  V30 55 2 55 56
M  V30 56 1 56 57
M  V30 57 2 57 58
M  V30 58 1 58 59
M  V30 59 2 59 60
M  V30 60 1 60 61
M  V30 61 1 61 62
M  V30 62 2 62 63
M  V30 63 1 53 64
M  V30 64 2 64 65
M  V30 65 1 64 66
M  V30 66 1 66 67
M  V30 67 1 42 3
M  V30 68 1 63 44
M  V30 69 1 38 23
M  V30 70 1 61 40
M  V30 71 1 34 24
M  V30 72 1 50 45
M  V30 73 1 63 51
M  V30 74 1 33 27
M  V30 75 1 67 52
M  V30 76 1 62 54
M  V30 77 1 60 55
M  V30 78 1 1 68
M  V30 79 1 1 69
M  V30 80 1 1 70
M  V30 81 1 3 71 CFG=1
M  V30 82 1 4 72 CFG=1
M  V30 83 1 6 73
M  V30 84 1 6 74
M  V30 85 1 6 75
M  V30 86 1 7 76
M  V30 87 1 7 77
M  V30 88 1 8 78
M  V30 89 1 8 79
M  V30 90 1 10 80
M  V30 91 1 10 81
M  V30 92 1 11 82
M  V30 93 1 11 83
M  V30 94 1 13 84
M  V30 95 1 13 85
M  V30 96 1 14 86
M  V30 97 1 14 87
M  V30 98 1 16 88
M  V30 99 1 16 89
M  V30 100 1 17 90
M  V30 101 1 17 91
M  V30 102 1 18 92
M  V30 103 1 21 93
M  V30 104 1 21 94
M  V30 105 1 22 95
M  V30 106 1 22 96
M  V30 107 1 26 97
M  V30 108 1 29 98
M  V30 109 1 29 99
M  V30 110 1 29 100
M  V30 111 1 30 101
M  V30 112 1 32 102
M  V30 113 1 32 103
M  V30 114 1 32 104
M  V30 115 1 37 105
M  V30 116 1 38 106
M  V30 117 1 39 107
M  V30 118 1 39 108
M  V30 119 1 40 109 CFG=3
M  V30 120 1 43 110
M  V30 121 1 43 111
M  V30 122 1 43 112
M  V30 123 1 46 113
M  V30 124 1 47 114
M  V30 125 1 48 115
M  V30 126 1 49 116
M  V30 127 1 56 117
M  V30 128 1 57 118
M  V30 129 1 58 119
M  V30 130 1 59 120
M  V30 131 1 66 121
M  V30 132 1 67 122
M  V30 133 1 67 123
M  V30 END BOND
M  V30 END CTAB
M  END
>  <Dataset>  (60) 
ChEMBL_PKA

>  <Ligand_Instance>  (60) 
nan

>  <PDB_ID>  (60) 
nan

>  <Standardized_SMILES>  (60) 
CO[C@@H]1[C@H](N(C)CCOCCOCCOCCNC(=O)CCC2=[N+]3C(=Cc4c(C)cc(C)n4[B-]3(F)F)C=C2)C[C@H]2O[C@]1(C)n1c3ccccc3c3c4c(c5c6ccccc6n2c5c31)C(=O)NC4

>  <Name>  (60) 
nan

>  <Pocket>  (60) 
nan

>  <ATP_Site>  (60) 
nan

>  <Peripheral>  (60) 
nan

>  <Num_H_Atoms_ProtBoundConf>  (60) 
nan

>  <Num_Resolved_Atoms>  (60) 
nan

>  <Num_Not_Resolved_Atoms>  (60) 
nan

>  <2D_Mol_H>  (60) 
<rdkit.Chem.rdchem.Mol object at 0x72a2391109e0>

>  <MW>  (60) 
915.848

>  <HBA>  (60) 
11

>  <HBD>  (60) 
2

>  <LogP>  (60) 
6.73164

>  <NRB>  (60) 
22

>  <TPSA>  (60) 
125.39

>  <Num_Heavy_Atoms>  (60) 
67

>  <Ro5>  (60) 
[False, False, True, False, False, True]

>  <Ro5_Fulfilled>  (60) 
False

>  <Ro3>  (60) 
[False, False, True, False]

>  <Ro3_Fulfilled>  (60) 
False

>  <Fsp3>  (60) 
0.42

>  <Fsp3_0.42>  (60) 
True

>  <Fsp3_0.45>  (60) 
False

>  <Stereogenic_Carbons>  (60) 
4

>  <C_Atoms>  (60) 
50

>  <FCStereo>  (60) 
0.08

>  <SPS>  (60) 
1498

>  <nSPS>  (60) 
22.358209

>  <PBF>  (60) 
1.564088

>  <PBF_0.6>  (60) 
True

>  <nPBF>  (60) 
0.023345

>  <nPBF_0.016>  (60) 
True

>  <PMI1>  (60) 
13232.426545

>  <PMI2>  (60) 
22208.691538

>  <PMI3>  (60) 
30955.946246

>  <NPR1>  (60) 
0.42746

>  <NPR2>  (60) 
0.717429

>  <Sum_NPR>  (60) 
1.144889

>  <Sum_NPR_1.07>  (60) 
True

>  <Sum_NPR_1.2>  (60) 
False

>  <MaxAbsEStateIndex>  (60) 
15.694687

>  <MaxEStateIndex>  (60) 
15.694687

>  <MinAbsEStateIndex>  (60) 
0.039802

>  <MinEStateIndex>  (60) 
-4.053035

>  <qed>  (60) 
0.07633

>  <MolWt>  (60) 
915.848

>  <HeavyAtomMolWt>  (60) 
859.4

>  <ExactMolWt>  (60) 
915.430234

>  <NumValenceElectrons>  (60) 
350

>  <NumRadicalElectrons>  (60) 
0

>  <MaxPartialCharge>  (60) 
0.736886

>  <MinPartialCharge>  (60) 
-0.393765

>  <MaxAbsPartialCharge>  (60) 
0.736886

>  <MinAbsPartialCharge>  (60) 
0.393765

>  <FpDensityMorgan1>  (60) 
0.970149

>  <FpDensityMorgan2>  (60) 
1.671642

>  <FpDensityMorgan3>  (60) 
2.432836

>  <BCUT2D_MWHI>  (60) 
19.248101

>  <BCUT2D_MWLOW>  (60) 
9.897939

>  <BCUT2D_CHGHI>  (60) 
2.548177

>  <BCUT2D_CHGLO>  (60) 
-2.503162

>  <BCUT2D_LOGPHI>  (60) 
2.539245

>  <BCUT2D_LOGPLOW>  (60) 
-2.604117

>  <BCUT2D_MRHI>  (60) 
6.577649

>  <BCUT2D_MRLOW>  (60) 
-0.361884

>  <AvgIpc>  (60) 
4.118363

>  <BalabanJ>  (60) 
0.665346

>  <BertzCT>  (60) 
3115.476674

>  <Chi0>  (60) 
46.354067

>  <Chi0n>  (60) 
38.572621

>  <Chi0v>  (60) 
38.572621

>  <Chi1>  (60) 
32.433745

>  <Chi1n>  (60) 
23.395567

>  <Chi1v>  (60) 
23.395567

>  <Chi2n>  (60) 
18.55349

>  <Chi2v>  (60) 
18.55349

>  <Chi3n>  (60) 
14.681225

>  <Chi3v>  (60) 
14.681225

>  <Chi4n>  (60) 
11.847218

>  <Chi4v>  (60) 
11.847218

>  <HallKierAlpha>  (60) 
-5.685065

>  <Ipc>  (60) 
1708111623804979.0

>  <Kappa1>  (60) 
43.858626

>  <Kappa2>  (60) 
16.822013

>  <Kappa3>  (60) 
6.828298

>  <LabuteASA>  (60) 
386.271322

>  <PEOE_VSA1>  (60) 
61.048061

>  <PEOE_VSA10>  (60) 
18.043553

>  <PEOE_VSA11>  (60) 
11.422025

>  <PEOE_VSA12>  (60) 
5.90718

>  <PEOE_VSA13>  (60) 
5.90718

>  <PEOE_VSA14>  (60) 
6.970049

>  <PEOE_VSA2>  (60) 
14.488984

>  <PEOE_VSA3>  (60) 
0.0

>  <PEOE_VSA4>  (60) 
0.0

>  <PEOE_VSA5>  (60) 
0.0

>  <PEOE_VSA6>  (60) 
36.398202

>  <PEOE_VSA7>  (60) 
62.838816

>  <PEOE_VSA8>  (60) 
97.515258

>  <PEOE_VSA9>  (60) 
67.271546

>  <SMR_VSA1>  (60) 
46.391246

>  <SMR_VSA10>  (60) 
74.183813

>  <SMR_VSA2>  (60) 
0.0

>  <SMR_VSA3>  (60) 
29.145799

>  <SMR_VSA4>  (60) 
0.0

>  <SMR_VSA5>  (60) 
70.677127

>  <SMR_VSA6>  (60) 
66.888274

>  <SMR_VSA7>  (60) 
100.524594

>  <SMR_VSA8>  (60) 
0.0

>  <SMR_VSA9>  (60) 
0.0

>  <SlogP_VSA1>  (60) 
10.633577

>  <SlogP_VSA10>  (60) 
8.631318

>  <SlogP_VSA11>  (60) 
0.0

>  <SlogP_VSA12>  (60) 
0.0

>  <SlogP_VSA2>  (60) 
126.528935

>  <SlogP_VSA3>  (60) 
40.748594

>  <SlogP_VSA4>  (60) 
13.847474

>  <SlogP_VSA5>  (60) 
65.286851

>  <SlogP_VSA6>  (60) 
72.446383

>  <SlogP_VSA7>  (60) 
0.0

>  <SlogP_VSA8>  (60) 
49.68772

>  <SlogP_VSA9>  (60) 
0.0

>  <EState_VSA1>  (60) 
12.695034

>  <EState_VSA10>  (60) 
9.589074

>  <EState_VSA11>  (60) 
8.631318

>  <EState_VSA2>  (60) 
43.029711

>  <EState_VSA3>  (60) 
88.492963

>  <EState_VSA4>  (60) 
69.266706

>  <EState_VSA5>  (60) 
0.0

>  <EState_VSA6>  (60) 
38.327962

>  <EState_VSA7>  (60) 
12.990104

>  <EState_VSA8>  (60) 
81.103665

>  <EState_VSA9>  (60) 
23.684315

>  <VSA_EState1>  (60) 
69.574103

>  <VSA_EState10>  (60) 
0.0

>  <VSA_EState2>  (60) 
28.607683

>  <VSA_EState3>  (60) 
10.163701

>  <VSA_EState4>  (60) 
7.781439

>  <VSA_EState5>  (60) 
-0.260643

>  <VSA_EState6>  (60) 
18.500536

>  <VSA_EState7>  (60) 
5.4192

>  <VSA_EState8>  (60) 
5.414691

>  <VSA_EState9>  (60) 
3.882624

>  <FractionCSP3>  (60) 
0.42

>  <HeavyAtomCount>  (60) 
67

>  <NHOHCount>  (60) 
2

>  <NOCount>  (60) 
14

>  <NumAliphaticCarbocycles>  (60) 
0

>  <NumAliphaticHeterocycles>  (60) 
5

>  <NumAliphaticRings>  (60) 
5

>  <NumAromaticCarbocycles>  (60) 
3

>  <NumAromaticHeterocycles>  (60) 
3

>  <NumAromaticRings>  (60) 
6

>  <NumHAcceptors>  (60) 
11

>  <NumHDonors>  (60) 
2

>  <NumHeteroatoms>  (60) 
17

>  <NumRotatableBonds>  (60) 
17

>  <NumSaturatedCarbocycles>  (60) 
0

>  <NumSaturatedHeterocycles>  (60) 
1

>  <NumSaturatedRings>  (60) 
1

>  <RingCount>  (60) 
11

>  <MolLogP>  (60) 
6.73164

>  <MolMR>  (60) 
253.5773

>  <fr_Al_COO>  (60) 
0

>  <fr_Al_OH>  (60) 
0

>  <fr_Al_OH_noTert>  (60) 
0

>  <fr_ArN>  (60) 
0

>  <fr_Ar_COO>  (60) 
0

>  <fr_Ar_N>  (60) 
3

>  <fr_Ar_NH>  (60) 
0

>  <fr_Ar_OH>  (60) 
0

>  <fr_COO>  (60) 
0

>  <fr_COO2>  (60) 
0

>  <fr_C_O>  (60) 
2

>  <fr_C_O_noCOO>  (60) 
2

>  <fr_C_S>  (60) 
0

>  <fr_HOCCN>  (60) 
0

>  <fr_Imine>  (60) 
0

>  <fr_NH0>  (60) 
5

>  <fr_NH1>  (60) 
2

>  <fr_NH2>  (60) 
0

>  <fr_N_O>  (60) 
0

>  <fr_Ndealkylation1>  (60) 
1

>  <fr_Ndealkylation2>  (60) 
0

>  <fr_Nhpyrrole>  (60) 
0

>  <fr_SH>  (60) 
0

>  <fr_aldehyde>  (60) 
0

>  <fr_alkyl_carbamate>  (60) 
0

>  <fr_alkyl_halide>  (60) 
0

>  <fr_allylic_oxid>  (60) 
2

>  <fr_amide>  (60) 
2

>  <fr_amidine>  (60) 
0

>  <fr_aniline>  (60) 
0

>  <fr_aryl_methyl>  (60) 
2

>  <fr_azide>  (60) 
0

>  <fr_azo>  (60) 
0

>  <fr_barbitur>  (60) 
0

>  <fr_benzene>  (60) 
3

>  <fr_benzodiazepine>  (60) 
0

>  <fr_bicyclic>  (60) 
15

>  <fr_diazo>  (60) 
0

>  <fr_dihydropyridine>  (60) 
0

>  <fr_epoxide>  (60) 
0

>  <fr_ester>  (60) 
0

>  <fr_ether>  (60) 
5

>  <fr_furan>  (60) 
0

>  <fr_guanido>  (60) 
0

>  <fr_halogen>  (60) 
2

>  <fr_hdrzine>  (60) 
0

>  <fr_hdrzone>  (60) 
0

>  <fr_imidazole>  (60) 
0

>  <fr_imide>  (60) 
0

>  <fr_isocyan>  (60) 
0

>  <fr_isothiocyan>  (60) 
0

>  <fr_ketone>  (60) 
0

>  <fr_ketone_Topliss>  (60) 
0

>  <fr_lactam>  (60) 
0

>  <fr_lactone>  (60) 
0

>  <fr_methoxy>  (60) 
1

>  <fr_morpholine>  (60) 
0

>  <fr_nitrile>  (60) 
0

>  <fr_nitro>  (60) 
0

>  <fr_nitro_arom>  (60) 
0

>  <fr_nitro_arom_nonortho>  (60) 
0

>  <fr_nitroso>  (60) 
0

>  <fr_oxazole>  (60) 
0

>  <fr_oxime>  (60) 
0

>  <fr_para_hydroxylation>  (60) 
2

>  <fr_phenol>  (60) 
0

>  <fr_phenol_noOrthoHbond>  (60) 
0

>  <fr_phos_acid>  (60) 
0

>  <fr_phos_ester>  (60) 
0

>  <fr_piperdine>  (60) 
0

>  <fr_piperzine>  (60) 
0

>  <fr_priamide>  (60) 
0

>  <fr_prisulfonamd>  (60) 
0

>  <fr_pyridine>  (60) 
0

>  <fr_quatN>  (60) 
0

>  <fr_sulfide>  (60) 
0

>  <fr_sulfonamd>  (60) 
0

>  <fr_sulfone>  (60) 
0

>  <fr_term_acetylene>  (60) 
0

>  <fr_tetrazole>  (60) 
0

>  <fr_thiazole>  (60) 
0

>  <fr_thiocyan>  (60) 
0

>  <fr_thiophene>  (60) 
0

>  <fr_unbrch_alkane>  (60) 
0

>  <fr_urea>  (60) 
0

>  <NP_Likeness>  (60) 
0.179566

$$$$
CHEMBL460702
     RDKit          3D

  0  0  0  0  0  0  0  0  0  0999 V3000
M  V30 BEGIN CTAB
M  V30 COUNTS 55 58 0 0 0
M  V30 BEGIN ATOM
M  V30 1 C -0.211405 -0.255884 5.481888 0
M  V30 2 C 0.892990 -0.861317 4.657734 0
M  V30 3 O 0.821361 -0.517475 3.287880 0
M  V30 4 C 0.884064 0.770351 2.790571 0
M  V30 5 C 1.033026 1.838117 3.684370 0
M  V30 6 C 1.105090 3.149743 3.284017 0
M  V30 7 N 1.028457 3.423350 1.961068 0
M  V30 8 C 1.098808 4.769408 1.507033 0
M  V30 9 C 2.154168 5.362137 0.843220 0
M  V30 10 C 2.096461 6.686184 0.454110 0
M  V30 11 C 0.954254 7.416714 0.742232 0
M  V30 12 F 0.931755 8.716640 0.344849 0
M  V30 13 C -0.111335 6.824384 1.410545 0
M  V30 14 C -0.042953 5.510842 1.791597 0
M  V30 15 C 0.885943 2.391084 1.116154 0
M  V30 16 O 0.820815 2.705200 -0.093230 0
M  V30 17 C 0.808014 1.070264 1.447276 0
M  V30 18 C 0.653619 -0.052201 0.542071 0
M  V30 19 O 0.601288 -1.220127 1.047978 0
M  V30 20 N 0.544901 -0.090344 -0.871469 0
M  V30 21 C 0.409137 -1.448559 -1.280543 0
M  V30 22 C -0.881583 -1.929116 -1.361372 0
M  V30 23 C -1.126145 -3.224158 -1.745074 0
M  V30 24 C -0.102639 -4.089366 -2.062151 0
M  V30 25 O -0.089163 -5.390417 -2.459793 0
M  V30 26 C -1.125162 -6.251345 -2.651232 0
M  V30 27 C -1.407267 -6.838162 -3.883870 0
M  V30 28 C -2.443161 -7.716780 -4.131898 0
M  V30 29 N -3.269258 -8.056233 -3.118592 0
M  V30 30 C -3.069700 -7.536308 -1.894502 0
M  V30 31 N -3.947502 -7.895403 -0.812528 0
M  V30 32 C -2.033538 -6.664264 -1.668662 0
M  V30 33 Cl -1.827005 -6.036142 -0.047439 0
M  V30 34 C 1.205300 -3.596108 -1.978438 0
M  V30 35 F 2.357415 -4.295155 -2.251059 0
M  V30 36 C 1.468955 -2.276977 -1.588426 0
M  V30 37 H -0.872782 -1.100192 5.804446 0
M  V30 38 H -0.880671 0.394486 4.879986 0
M  V30 39 H 0.186421 0.225087 6.378585 0
M  V30 40 H 0.943975 -1.956418 4.797832 0
M  V30 41 H 1.864077 -0.466471 5.050785 0
M  V30 42 H 1.104796 1.717261 4.749491 0
M  V30 43 H 1.219826 3.979649 3.966384 0
M  V30 44 H 2.999378 4.690713 0.670944 0
M  V30 45 H 2.948364 7.085283 -0.056844 0
M  V30 46 H -0.940294 7.480362 1.580336 0
M  V30 47 H -0.921706 5.166381 2.297563 0
M  V30 48 H 0.579103 0.817057 -1.351484 0
M  V30 49 H -1.770478 -1.357845 -1.140884 0
M  V30 50 H -2.088648 -3.675079 -1.837871 0
M  V30 51 H -0.734905 -6.562001 -4.708738 0
M  V30 52 H -2.530609 -8.090940 -5.159461 0
M  V30 53 H -4.111063 -8.745942 -0.231042 0
M  V30 54 H -4.571597 -7.074188 -0.565258 0
M  V30 55 H 2.453888 -1.860714 -1.511839 0
M  V30 END ATOM
M  V30 BEGIN BOND
M  V30 1 1 1 2
M  V30 2 1 2 3
M  V30 3 1 3 4
M  V30 4 1 4 5
M  V30 5 2 5 6
M  V30 6 1 6 7
M  V30 7 1 7 8
M  V30 8 2 8 9
M  V30 9 1 9 10
M  V30 10 2 10 11
M  V30 11 1 11 12
M  V30 12 1 11 13
M  V30 13 2 13 14
M  V30 14 1 7 15
M  V30 15 2 15 16
M  V30 16 1 15 17
M  V30 17 1 17 18
M  V30 18 2 18 19
M  V30 19 1 18 20
M  V30 20 1 20 21
M  V30 21 2 21 22
M  V30 22 1 22 23
M  V30 23 2 23 24
M  V30 24 1 24 25
M  V30 25 1 25 26
M  V30 26 2 26 27
M  V30 27 1 27 28
M  V30 28 2 28 29
M  V30 29 1 29 30
M  V30 30 1 30 31
M  V30 31 2 30 32
M  V30 32 1 32 33
M  V30 33 1 24 34
M  V30 34 1 34 35
M  V30 35 2 34 36
M  V30 36 2 17 4
M  V30 37 1 36 21
M  V30 38 1 14 8
M  V30 39 1 32 26
M  V30 40 1 1 37
M  V30 41 1 1 38
M  V30 42 1 1 39
M  V30 43 1 2 40
M  V30 44 1 2 41
M  V30 45 1 5 42
M  V30 46 1 6 43
M  V30 47 1 9 44
M  V30 48 1 10 45
M  V30 49 1 13 46
M  V30 50 1 14 47
M  V30 51 1 20 48
M  V30 52 1 22 49
M  V30 53 1 23 50
M  V30 54 1 27 51
M  V30 55 1 28 52
M  V30 56 1 31 53
M  V30 57 1 31 54
M  V30 58 1 36 55
M  V30 END BOND
M  V30 END CTAB
M  END
>  <Dataset>  (61) 
ChEMBL_PKA

>  <Ligand_Instance>  (61) 
nan

>  <PDB_ID>  (61) 
nan

>  <Standardized_SMILES>  (61) 
CCOc1ccn(-c2ccc(F)cc2)c(=O)c1C(=O)Nc1ccc(Oc2ccnc(N)c2Cl)c(F)c1

>  <Name>  (61) 
BMS-777607

>  <Pocket>  (61) 
nan

>  <ATP_Site>  (61) 
nan

>  <Peripheral>  (61) 
nan

>  <Num_H_Atoms_ProtBoundConf>  (61) 
nan

>  <Num_Resolved_Atoms>  (61) 
nan

>  <Num_Not_Resolved_Atoms>  (61) 
nan

>  <2D_Mol_H>  (61) 
<rdkit.Chem.rdchem.Mol object at 0x72a239110ac0>

>  <MW>  (61) 
512.9

>  <HBA>  (61) 
7

>  <HBD>  (61) 
2

>  <LogP>  (61) 
5.1896

>  <NRB>  (61) 
9

>  <TPSA>  (61) 
108.47

>  <Num_Heavy_Atoms>  (61) 
36

>  <Ro5>  (61) 
[False, True, True, False, True, True]

>  <Ro5_Fulfilled>  (61) 
False

>  <Ro3>  (61) 
[False, False, True, False]

>  <Ro3_Fulfilled>  (61) 
False

>  <Fsp3>  (61) 
0.08

>  <Fsp3_0.42>  (61) 
False

>  <Fsp3_0.45>  (61) 
False

>  <Stereogenic_Carbons>  (61) 
0

>  <C_Atoms>  (61) 
25

>  <FCStereo>  (61) 
0.0

>  <SPS>  (61) 
384

>  <nSPS>  (61) 
10.666667

>  <PBF>  (61) 
0.988772

>  <PBF_0.6>  (61) 
True

>  <nPBF>  (61) 
0.027466

>  <nPBF_0.016>  (61) 
True

>  <PMI1>  (61) 
2341.015055

>  <PMI2>  (61) 
14575.402597

>  <PMI3>  (61) 
15623.819654

>  <NPR1>  (61) 
0.149836

>  <NPR2>  (61) 
0.932896

>  <Sum_NPR>  (61) 
1.082733

>  <Sum_NPR_1.07>  (61) 
True

>  <Sum_NPR_1.2>  (61) 
False

>  <MaxAbsEStateIndex>  (61) 
14.730858

>  <MaxEStateIndex>  (61) 
14.730858

>  <MinAbsEStateIndex>  (61) 
0.025662

>  <MinEStateIndex>  (61) 
-0.821359

>  <qed>  (61) 
0.352615

>  <MolWt>  (61) 
512.9

>  <HeavyAtomMolWt>  (61) 
493.748

>  <ExactMolWt>  (61) 
512.106289

>  <NumValenceElectrons>  (61) 
184

>  <NumRadicalElectrons>  (61) 
0

>  <MaxPartialCharge>  (61) 
0.271265

>  <MinPartialCharge>  (61) 
-0.492771

>  <MaxAbsPartialCharge>  (61) 
0.492771

>  <MinAbsPartialCharge>  (61) 
0.271265

>  <FpDensityMorgan1>  (61) 
1.083333

>  <FpDensityMorgan2>  (61) 
1.833333

>  <FpDensityMorgan3>  (61) 
2.527778

>  <BCUT2D_MWHI>  (61) 
35.495693

>  <BCUT2D_MWLOW>  (61) 
10.168456

>  <BCUT2D_CHGHI>  (61) 
2.208538

>  <BCUT2D_CHGLO>  (61) 
-2.140016

>  <BCUT2D_LOGPHI>  (61) 
2.336312

>  <BCUT2D_LOGPLOW>  (61) 
-2.287889

>  <BCUT2D_MRHI>  (61) 
6.337726

>  <BCUT2D_MRLOW>  (61) 
0.101656

>  <AvgIpc>  (61) 
2.844224

>  <BalabanJ>  (61) 
1.626857

>  <BertzCT>  (61) 
1492.877191

>  <Chi0>  (61) 
25.819262

>  <Chi0n>  (61) 
18.796624

>  <Chi0v>  (61) 
19.552553

>  <Chi1>  (61) 
17.278096

>  <Chi1n>  (61) 
10.612661

>  <Chi1v>  (61) 
10.990625

>  <Chi2n>  (61) 
7.349271

>  <Chi2v>  (61) 
7.727235

>  <Chi3n>  (61) 
4.976152

>  <Chi3v>  (61) 
5.356037

>  <Chi4n>  (61) 
3.302495

>  <Chi4v>  (61) 
3.45286

>  <HallKierAlpha>  (61) 
-4.44

>  <Ipc>  (61) 
102480130.084741

>  <Kappa1>  (61) 
24.67722

>  <Kappa2>  (61) 
10.445953

>  <Kappa3>  (61) 
5.129549

>  <LabuteASA>  (61) 
208.421004

>  <PEOE_VSA1>  (61) 
20.524182

>  <PEOE_VSA10>  (61) 
27.97068

>  <PEOE_VSA11>  (61) 
17.316245

>  <PEOE_VSA12>  (61) 
0.0

>  <PEOE_VSA13>  (61) 
11.466447

>  <PEOE_VSA14>  (61) 
0.0

>  <PEOE_VSA2>  (61) 
14.156174

>  <PEOE_VSA3>  (61) 
13.764809

>  <PEOE_VSA4>  (61) 
0.0

>  <PEOE_VSA5>  (61) 
0.0

>  <PEOE_VSA6>  (61) 
11.60094

>  <PEOE_VSA7>  (61) 
49.388307

>  <PEOE_VSA8>  (61) 
35.901194

>  <PEOE_VSA9>  (61) 
6.606882

>  <SMR_VSA1>  (61) 
23.049093

>  <SMR_VSA10>  (61) 
29.013369

>  <SMR_VSA2>  (61) 
0.0

>  <SMR_VSA3>  (61) 
9.551078

>  <SMR_VSA4>  (61) 
0.0

>  <SMR_VSA5>  (61) 
6.923737

>  <SMR_VSA6>  (61) 
17.657338

>  <SMR_VSA7>  (61) 
99.565321

>  <SMR_VSA8>  (61) 
0.0

>  <SMR_VSA9>  (61) 
22.935922

>  <SlogP_VSA1>  (61) 
26.083449

>  <SlogP_VSA10>  (61) 
20.286079

>  <SlogP_VSA11>  (61) 
17.248535

>  <SlogP_VSA12>  (61) 
11.60094

>  <SlogP_VSA2>  (61) 
22.06514

>  <SlogP_VSA3>  (61) 
0.0

>  <SlogP_VSA4>  (61) 
11.634442

>  <SlogP_VSA5>  (61) 
17.281726

>  <SlogP_VSA6>  (61) 
71.785528

>  <SlogP_VSA7>  (61) 
5.022633

>  <SlogP_VSA8>  (61) 
5.687386

>  <SlogP_VSA9>  (61) 
0.0

>  <EState_VSA1>  (61) 
23.100888

>  <EState_VSA10>  (61) 
18.369904

>  <EState_VSA11>  (61) 
0.0

>  <EState_VSA2>  (61) 
45.946751

>  <EState_VSA3>  (61) 
5.687386

>  <EState_VSA4>  (61) 
6.066367

>  <EState_VSA5>  (61) 
65.491723

>  <EState_VSA6>  (61) 
6.923737

>  <EState_VSA7>  (61) 
0.0

>  <EState_VSA8>  (61) 
10.300767

>  <EState_VSA9>  (61) 
26.808333

>  <VSA_EState1>  (61) 
40.151473

>  <VSA_EState10>  (61) 
6.029502

>  <VSA_EState2>  (61) 
30.059029

>  <VSA_EState3>  (61) 
2.521255

>  <VSA_EState4>  (61) 
5.035313

>  <VSA_EState5>  (61) 
-2.09633

>  <VSA_EState6>  (61) 
11.739538

>  <VSA_EState7>  (61) 
2.775511

>  <VSA_EState8>  (61) 
1.895821

>  <VSA_EState9>  (61) 
0.0

>  <FractionCSP3>  (61) 
0.08

>  <HeavyAtomCount>  (61) 
36

>  <NHOHCount>  (61) 
3

>  <NOCount>  (61) 
8

>  <NumAliphaticCarbocycles>  (61) 
0

>  <NumAliphaticHeterocycles>  (61) 
0

>  <NumAliphaticRings>  (61) 
0

>  <NumAromaticCarbocycles>  (61) 
2

>  <NumAromaticHeterocycles>  (61) 
2

>  <NumAromaticRings>  (61) 
4

>  <NumHAcceptors>  (61) 
7

>  <NumHDonors>  (61) 
2

>  <NumHeteroatoms>  (61) 
11

>  <NumRotatableBonds>  (61) 
7

>  <NumSaturatedCarbocycles>  (61) 
0

>  <NumSaturatedHeterocycles>  (61) 
0

>  <NumSaturatedRings>  (61) 
0

>  <RingCount>  (61) 
4

>  <MolLogP>  (61) 
5.1896

>  <MolMR>  (61) 
131.2526

>  <fr_Al_COO>  (61) 
0

>  <fr_Al_OH>  (61) 
0

>  <fr_Al_OH_noTert>  (61) 
0

>  <fr_ArN>  (61) 
1

>  <fr_Ar_COO>  (61) 
0

>  <fr_Ar_N>  (61) 
2

>  <fr_Ar_NH>  (61) 
0

>  <fr_Ar_OH>  (61) 
0

>  <fr_COO>  (61) 
0

>  <fr_COO2>  (61) 
0

>  <fr_C_O>  (61) 
1

>  <fr_C_O_noCOO>  (61) 
1

>  <fr_C_S>  (61) 
0

>  <fr_HOCCN>  (61) 
0

>  <fr_Imine>  (61) 
0

>  <fr_NH0>  (61) 
2

>  <fr_NH1>  (61) 
1

>  <fr_NH2>  (61) 
1

>  <fr_N_O>  (61) 
0

>  <fr_Ndealkylation1>  (61) 
0

>  <fr_Ndealkylation2>  (61) 
0

>  <fr_Nhpyrrole>  (61) 
0

>  <fr_SH>  (61) 
0

>  <fr_aldehyde>  (61) 
0

>  <fr_alkyl_carbamate>  (61) 
0

>  <fr_alkyl_halide>  (61) 
0

>  <fr_allylic_oxid>  (61) 
0

>  <fr_amide>  (61) 
1

>  <fr_amidine>  (61) 
0

>  <fr_aniline>  (61) 
2

>  <fr_aryl_methyl>  (61) 
0

>  <fr_azide>  (61) 
0

>  <fr_azo>  (61) 
0

>  <fr_barbitur>  (61) 
0

>  <fr_benzene>  (61) 
2

>  <fr_benzodiazepine>  (61) 
0

>  <fr_bicyclic>  (61) 
0

>  <fr_diazo>  (61) 
0

>  <fr_dihydropyridine>  (61) 
0

>  <fr_epoxide>  (61) 
0

>  <fr_ester>  (61) 
0

>  <fr_ether>  (61) 
2

>  <fr_furan>  (61) 
0

>  <fr_guanido>  (61) 
0

>  <fr_halogen>  (61) 
3

>  <fr_hdrzine>  (61) 
0

>  <fr_hdrzone>  (61) 
0

>  <fr_imidazole>  (61) 
0

>  <fr_imide>  (61) 
0

>  <fr_isocyan>  (61) 
0

>  <fr_isothiocyan>  (61) 
0

>  <fr_ketone>  (61) 
0

>  <fr_ketone_Topliss>  (61) 
0

>  <fr_lactam>  (61) 
0

>  <fr_lactone>  (61) 
0

>  <fr_methoxy>  (61) 
0

>  <fr_morpholine>  (61) 
0

>  <fr_nitrile>  (61) 
0

>  <fr_nitro>  (61) 
0

>  <fr_nitro_arom>  (61) 
0

>  <fr_nitro_arom_nonortho>  (61) 
0

>  <fr_nitroso>  (61) 
0

>  <fr_oxazole>  (61) 
0

>  <fr_oxime>  (61) 
0

>  <fr_para_hydroxylation>  (61) 
0

>  <fr_phenol>  (61) 
0

>  <fr_phenol_noOrthoHbond>  (61) 
0

>  <fr_phos_acid>  (61) 
0

>  <fr_phos_ester>  (61) 
0

>  <fr_piperdine>  (61) 
0

>  <fr_piperzine>  (61) 
0

>  <fr_priamide>  (61) 
0

>  <fr_prisulfonamd>  (61) 
0

>  <fr_pyridine>  (61) 
2

>  <fr_quatN>  (61) 
0

>  <fr_sulfide>  (61) 
0

>  <fr_sulfonamd>  (61) 
0

>  <fr_sulfone>  (61) 
0

>  <fr_term_acetylene>  (61) 
0

>  <fr_tetrazole>  (61) 
0

>  <fr_thiazole>  (61) 
0

>  <fr_thiocyan>  (61) 
0

>  <fr_thiophene>  (61) 
0

>  <fr_unbrch_alkane>  (61) 
0

>  <fr_urea>  (61) 
0

>  <NP_Likeness>  (61) 
-1.446053

$$$$
CHEMBL495727
     RDKit          3D

  0  0  0  0  0  0  0  0  0  0999 V3000
M  V30 BEGIN CTAB
M  V30 COUNTS 51 55 0 0 0
M  V30 BEGIN ATOM
M  V30 1 O 0.137267 -4.119815 -2.262395 0
M  V30 2 C 0.336710 -4.346394 -1.032573 0
M  V30 3 N 1.668032 -4.067793 -0.574253 0
M  V30 4 C 2.530979 -3.586213 -1.579614 0
M  V30 5 C 3.324290 -4.368266 -2.393440 0
M  V30 6 N 3.993650 -3.537927 -3.214348 0
M  V30 7 N 3.629772 -2.283452 -2.921748 0
M  V30 8 C 2.731085 -2.268212 -1.921386 0
M  V30 9 C 2.125131 -1.068491 -1.353867 0
M  V30 10 N 2.360023 0.207645 -1.730648 0
M  V30 11 C 1.633608 1.065036 -0.997887 0
M  V30 12 C 1.580332 2.442818 -1.062488 0
M  V30 13 C 0.730758 3.088423 -0.173307 0
M  V30 14 C -0.018298 2.335194 0.729692 0
M  V30 15 C -0.884355 3.119583 1.624811 0
M  V30 16 N -0.242389 3.506498 2.856337 0
M  V30 17 C -1.096634 4.268280 3.716089 0
M  V30 18 C -1.901244 3.407082 4.645997 0
M  V30 19 O -1.939140 2.083566 4.267344 0
M  V30 20 C -0.658366 1.533289 4.284546 0
M  V30 21 C 0.327261 2.413284 3.581821 0
M  V30 22 C 0.079230 0.958996 0.744802 0
M  V30 23 C 0.914062 0.286185 -0.125492 0
M  V30 24 N 1.229320 -0.996040 -0.361574 0
M  V30 25 N -0.732481 -4.842556 -0.221777 0
M  V30 26 C -2.035656 -5.087744 -0.789907 0
M  V30 27 C -2.833339 -6.272257 -0.407845 0
M  V30 28 C -3.289439 -4.900593 -0.034256 0
M  V30 29 H 1.802491 -4.268248 0.461220 0
M  V30 30 H 3.427535 -5.453712 -2.410731 0
M  V30 31 H 4.694627 -3.788233 -3.973168 0
M  V30 32 H 2.199469 2.965526 -1.799883 0
M  V30 33 H 0.697315 4.172524 -0.233581 0
M  V30 34 H -1.823621 2.540750 1.859647 0
M  V30 35 H -1.234307 4.051406 1.137709 0
M  V30 36 H -0.443644 4.950207 4.327395 0
M  V30 37 H -1.730154 4.974159 3.109114 0
M  V30 38 H -2.954502 3.780504 4.578634 0
M  V30 39 H -1.503643 3.460134 5.671032 0
M  V30 40 H -0.753934 0.517053 3.839550 0
M  V30 41 H -0.376233 1.352561 5.360211 0
M  V30 42 H 1.054863 1.831309 2.958656 0
M  V30 43 H 0.983307 2.870010 4.379675 0
M  V30 44 H -0.512441 0.404546 1.454400 0
M  V30 45 H 0.805748 -1.753715 0.178912 0
M  V30 46 H -0.504418 -5.011249 0.793586 0
M  V30 47 H -2.070758 -4.845712 -1.883026 0
M  V30 48 H -2.360684 -6.946878 0.349688 0
M  V30 49 H -3.415239 -6.816680 -1.180980 0
M  V30 50 H -3.233904 -4.542529 1.009565 0
M  V30 51 H -4.200340 -4.540567 -0.555599 0
M  V30 END ATOM
M  V30 BEGIN BOND
M  V30 1 2 1 2
M  V30 2 1 2 3
M  V30 3 1 3 4
M  V30 4 2 4 5
M  V30 5 1 5 6
M  V30 6 1 6 7
M  V30 7 2 7 8
M  V30 8 1 8 9
M  V30 9 2 9 10
M  V30 10 1 10 11
M  V30 11 2 11 12
M  V30 12 1 12 13
M  V30 13 2 13 14
M  V30 14 1 14 15
M  V30 15 1 15 16
M  V30 16 1 16 17
M  V30 17 1 17 18
M  V30 18 1 18 19
M  V30 19 1 19 20
M  V30 20 1 20 21
M  V30 21 1 14 22
M  V30 22 2 22 23
M  V30 23 1 23 24
M  V30 24 1 2 25
M  V30 25 1 25 26
M  V30 26 1 26 27
M  V30 27 1 27 28
M  V30 28 1 8 4
M  V30 29 1 24 9
M  V30 30 1 28 26
M  V30 31 1 23 11
M  V30 32 1 21 16
M  V30 33 1 3 29
M  V30 34 1 5 30
M  V30 35 1 6 31
M  V30 36 1 12 32
M  V30 37 1 13 33
M  V30 38 1 15 34
M  V30 39 1 15 35
M  V30 40 1 17 36
M  V30 41 1 17 37
M  V30 42 1 18 38
M  V30 43 1 18 39
M  V30 44 1 20 40
M  V30 45 1 20 41
M  V30 46 1 21 42
M  V30 47 1 21 43
M  V30 48 1 22 44
M  V30 49 1 24 45
M  V30 50 1 25 46
M  V30 51 1 26 47
M  V30 52 1 27 48
M  V30 53 1 27 49
M  V30 54 1 28 50
M  V30 55 1 28 51
M  V30 END BOND
M  V30 END CTAB
M  END
>  <Dataset>  (62) 
ChEMBL_PKA

>  <Ligand_Instance>  (62) 
nan

>  <PDB_ID>  (62) 
nan

>  <Standardized_SMILES>  (62) 
O=C(Nc1c[nH]nc1-c1nc2ccc(CN3CCOCC3)cc2[nH]1)NC1CC1

>  <Name>  (62) 
AT-9283

>  <Pocket>  (62) 
nan

>  <ATP_Site>  (62) 
nan

>  <Peripheral>  (62) 
nan

>  <Num_H_Atoms_ProtBoundConf>  (62) 
nan

>  <Num_Resolved_Atoms>  (62) 
nan

>  <Num_Not_Resolved_Atoms>  (62) 
nan

>  <2D_Mol_H>  (62) 
<rdkit.Chem.rdchem.Mol object at 0x72a239110ba0>

>  <MW>  (62) 
381.44

>  <HBA>  (62) 
5

>  <HBD>  (62) 
4

>  <LogP>  (62) 
2.0691

>  <NRB>  (62) 
5

>  <TPSA>  (62) 
110.96

>  <Num_Heavy_Atoms>  (62) 
28

>  <Ro5>  (62) 
[True, True, True, True, True, True]

>  <Ro5_Fulfilled>  (62) 
True

>  <Ro3>  (62) 
[False, False, False, True]

>  <Ro3_Fulfilled>  (62) 
False

>  <Fsp3>  (62) 
0.421053

>  <Fsp3_0.42>  (62) 
True

>  <Fsp3_0.45>  (62) 
False

>  <Stereogenic_Carbons>  (62) 
0

>  <C_Atoms>  (62) 
19

>  <FCStereo>  (62) 
0.0

>  <SPS>  (62) 
496

>  <nSPS>  (62) 
17.714286

>  <PBF>  (62) 
0.954792

>  <PBF_0.6>  (62) 
True

>  <nPBF>  (62) 
0.0341

>  <nPBF_0.016>  (62) 
True

>  <PMI1>  (62) 
2175.552875

>  <PMI2>  (62) 
5691.16961

>  <PMI3>  (62) 
7310.558079

>  <NPR1>  (62) 
0.297591

>  <NPR2>  (62) 
0.778486

>  <Sum_NPR>  (62) 
1.076077

>  <Sum_NPR_1.07>  (62) 
True

>  <Sum_NPR_1.2>  (62) 
False

>  <MaxAbsEStateIndex>  (62) 
12.042296

>  <MaxEStateIndex>  (62) 
12.042296

>  <MinAbsEStateIndex>  (62) 
0.213835

>  <MinEStateIndex>  (62) 
-0.213835

>  <qed>  (62) 
0.540684

>  <MolWt>  (62) 
381.44

>  <HeavyAtomMolWt>  (62) 
358.256

>  <ExactMolWt>  (62) 
381.191323

>  <NumValenceElectrons>  (62) 
146

>  <NumRadicalElectrons>  (62) 
0

>  <MaxPartialCharge>  (62) 
0.319061

>  <MinPartialCharge>  (62) 
-0.378792

>  <MaxAbsPartialCharge>  (62) 
0.378792

>  <MinAbsPartialCharge>  (62) 
0.319061

>  <FpDensityMorgan1>  (62) 
1.285714

>  <FpDensityMorgan2>  (62) 
2.142857

>  <FpDensityMorgan3>  (62) 
2.964286

>  <BCUT2D_MWHI>  (62) 
16.477485

>  <BCUT2D_MWLOW>  (62) 
10.156401

>  <BCUT2D_CHGHI>  (62) 
2.238812

>  <BCUT2D_CHGLO>  (62) 
-2.260121

>  <BCUT2D_LOGPHI>  (62) 
2.262639

>  <BCUT2D_LOGPLOW>  (62) 
-2.351105

>  <BCUT2D_MRHI>  (62) 
5.932995

>  <BCUT2D_MRLOW>  (62) 
0.034186

>  <AvgIpc>  (62) 
3.222409

>  <BalabanJ>  (62) 
1.345663

>  <BertzCT>  (62) 
985.251837

>  <Chi0>  (62) 
18.924074

>  <Chi0n>  (62) 
15.494636

>  <Chi0v>  (62) 
15.494636

>  <Chi1>  (62) 
13.742316

>  <Chi1n>  (62) 
9.648694

>  <Chi1v>  (62) 
9.648694

>  <Chi2n>  (62) 
7.34569

>  <Chi2v>  (62) 
7.34569

>  <Chi3n>  (62) 
5.081609

>  <Chi3v>  (62) 
5.081609

>  <Chi4n>  (62) 
3.421972

>  <Chi4v>  (62) 
3.421972

>  <HallKierAlpha>  (62) 
-2.91

>  <Ipc>  (62) 
5368998.12176

>  <Kappa1>  (62) 
17.206273

>  <Kappa2>  (62) 
7.249813

>  <Kappa3>  (62) 
3.712529

>  <LabuteASA>  (62) 
161.403674

>  <PEOE_VSA1>  (62) 
20.354419

>  <PEOE_VSA10>  (62) 
0.0

>  <PEOE_VSA11>  (62) 
11.518332

>  <PEOE_VSA12>  (62) 
0.0

>  <PEOE_VSA13>  (62) 
0.0

>  <PEOE_VSA14>  (62) 
6.031115

>  <PEOE_VSA2>  (62) 
9.998592

>  <PEOE_VSA3>  (62) 
9.778516

>  <PEOE_VSA4>  (62) 
5.098682

>  <PEOE_VSA5>  (62) 
0.0

>  <PEOE_VSA6>  (62) 
6.066367

>  <PEOE_VSA7>  (62) 
30.537829

>  <PEOE_VSA8>  (62) 
31.872954

>  <PEOE_VSA9>  (62) 
29.934552

>  <SMR_VSA1>  (62) 
9.5314

>  <SMR_VSA10>  (62) 
22.751902

>  <SMR_VSA2>  (62) 
0.0

>  <SMR_VSA3>  (62) 
30.382019

>  <SMR_VSA4>  (62) 
0.0

>  <SMR_VSA5>  (62) 
25.42824

>  <SMR_VSA6>  (62) 
31.620065

>  <SMR_VSA7>  (62) 
29.959396

>  <SMR_VSA8>  (62) 
0.0

>  <SMR_VSA9>  (62) 
11.518332

>  <SlogP_VSA1>  (62) 
10.633577

>  <SlogP_VSA10>  (62) 
10.481923

>  <SlogP_VSA11>  (62) 
0.0

>  <SlogP_VSA12>  (62) 
0.0

>  <SlogP_VSA2>  (62) 
63.441462

>  <SlogP_VSA3>  (62) 
11.281619

>  <SlogP_VSA4>  (62) 
0.0

>  <SlogP_VSA5>  (62) 
18.405095

>  <SlogP_VSA6>  (62) 
24.395945

>  <SlogP_VSA7>  (62) 
0.0

>  <SlogP_VSA8>  (62) 
22.551734

>  <SlogP_VSA9>  (62) 
0.0

>  <EState_VSA1>  (62) 
0.0

>  <EState_VSA10>  (62) 
4.794537

>  <EState_VSA11>  (62) 
0.0

>  <EState_VSA2>  (62) 
6.031115

>  <EState_VSA3>  (62) 
23.24756

>  <EState_VSA4>  (62) 
56.723078

>  <EState_VSA5>  (62) 
5.563451

>  <EState_VSA6>  (62) 
6.196844

>  <EState_VSA7>  (62) 
6.066367

>  <EState_VSA8>  (62) 
47.831542

>  <EState_VSA9>  (62) 
4.736863

>  <VSA_EState1>  (62) 
5.413353

>  <VSA_EState10>  (62) 
0.0

>  <VSA_EState2>  (62) 
22.402207

>  <VSA_EState3>  (62) 
12.827926

>  <VSA_EState4>  (62) 
4.255241

>  <VSA_EState5>  (62) 
0.626384

>  <VSA_EState6>  (62) 
6.334521

>  <VSA_EState7>  (62) 
3.752878

>  <VSA_EState8>  (62) 
4.387489

>  <VSA_EState9>  (62) 
0.0

>  <FractionCSP3>  (62) 
0.421053

>  <HeavyAtomCount>  (62) 
28

>  <NHOHCount>  (62) 
4

>  <NOCount>  (62) 
9

>  <NumAliphaticCarbocycles>  (62) 
1

>  <NumAliphaticHeterocycles>  (62) 
1

>  <NumAliphaticRings>  (62) 
2

>  <NumAromaticCarbocycles>  (62) 
1

>  <NumAromaticHeterocycles>  (62) 
2

>  <NumAromaticRings>  (62) 
3

>  <NumHAcceptors>  (62) 
5

>  <NumHDonors>  (62) 
4

>  <NumHeteroatoms>  (62) 
9

>  <NumRotatableBonds>  (62) 
5

>  <NumSaturatedCarbocycles>  (62) 
1

>  <NumSaturatedHeterocycles>  (62) 
1

>  <NumSaturatedRings>  (62) 
2

>  <RingCount>  (62) 
5

>  <MolLogP>  (62) 
2.0691

>  <MolMR>  (62) 
104.9478

>  <fr_Al_COO>  (62) 
0

>  <fr_Al_OH>  (62) 
0

>  <fr_Al_OH_noTert>  (62) 
0

>  <fr_ArN>  (62) 
0

>  <fr_Ar_COO>  (62) 
0

>  <fr_Ar_N>  (62) 
4

>  <fr_Ar_NH>  (62) 
2

>  <fr_Ar_OH>  (62) 
0

>  <fr_COO>  (62) 
0

>  <fr_COO2>  (62) 
0

>  <fr_C_O>  (62) 
1

>  <fr_C_O_noCOO>  (62) 
1

>  <fr_C_S>  (62) 
0

>  <fr_HOCCN>  (62) 
0

>  <fr_Imine>  (62) 
0

>  <fr_NH0>  (62) 
3

>  <fr_NH1>  (62) 
4

>  <fr_NH2>  (62) 
0

>  <fr_N_O>  (62) 
0

>  <fr_Ndealkylation1>  (62) 
0

>  <fr_Ndealkylation2>  (62) 
0

>  <fr_Nhpyrrole>  (62) 
2

>  <fr_SH>  (62) 
0

>  <fr_aldehyde>  (62) 
0

>  <fr_alkyl_carbamate>  (62) 
0

>  <fr_alkyl_halide>  (62) 
0

>  <fr_allylic_oxid>  (62) 
0

>  <fr_amide>  (62) 
2

>  <fr_amidine>  (62) 
0

>  <fr_aniline>  (62) 
1

>  <fr_aryl_methyl>  (62) 
0

>  <fr_azide>  (62) 
0

>  <fr_azo>  (62) 
0

>  <fr_barbitur>  (62) 
0

>  <fr_benzene>  (62) 
1

>  <fr_benzodiazepine>  (62) 
0

>  <fr_bicyclic>  (62) 
1

>  <fr_diazo>  (62) 
0

>  <fr_dihydropyridine>  (62) 
0

>  <fr_epoxide>  (62) 
0

>  <fr_ester>  (62) 
0

>  <fr_ether>  (62) 
1

>  <fr_furan>  (62) 
0

>  <fr_guanido>  (62) 
0

>  <fr_halogen>  (62) 
0

>  <fr_hdrzine>  (62) 
0

>  <fr_hdrzone>  (62) 
0

>  <fr_imidazole>  (62) 
1

>  <fr_imide>  (62) 
0

>  <fr_isocyan>  (62) 
0

>  <fr_isothiocyan>  (62) 
0

>  <fr_ketone>  (62) 
0

>  <fr_ketone_Topliss>  (62) 
0

>  <fr_lactam>  (62) 
0

>  <fr_lactone>  (62) 
0

>  <fr_methoxy>  (62) 
0

>  <fr_morpholine>  (62) 
1

>  <fr_nitrile>  (62) 
0

>  <fr_nitro>  (62) 
0

>  <fr_nitro_arom>  (62) 
0

>  <fr_nitro_arom_nonortho>  (62) 
0

>  <fr_nitroso>  (62) 
0

>  <fr_oxazole>  (62) 
0

>  <fr_oxime>  (62) 
0

>  <fr_para_hydroxylation>  (62) 
0

>  <fr_phenol>  (62) 
0

>  <fr_phenol_noOrthoHbond>  (62) 
0

>  <fr_phos_acid>  (62) 
0

>  <fr_phos_ester>  (62) 
0

>  <fr_piperdine>  (62) 
0

>  <fr_piperzine>  (62) 
0

>  <fr_priamide>  (62) 
0

>  <fr_prisulfonamd>  (62) 
0

>  <fr_pyridine>  (62) 
0

>  <fr_quatN>  (62) 
0

>  <fr_sulfide>  (62) 
0

>  <fr_sulfonamd>  (62) 
0

>  <fr_sulfone>  (62) 
0

>  <fr_term_acetylene>  (62) 
0

>  <fr_tetrazole>  (62) 
0

>  <fr_thiazole>  (62) 
0

>  <fr_thiocyan>  (62) 
0

>  <fr_thiophene>  (62) 
0

>  <fr_unbrch_alkane>  (62) 
0

>  <fr_urea>  (62) 
1

>  <NP_Likeness>  (62) 
-2.095891

$$$$
CHEMBL51758
     RDKit          3D

  0  0  0  0  0  0  0  0  0  0999 V3000
M  V30 BEGIN CTAB
M  V30 COUNTS 44 48 0 0 0
M  V30 BEGIN ATOM
M  V30 1 C -1.349644 -2.523790 4.090781 0
M  V30 2 N -1.170161 -2.379834 2.669625 0
M  V30 3 C -1.179028 -1.230730 1.984776 0
M  V30 4 C -0.983070 -1.398389 0.637841 0
M  V30 5 C -0.838960 -0.600009 -0.567571 0
M  V30 6 C -0.059321 0.422894 -0.969801 0
M  V30 7 C 1.005451 1.172112 -0.311614 0
M  V30 8 C 2.269890 1.213971 -0.919236 0
M  V30 9 N 3.125899 1.950537 -0.194016 0
M  V30 10 C 4.535322 2.219377 -0.505288 0
M  V30 11 C 2.472138 2.407640 0.885937 0
M  V30 12 C 2.790767 3.206668 1.977743 0
M  V30 13 C 1.815313 3.491216 2.929735 0
M  V30 14 C 0.520575 2.998725 2.824136 0
M  V30 15 Cl -0.635455 3.412435 4.069667 0
M  V30 16 C 0.190992 2.197055 1.735071 0
M  V30 17 C 1.178704 1.941830 0.827117 0
M  V30 18 C -0.458187 0.792951 -2.346415 0
M  V30 19 O 0.047586 1.717807 -3.070991 0
M  V30 20 N -1.511547 -0.025800 -2.797867 0
M  V30 21 C -1.751196 -0.888055 -1.702690 0
M  V30 22 O -2.675974 -1.766699 -1.811743 0
M  V30 23 C -0.848853 -2.794604 0.554913 0
M  V30 24 C -0.619318 -3.686276 -0.483617 0
M  V30 25 C -0.509352 -5.050131 -0.338102 0
M  V30 26 C -0.631566 -5.583534 0.912999 0
M  V30 27 C -0.859164 -4.739538 1.975318 0
M  V30 28 C -0.965056 -3.377663 1.801081 0
M  V30 29 H -0.410295 -2.825639 4.576457 0
M  V30 30 H -1.774167 -1.609777 4.566423 0
M  V30 31 H -2.089163 -3.357519 4.274734 0
M  V30 32 H -1.326829 -0.262716 2.418162 0
M  V30 33 H 2.601774 0.743978 -1.848622 0
M  V30 34 H 5.074618 2.562725 0.377727 0
M  V30 35 H 4.533872 3.008332 -1.291179 0
M  V30 36 H 5.018752 1.331979 -0.973174 0
M  V30 37 H 3.810049 3.564435 2.014603 0
M  V30 38 H 2.158440 4.116877 3.737427 0
M  V30 39 H -0.810455 1.836133 1.650148 0
M  V30 40 H -1.976812 0.025111 -3.727596 0
M  V30 41 H -0.503556 -3.328344 -1.496634 0
M  V30 42 H -0.327654 -5.699342 -1.198837 0
M  V30 43 H -0.539124 -6.670044 0.992302 0
M  V30 44 H -0.948350 -5.207175 2.947857 0
M  V30 END ATOM
M  V30 BEGIN BOND
M  V30 1 1 1 2
M  V30 2 1 2 3
M  V30 3 2 3 4
M  V30 4 1 4 5
M  V30 5 2 5 6
M  V30 6 1 6 7
M  V30 7 2 7 8
M  V30 8 1 8 9
M  V30 9 1 9 10
M  V30 10 1 9 11
M  V30 11 2 11 12
M  V30 12 1 12 13
M  V30 13 2 13 14
M  V30 14 1 14 15
M  V30 15 1 14 16
M  V30 16 2 16 17
M  V30 17 1 6 18
M  V30 18 2 18 19
M  V30 19 1 18 20
M  V30 20 1 20 21
M  V30 21 2 21 22
M  V30 22 1 4 23
M  V30 23 2 23 24
M  V30 24 1 24 25
M  V30 25 2 25 26
M  V30 26 1 26 27
M  V30 27 2 27 28
M  V30 28 1 28 2
M  V30 29 1 21 5
M  V30 30 1 28 23
M  V30 31 1 17 7
M  V30 32 1 17 11
M  V30 33 1 1 29
M  V30 34 1 1 30
M  V30 35 1 1 31
M  V30 36 1 3 32
M  V30 37 1 8 33
M  V30 38 1 10 34
M  V30 39 1 10 35
M  V30 40 1 10 36
M  V30 41 1 12 37
M  V30 42 1 13 38
M  V30 43 1 16 39
M  V30 44 1 20 40
M  V30 45 1 24 41
M  V30 46 1 25 42
M  V30 47 1 26 43
M  V30 48 1 27 44
M  V30 END BOND
M  V30 END CTAB
M  END
>  <Dataset>  (63) 
ChEMBL_PKA

>  <Ligand_Instance>  (63) 
nan

>  <PDB_ID>  (63) 
nan

>  <Standardized_SMILES>  (63) 
Cn1cc(C2=C(c3cn(C)c4ccc(Cl)cc34)C(=O)NC2=O)c2ccccc21

>  <Name>  (63) 
nan

>  <Pocket>  (63) 
nan

>  <ATP_Site>  (63) 
nan

>  <Peripheral>  (63) 
nan

>  <Num_H_Atoms_ProtBoundConf>  (63) 
nan

>  <Num_Resolved_Atoms>  (63) 
nan

>  <Num_Not_Resolved_Atoms>  (63) 
nan

>  <2D_Mol_H>  (63) 
<rdkit.Chem.rdchem.Mol object at 0x72a239110c80>

>  <MW>  (63) 
389.842

>  <HBA>  (63) 
4

>  <HBD>  (63) 
1

>  <LogP>  (63) 
3.8906

>  <NRB>  (63) 
4

>  <TPSA>  (63) 
56.03

>  <Num_Heavy_Atoms>  (63) 
28

>  <Ro5>  (63) 
[True, True, True, True, True, True]

>  <Ro5_Fulfilled>  (63) 
True

>  <Ro3>  (63) 
[False, False, True, False]

>  <Ro3_Fulfilled>  (63) 
False

>  <Fsp3>  (63) 
0.090909

>  <Fsp3_0.42>  (63) 
False

>  <Fsp3_0.45>  (63) 
False

>  <Stereogenic_Carbons>  (63) 
0

>  <C_Atoms>  (63) 
22

>  <FCStereo>  (63) 
0.0

>  <SPS>  (63) 
407

>  <nSPS>  (63) 
14.535714

>  <PBF>  (63) 
1.221496

>  <PBF_0.6>  (63) 
True

>  <nPBF>  (63) 
0.043625

>  <nPBF_0.016>  (63) 
True

>  <PMI1>  (63) 
2371.085826

>  <PMI2>  (63) 
4112.301566

>  <PMI3>  (63) 
5147.755527

>  <NPR1>  (63) 
0.460606

>  <NPR2>  (63) 
0.798853

>  <Sum_NPR>  (63) 
1.259459

>  <Sum_NPR_1.07>  (63) 
True

>  <Sum_NPR_1.2>  (63) 
True

>  <MaxAbsEStateIndex>  (63) 
12.810773

>  <MaxEStateIndex>  (63) 
12.810773

>  <MinAbsEStateIndex>  (63) 
0.379274

>  <MinEStateIndex>  (63) 
-0.38851

>  <qed>  (63) 
0.528652

>  <MolWt>  (63) 
389.842

>  <HeavyAtomMolWt>  (63) 
373.714

>  <ExactMolWt>  (63) 
389.093104

>  <NumValenceElectrons>  (63) 
138

>  <NumRadicalElectrons>  (63) 
0

>  <MaxPartialCharge>  (63) 
0.259139

>  <MinPartialCharge>  (63) 
-0.349902

>  <MaxAbsPartialCharge>  (63) 
0.349902

>  <MinAbsPartialCharge>  (63) 
0.259139

>  <FpDensityMorgan1>  (63) 
0.785714

>  <FpDensityMorgan2>  (63) 
1.357143

>  <FpDensityMorgan3>  (63) 
2.035714

>  <BCUT2D_MWHI>  (63) 
35.495692

>  <BCUT2D_MWLOW>  (63) 
9.954579

>  <BCUT2D_CHGHI>  (63) 
2.346745

>  <BCUT2D_CHGLO>  (63) 
-2.029815

>  <BCUT2D_LOGPHI>  (63) 
2.38563

>  <BCUT2D_LOGPLOW>  (63) 
-2.223041

>  <BCUT2D_MRHI>  (63) 
6.505083

>  <BCUT2D_MRLOW>  (63) 
-0.122337

>  <AvgIpc>  (63) 
3.263712

>  <BalabanJ>  (63) 
1.882751

>  <BertzCT>  (63) 
1357.132845

>  <Chi0>  (63) 
19.576621

>  <Chi0n>  (63) 
15.285041

>  <Chi0v>  (63) 
16.04097

>  <Chi1>  (63) 
13.452397

>  <Chi1n>  (63) 
8.848004

>  <Chi1v>  (63) 
9.225968

>  <Chi2n>  (63) 
7.019228

>  <Chi2v>  (63) 
7.455664

>  <Chi3n>  (63) 
5.318327

>  <Chi3v>  (63) 
5.553424

>  <Chi4n>  (63) 
4.073561

>  <Chi4v>  (63) 
4.245664

>  <HallKierAlpha>  (63) 
-3.31

>  <Ipc>  (63) 
3973255.909165

>  <Kappa1>  (63) 
16.834108

>  <Kappa2>  (63) 
5.842406

>  <Kappa3>  (63) 
2.262385

>  <LabuteASA>  (63) 
165.360481

>  <PEOE_VSA1>  (63) 
9.134199

>  <PEOE_VSA10>  (63) 
0.0

>  <PEOE_VSA11>  (63) 
0.0

>  <PEOE_VSA12>  (63) 
0.0

>  <PEOE_VSA13>  (63) 
11.814359

>  <PEOE_VSA14>  (63) 
0.0

>  <PEOE_VSA2>  (63) 
14.905863

>  <PEOE_VSA3>  (63) 
0.0

>  <PEOE_VSA4>  (63) 
0.0

>  <PEOE_VSA5>  (63) 
0.0

>  <PEOE_VSA6>  (63) 
29.800041

>  <PEOE_VSA7>  (63) 
24.265468

>  <PEOE_VSA8>  (63) 
64.444417

>  <PEOE_VSA9>  (63) 
11.146209

>  <SMR_VSA1>  (63) 
9.589074

>  <SMR_VSA10>  (63) 
56.367358

>  <SMR_VSA2>  (63) 
0.0

>  <SMR_VSA3>  (63) 
14.450988

>  <SMR_VSA4>  (63) 
14.095344

>  <SMR_VSA5>  (63) 
0.0

>  <SMR_VSA6>  (63) 
0.0

>  <SMR_VSA7>  (63) 
71.007793

>  <SMR_VSA8>  (63) 
0.0

>  <SMR_VSA9>  (63) 
0.0

>  <SlogP_VSA1>  (63) 
5.316789

>  <SlogP_VSA10>  (63) 
0.0

>  <SlogP_VSA11>  (63) 
0.0

>  <SlogP_VSA12>  (63) 
11.60094

>  <SlogP_VSA2>  (63) 
20.948559

>  <SlogP_VSA3>  (63) 
23.684418

>  <SlogP_VSA4>  (63) 
0.0

>  <SlogP_VSA5>  (63) 
11.126903

>  <SlogP_VSA6>  (63) 
54.858257

>  <SlogP_VSA7>  (63) 
5.022633

>  <SlogP_VSA8>  (63) 
32.952059

>  <SlogP_VSA9>  (63) 
0.0

>  <EState_VSA1>  (63) 
0.0

>  <EState_VSA10>  (63) 
9.589074

>  <EState_VSA11>  (63) 
0.0

>  <EState_VSA2>  (63) 
11.814359

>  <EState_VSA3>  (63) 
21.732294

>  <EState_VSA4>  (63) 
27.369301

>  <EState_VSA5>  (63) 
0.0

>  <EState_VSA6>  (63) 
0.0

>  <EState_VSA7>  (63) 
78.0878

>  <EState_VSA8>  (63) 
5.316789

>  <EState_VSA9>  (63) 
11.60094

>  <VSA_EState1>  (63) 
3.898932

>  <VSA_EState10>  (63) 
6.210347

>  <VSA_EState2>  (63) 
25.610478

>  <VSA_EState3>  (63) 
4.825051

>  <VSA_EState4>  (63) 
4.16578

>  <VSA_EState5>  (63) 
-0.767783

>  <VSA_EState6>  (63) 
13.38961

>  <VSA_EState7>  (63) 
3.773738

>  <VSA_EState8>  (63) 
0.0

>  <VSA_EState9>  (63) 
3.838291

>  <FractionCSP3>  (63) 
0.090909

>  <HeavyAtomCount>  (63) 
28

>  <NHOHCount>  (63) 
1

>  <NOCount>  (63) 
5

>  <NumAliphaticCarbocycles>  (63) 
0

>  <NumAliphaticHeterocycles>  (63) 
1

>  <NumAliphaticRings>  (63) 
1

>  <NumAromaticCarbocycles>  (63) 
2

>  <NumAromaticHeterocycles>  (63) 
2

>  <NumAromaticRings>  (63) 
4

>  <NumHAcceptors>  (63) 
4

>  <NumHDonors>  (63) 
1

>  <NumHeteroatoms>  (63) 
6

>  <NumRotatableBonds>  (63) 
2

>  <NumSaturatedCarbocycles>  (63) 
0

>  <NumSaturatedHeterocycles>  (63) 
0

>  <NumSaturatedRings>  (63) 
0

>  <RingCount>  (63) 
5

>  <MolLogP>  (63) 
3.8906

>  <MolMR>  (63) 
110.8117

>  <fr_Al_COO>  (63) 
0

>  <fr_Al_OH>  (63) 
0

>  <fr_Al_OH_noTert>  (63) 
0

>  <fr_ArN>  (63) 
0

>  <fr_Ar_COO>  (63) 
0

>  <fr_Ar_N>  (63) 
2

>  <fr_Ar_NH>  (63) 
0

>  <fr_Ar_OH>  (63) 
0

>  <fr_COO>  (63) 
0

>  <fr_COO2>  (63) 
0

>  <fr_C_O>  (63) 
2

>  <fr_C_O_noCOO>  (63) 
2

>  <fr_C_S>  (63) 
0

>  <fr_HOCCN>  (63) 
0

>  <fr_Imine>  (63) 
0

>  <fr_NH0>  (63) 
2

>  <fr_NH1>  (63) 
1

>  <fr_NH2>  (63) 
0

>  <fr_N_O>  (63) 
0

>  <fr_Ndealkylation1>  (63) 
0

>  <fr_Ndealkylation2>  (63) 
0

>  <fr_Nhpyrrole>  (63) 
0

>  <fr_SH>  (63) 
0

>  <fr_aldehyde>  (63) 
0

>  <fr_alkyl_carbamate>  (63) 
0

>  <fr_alkyl_halide>  (63) 
0

>  <fr_allylic_oxid>  (63) 
0

>  <fr_amide>  (63) 
2

>  <fr_amidine>  (63) 
0

>  <fr_aniline>  (63) 
0

>  <fr_aryl_methyl>  (63) 
2

>  <fr_azide>  (63) 
0

>  <fr_azo>  (63) 
0

>  <fr_barbitur>  (63) 
0

>  <fr_benzene>  (63) 
2

>  <fr_benzodiazepine>  (63) 
0

>  <fr_bicyclic>  (63) 
2

>  <fr_diazo>  (63) 
0

>  <fr_dihydropyridine>  (63) 
0

>  <fr_epoxide>  (63) 
0

>  <fr_ester>  (63) 
0

>  <fr_ether>  (63) 
0

>  <fr_furan>  (63) 
0

>  <fr_guanido>  (63) 
0

>  <fr_halogen>  (63) 
1

>  <fr_hdrzine>  (63) 
0

>  <fr_hdrzone>  (63) 
0

>  <fr_imidazole>  (63) 
0

>  <fr_imide>  (63) 
1

>  <fr_isocyan>  (63) 
0

>  <fr_isothiocyan>  (63) 
0

>  <fr_ketone>  (63) 
0

>  <fr_ketone_Topliss>  (63) 
0

>  <fr_lactam>  (63) 
0

>  <fr_lactone>  (63) 
0

>  <fr_methoxy>  (63) 
0

>  <fr_morpholine>  (63) 
0

>  <fr_nitrile>  (63) 
0

>  <fr_nitro>  (63) 
0

>  <fr_nitro_arom>  (63) 
0

>  <fr_nitro_arom_nonortho>  (63) 
0

>  <fr_nitroso>  (63) 
0

>  <fr_oxazole>  (63) 
0

>  <fr_oxime>  (63) 
0

>  <fr_para_hydroxylation>  (63) 
1

>  <fr_phenol>  (63) 
0

>  <fr_phenol_noOrthoHbond>  (63) 
0

>  <fr_phos_acid>  (63) 
0

>  <fr_phos_ester>  (63) 
0

>  <fr_piperdine>  (63) 
0

>  <fr_piperzine>  (63) 
0

>  <fr_priamide>  (63) 
0

>  <fr_prisulfonamd>  (63) 
0

>  <fr_pyridine>  (63) 
0

>  <fr_quatN>  (63) 
0

>  <fr_sulfide>  (63) 
0

>  <fr_sulfonamd>  (63) 
0

>  <fr_sulfone>  (63) 
0

>  <fr_term_acetylene>  (63) 
0

>  <fr_tetrazole>  (63) 
0

>  <fr_thiazole>  (63) 
0

>  <fr_thiocyan>  (63) 
0

>  <fr_thiophene>  (63) 
0

>  <fr_unbrch_alkane>  (63) 
0

>  <fr_urea>  (63) 
0

>  <NP_Likeness>  (63) 
-0.469134

$$$$
CHEMBL52128
     RDKit          3D

  0  0  0  0  0  0  0  0  0  0999 V3000
M  V30 BEGIN CTAB
M  V30 COUNTS 46 50 0 0 0
M  V30 BEGIN ATOM
M  V30 1 C 1.279794 -3.517325 2.778304 0
M  V30 2 N 0.179937 -3.126094 1.929881 0
M  V30 3 C -0.325436 -1.872582 1.791848 0
M  V30 4 C -1.402157 -1.848508 0.893153 0
M  V30 5 C -2.054086 -0.588516 0.638211 0
M  V30 6 C -1.382145 0.514607 0.391617 0
M  V30 7 C 0.024230 0.870184 0.285259 0
M  V30 8 C 0.861238 0.133410 -0.528362 0
M  V30 9 N 2.131916 0.592116 -0.514222 0
M  V30 10 C 3.337126 0.154890 -1.207646 0
M  V30 11 C 2.067247 1.651657 0.342382 0
M  V30 12 C 3.054105 2.523236 0.767316 0
M  V30 13 C 2.676213 3.513375 1.663318 0
M  V30 14 N 3.726024 4.376077 2.060869 0
M  V30 15 C 1.409856 3.700339 2.162608 0
M  V30 16 C 0.449650 2.821243 1.722938 0
M  V30 17 C 0.819880 1.842674 0.837508 0
M  V30 18 C -2.335525 1.617973 0.175171 0
M  V30 19 O -2.181253 2.857933 -0.090951 0
M  V30 20 N -3.676963 1.100211 0.310700 0
M  V30 21 C -3.481648 -0.289102 0.601556 0
M  V30 22 O -4.452571 -1.099848 0.791764 0
M  V30 23 C -1.501249 -3.164175 0.509315 0
M  V30 24 C -2.444708 -3.637829 -0.394060 0
M  V30 25 C -2.377725 -5.008942 -0.654796 0
M  V30 26 C -1.434975 -5.842229 -0.056570 0
M  V30 27 C -0.526699 -5.301815 0.831886 0
M  V30 28 C -0.552446 -3.947630 1.125751 0
M  V30 29 H 0.836636 -3.715916 3.779521 0
M  V30 30 H 1.687544 -4.473485 2.411128 0
M  V30 31 H 2.102904 -2.785736 2.820313 0
M  V30 32 H 0.112121 -1.051861 2.344876 0
M  V30 33 H 0.653597 -0.746364 -1.161833 0
M  V30 34 H 3.920688 -0.599954 -0.642728 0
M  V30 35 H 3.982787 1.055037 -1.434128 0
M  V30 36 H 3.104508 -0.238177 -2.240625 0
M  V30 37 H 4.056227 2.396100 0.390860 0
M  V30 38 H 3.442711 5.384302 2.121712 0
M  V30 39 H 4.522651 4.926706 2.348096 0
M  V30 40 H 1.168981 4.493019 2.864677 0
M  V30 41 H -0.563961 2.925362 2.091010 0
M  V30 42 H -4.580559 1.645212 0.215032 0
M  V30 43 H -3.186455 -3.006640 -0.873660 0
M  V30 44 H -3.054788 -5.484469 -1.338165 0
M  V30 45 H -1.421347 -6.905316 -0.294571 0
M  V30 46 H 0.216420 -5.889621 1.321637 0
M  V30 END ATOM
M  V30 BEGIN BOND
M  V30 1 1 1 2
M  V30 2 1 2 3
M  V30 3 2 3 4
M  V30 4 1 4 5
M  V30 5 2 5 6
M  V30 6 1 6 7
M  V30 7 2 7 8
M  V30 8 1 8 9
M  V30 9 1 9 10
M  V30 10 1 9 11
M  V30 11 2 11 12
M  V30 12 1 12 13
M  V30 13 1 13 14
M  V30 14 2 13 15
M  V30 15 1 15 16
M  V30 16 2 16 17
M  V30 17 1 6 18
M  V30 18 2 18 19
M  V30 19 1 18 20
M  V30 20 1 20 21
M  V30 21 2 21 22
M  V30 22 1 4 23
M  V30 23 2 23 24
M  V30 24 1 24 25
M  V30 25 2 25 26
M  V30 26 1 26 27
M  V30 27 2 27 28
M  V30 28 1 28 2
M  V30 29 1 21 5
M  V30 30 1 28 23
M  V30 31 1 17 7
M  V30 32 1 17 11
M  V30 33 1 1 29
M  V30 34 1 1 30
M  V30 35 1 1 31
M  V30 36 1 3 32
M  V30 37 1 8 33
M  V30 38 1 10 34
M  V30 39 1 10 35
M  V30 40 1 10 36
M  V30 41 1 12 37
M  V30 42 1 14 38
M  V30 43 1 14 39
M  V30 44 1 15 40
M  V30 45 1 16 41
M  V30 46 1 20 42
M  V30 47 1 24 43
M  V30 48 1 25 44
M  V30 49 1 26 45
M  V30 50 1 27 46
M  V30 END BOND
M  V30 END CTAB
M  END
>  <Dataset>  (64) 
ChEMBL_PKA

>  <Ligand_Instance>  (64) 
nan

>  <PDB_ID>  (64) 
nan

>  <Standardized_SMILES>  (64) 
Cn1cc(C2=C(c3cn(C)c4cc(N)ccc34)C(=O)NC2=O)c2ccccc21

>  <Name>  (64) 
nan

>  <Pocket>  (64) 
nan

>  <ATP_Site>  (64) 
nan

>  <Peripheral>  (64) 
nan

>  <Num_H_Atoms_ProtBoundConf>  (64) 
nan

>  <Num_Resolved_Atoms>  (64) 
nan

>  <Num_Not_Resolved_Atoms>  (64) 
nan

>  <2D_Mol_H>  (64) 
<rdkit.Chem.rdchem.Mol object at 0x72a239110d60>

>  <MW>  (64) 
370.412

>  <HBA>  (64) 
5

>  <HBD>  (64) 
2

>  <LogP>  (64) 
2.8194

>  <NRB>  (64) 
5

>  <TPSA>  (64) 
82.05

>  <Num_Heavy_Atoms>  (64) 
28

>  <Ro5>  (64) 
[True, True, True, True, True, True]

>  <Ro5_Fulfilled>  (64) 
True

>  <Ro3>  (64) 
[False, False, True, True]

>  <Ro3_Fulfilled>  (64) 
False

>  <Fsp3>  (64) 
0.090909

>  <Fsp3_0.42>  (64) 
False

>  <Fsp3_0.45>  (64) 
False

>  <Stereogenic_Carbons>  (64) 
0

>  <C_Atoms>  (64) 
22

>  <FCStereo>  (64) 
0.0

>  <SPS>  (64) 
406

>  <nSPS>  (64) 
14.5

>  <PBF>  (64) 
1.043215

>  <PBF_0.6>  (64) 
True

>  <nPBF>  (64) 
0.037258

>  <nPBF_0.016>  (64) 
True

>  <PMI1>  (64) 
1737.160997

>  <PMI2>  (64) 
4034.965241

>  <PMI3>  (64) 
5079.259061

>  <NPR1>  (64) 
0.342011

>  <NPR2>  (64) 
0.7944

>  <Sum_NPR>  (64) 
1.136411

>  <Sum_NPR_1.07>  (64) 
True

>  <Sum_NPR_1.2>  (64) 
False

>  <MaxAbsEStateIndex>  (64) 
12.801077

>  <MaxEStateIndex>  (64) 
12.801077

>  <MinAbsEStateIndex>  (64) 
0.37148

>  <MinEStateIndex>  (64) 
-0.377538

>  <qed>  (64) 
0.420465

>  <MolWt>  (64) 
370.412

>  <HeavyAtomMolWt>  (64) 
352.268

>  <ExactMolWt>  (64) 
370.142976

>  <NumValenceElectrons>  (64) 
138

>  <NumRadicalElectrons>  (64) 
0

>  <MaxPartialCharge>  (64) 
0.259139

>  <MinPartialCharge>  (64) 
-0.398666

>  <MaxAbsPartialCharge>  (64) 
0.398666

>  <MinAbsPartialCharge>  (64) 
0.259139

>  <FpDensityMorgan1>  (64) 
0.785714

>  <FpDensityMorgan2>  (64) 
1.357143

>  <FpDensityMorgan3>  (64) 
2.035714

>  <BCUT2D_MWHI>  (64) 
16.172579

>  <BCUT2D_MWLOW>  (64) 
9.953778

>  <BCUT2D_CHGHI>  (64) 
2.346339

>  <BCUT2D_CHGLO>  (64) 
-2.029873

>  <BCUT2D_LOGPHI>  (64) 
2.383218

>  <BCUT2D_LOGPLOW>  (64) 
-2.223034

>  <BCUT2D_MRHI>  (64) 
6.504175

>  <BCUT2D_MRLOW>  (64) 
-0.122337

>  <AvgIpc>  (64) 
3.266486

>  <BalabanJ>  (64) 
1.869582

>  <BertzCT>  (64) 
1353.887732

>  <Chi0>  (64) 
19.576621

>  <Chi0n>  (64) 
15.484426

>  <Chi0v>  (64) 
15.484426

>  <Chi1>  (64) 
13.452397

>  <Chi1n>  (64) 
8.947696

>  <Chi1v>  (64) 
8.947696

>  <Chi2n>  (64) 
7.134343

>  <Chi2v>  (64) 
7.134343

>  <Chi3n>  (64) 
5.381516

>  <Chi3v>  (64) 
5.381516

>  <Chi4n>  (64) 
4.110244

>  <Chi4v>  (64) 
4.110244

>  <HallKierAlpha>  (64) 
-3.8

>  <Ipc>  (64) 
3984322.203932

>  <Kappa1>  (64) 
16.379216

>  <Kappa2>  (64) 
5.596507

>  <Kappa3>  (64) 
2.145142

>  <LabuteASA>  (64) 
160.397106

>  <PEOE_VSA1>  (64) 
14.867867

>  <PEOE_VSA10>  (64) 
0.0

>  <PEOE_VSA11>  (64) 
0.0

>  <PEOE_VSA12>  (64) 
0.0

>  <PEOE_VSA13>  (64) 
11.814359

>  <PEOE_VSA14>  (64) 
0.0

>  <PEOE_VSA2>  (64) 
14.905863

>  <PEOE_VSA3>  (64) 
0.0

>  <PEOE_VSA4>  (64) 
0.0

>  <PEOE_VSA5>  (64) 
0.0

>  <PEOE_VSA6>  (64) 
24.265468

>  <PEOE_VSA7>  (64) 
18.199101

>  <PEOE_VSA8>  (64) 
59.59247

>  <PEOE_VSA9>  (64) 
16.66291

>  <SMR_VSA1>  (64) 
9.589074

>  <SMR_VSA10>  (64) 
50.453805

>  <SMR_VSA2>  (64) 
0.0

>  <SMR_VSA3>  (64) 
14.450988

>  <SMR_VSA4>  (64) 
14.095344

>  <SMR_VSA5>  (64) 
0.0

>  <SMR_VSA6>  (64) 
5.733667

>  <SMR_VSA7>  (64) 
65.98516

>  <SMR_VSA8>  (64) 
0.0

>  <SMR_VSA9>  (64) 
0.0

>  <SlogP_VSA1>  (64) 
11.050456

>  <SlogP_VSA10>  (64) 
5.687386

>  <SlogP_VSA11>  (64) 
0.0

>  <SlogP_VSA12>  (64) 
0.0

>  <SlogP_VSA2>  (64) 
20.948559

>  <SlogP_VSA3>  (64) 
23.684418

>  <SlogP_VSA4>  (64) 
0.0

>  <SlogP_VSA5>  (64) 
11.126903

>  <SlogP_VSA6>  (64) 
54.858257

>  <SlogP_VSA7>  (64) 
0.0

>  <SlogP_VSA8>  (64) 
32.952059

>  <SlogP_VSA9>  (64) 
0.0

>  <EState_VSA1>  (64) 
0.0

>  <EState_VSA10>  (64) 
9.589074

>  <EState_VSA11>  (64) 
0.0

>  <EState_VSA2>  (64) 
11.814359

>  <EState_VSA3>  (64) 
16.833595

>  <EState_VSA4>  (64) 
32.932753

>  <EState_VSA5>  (64) 
0.0

>  <EState_VSA6>  (64) 
6.066367

>  <EState_VSA7>  (64) 
72.021433

>  <EState_VSA8>  (64) 
5.316789

>  <EState_VSA9>  (64) 
5.733667

>  <VSA_EState1>  (64) 
3.888875

>  <VSA_EState10>  (64) 
0.0

>  <VSA_EState2>  (64) 
25.594024

>  <VSA_EState3>  (64) 
4.298556

>  <VSA_EState4>  (64) 
10.773991

>  <VSA_EState5>  (64) 
-0.749018

>  <VSA_EState6>  (64) 
13.412239

>  <VSA_EState7>  (64) 
3.781795

>  <VSA_EState8>  (64) 
0.0

>  <VSA_EState9>  (64) 
3.832873

>  <FractionCSP3>  (64) 
0.090909

>  <HeavyAtomCount>  (64) 
28

>  <NHOHCount>  (64) 
3

>  <NOCount>  (64) 
6

>  <NumAliphaticCarbocycles>  (64) 
0

>  <NumAliphaticHeterocycles>  (64) 
1

>  <NumAliphaticRings>  (64) 
1

>  <NumAromaticCarbocycles>  (64) 
2

>  <NumAromaticHeterocycles>  (64) 
2

>  <NumAromaticRings>  (64) 
4

>  <NumHAcceptors>  (64) 
5

>  <NumHDonors>  (64) 
2

>  <NumHeteroatoms>  (64) 
6

>  <NumRotatableBonds>  (64) 
2

>  <NumSaturatedCarbocycles>  (64) 
0

>  <NumSaturatedHeterocycles>  (64) 
0

>  <NumSaturatedRings>  (64) 
0

>  <RingCount>  (64) 
5

>  <MolLogP>  (64) 
2.8194

>  <MolMR>  (64) 
110.2141

>  <fr_Al_COO>  (64) 
0

>  <fr_Al_OH>  (64) 
0

>  <fr_Al_OH_noTert>  (64) 
0

>  <fr_ArN>  (64) 
1

>  <fr_Ar_COO>  (64) 
0

>  <fr_Ar_N>  (64) 
2

>  <fr_Ar_NH>  (64) 
0

>  <fr_Ar_OH>  (64) 
0

>  <fr_COO>  (64) 
0

>  <fr_COO2>  (64) 
0

>  <fr_C_O>  (64) 
2

>  <fr_C_O_noCOO>  (64) 
2

>  <fr_C_S>  (64) 
0

>  <fr_HOCCN>  (64) 
0

>  <fr_Imine>  (64) 
0

>  <fr_NH0>  (64) 
2

>  <fr_NH1>  (64) 
1

>  <fr_NH2>  (64) 
1

>  <fr_N_O>  (64) 
0

>  <fr_Ndealkylation1>  (64) 
0

>  <fr_Ndealkylation2>  (64) 
0

>  <fr_Nhpyrrole>  (64) 
0

>  <fr_SH>  (64) 
0

>  <fr_aldehyde>  (64) 
0

>  <fr_alkyl_carbamate>  (64) 
0

>  <fr_alkyl_halide>  (64) 
0

>  <fr_allylic_oxid>  (64) 
0

>  <fr_amide>  (64) 
2

>  <fr_amidine>  (64) 
0

>  <fr_aniline>  (64) 
1

>  <fr_aryl_methyl>  (64) 
2

>  <fr_azide>  (64) 
0

>  <fr_azo>  (64) 
0

>  <fr_barbitur>  (64) 
0

>  <fr_benzene>  (64) 
2

>  <fr_benzodiazepine>  (64) 
0

>  <fr_bicyclic>  (64) 
2

>  <fr_diazo>  (64) 
0

>  <fr_dihydropyridine>  (64) 
0

>  <fr_epoxide>  (64) 
0

>  <fr_ester>  (64) 
0

>  <fr_ether>  (64) 
0

>  <fr_furan>  (64) 
0

>  <fr_guanido>  (64) 
0

>  <fr_halogen>  (64) 
0

>  <fr_hdrzine>  (64) 
0

>  <fr_hdrzone>  (64) 
0

>  <fr_imidazole>  (64) 
0

>  <fr_imide>  (64) 
1

>  <fr_isocyan>  (64) 
0

>  <fr_isothiocyan>  (64) 
0

>  <fr_ketone>  (64) 
0

>  <fr_ketone_Topliss>  (64) 
0

>  <fr_lactam>  (64) 
0

>  <fr_lactone>  (64) 
0

>  <fr_methoxy>  (64) 
0

>  <fr_morpholine>  (64) 
0

>  <fr_nitrile>  (64) 
0

>  <fr_nitro>  (64) 
0

>  <fr_nitro_arom>  (64) 
0

>  <fr_nitro_arom_nonortho>  (64) 
0

>  <fr_nitroso>  (64) 
0

>  <fr_oxazole>  (64) 
0

>  <fr_oxime>  (64) 
0

>  <fr_para_hydroxylation>  (64) 
1

>  <fr_phenol>  (64) 
0

>  <fr_phenol_noOrthoHbond>  (64) 
0

>  <fr_phos_acid>  (64) 
0

>  <fr_phos_ester>  (64) 
0

>  <fr_piperdine>  (64) 
0

>  <fr_piperzine>  (64) 
0

>  <fr_priamide>  (64) 
0

>  <fr_prisulfonamd>  (64) 
0

>  <fr_pyridine>  (64) 
0

>  <fr_quatN>  (64) 
0

>  <fr_sulfide>  (64) 
0

>  <fr_sulfonamd>  (64) 
0

>  <fr_sulfone>  (64) 
0

>  <fr_term_acetylene>  (64) 
0

>  <fr_tetrazole>  (64) 
0

>  <fr_thiazole>  (64) 
0

>  <fr_thiocyan>  (64) 
0

>  <fr_thiophene>  (64) 
0

>  <fr_unbrch_alkane>  (64) 
0

>  <fr_urea>  (64) 
0

>  <NP_Likeness>  (64) 
-0.192986

$$$$
CHEMBL571948
     RDKit          3D

  0  0  0  0  0  0  0  0  0  0999 V3000
M  V30 BEGIN CTAB
M  V30 COUNTS 37 39 0 0 0
M  V30 BEGIN ATOM
M  V30 1 C 0.475349 -5.403850 3.218118 0
M  V30 2 C 1.699900 -4.679544 2.740790 0 CFG=1
M  V30 3 N 2.591501 -5.536309 1.994984 0
M  V30 4 C 1.392960 -3.464298 1.958261 0
M  V30 5 C 2.449419 -2.831809 1.334548 0
M  V30 6 C 2.132957 -1.683742 0.599963 0
M  V30 7 C 0.855527 -1.172096 0.474808 0
M  V30 8 C 0.665035 0.034726 -0.322660 0
M  V30 9 O 1.671042 0.536491 -0.847224 0
M  V30 10 N -0.625320 0.608107 -0.488170 0
M  V30 11 C -0.953643 1.774627 -1.233362 0
M  V30 12 C -1.299019 1.741037 -2.586718 0
M  V30 13 C -1.605138 2.915650 -3.242092 0
M  V30 14 N -1.577944 4.113753 -2.595420 0
M  V30 15 C -1.239773 4.121952 -1.281452 0
M  V30 16 N -1.151928 5.194507 -0.456489 0
M  V30 17 C -0.780616 4.727879 0.771366 0
M  V30 18 C -0.629313 3.350811 0.735423 0
M  V30 19 C -0.922466 2.992581 -0.562285 0
M  V30 20 C -0.133819 -1.863901 1.127445 0
M  V30 21 C 0.100518 -2.998728 1.867522 0
M  V30 22 H -0.268507 -5.592474 2.439551 0
M  V30 23 H 0.038650 -4.915816 4.118780 0
M  V30 24 H 0.816298 -6.404881 3.588409 0
M  V30 25 H 2.262861 -4.362000 3.649870 0
M  V30 26 H 2.378139 -6.534602 2.229593 0
M  V30 27 H 3.568277 -5.273984 2.159381 0
M  V30 28 H 3.473742 -3.182513 1.393869 0
M  V30 29 H 2.984664 -1.206417 0.119570 0
M  V30 30 H -1.477935 0.197745 -0.053856 0
M  V30 31 H -1.307295 0.765695 -3.059460 0
M  V30 32 H -1.865080 2.841224 -4.282848 0
M  V30 33 H -1.326510 6.220345 -0.669446 0
M  V30 34 H -0.622211 5.348471 1.665509 0
M  V30 35 H -0.346589 2.671154 1.523779 0
M  V30 36 H -1.140281 -1.486446 1.046520 0
M  V30 37 H -0.685803 -3.519769 2.366393 0
M  V30 END ATOM
M  V30 BEGIN BOND
M  V30 1 1 1 2
M  V30 2 1 2 3
M  V30 3 1 2 4
M  V30 4 2 4 5
M  V30 5 1 5 6
M  V30 6 2 6 7
M  V30 7 1 7 8
M  V30 8 2 8 9
M  V30 9 1 8 10
M  V30 10 1 10 11
M  V30 11 2 11 12
M  V30 12 1 12 13
M  V30 13 2 13 14
M  V30 14 1 14 15
M  V30 15 1 15 16
M  V30 16 1 16 17
M  V30 17 2 17 18
M  V30 18 1 18 19
M  V30 19 1 7 20
M  V30 20 2 20 21
M  V30 21 1 21 4
M  V30 22 1 19 11
M  V30 23 2 19 15
M  V30 24 1 1 22
M  V30 25 1 1 23
M  V30 26 1 1 24
M  V30 27 1 2 25 CFG=1
M  V30 28 1 3 26
M  V30 29 1 3 27
M  V30 30 1 5 28
M  V30 31 1 6 29
M  V30 32 1 10 30
M  V30 33 1 12 31
M  V30 34 1 13 32
M  V30 35 1 16 33
M  V30 36 1 17 34
M  V30 37 1 18 35
M  V30 38 1 20 36
M  V30 39 1 21 37
M  V30 END BOND
M  V30 END CTAB
M  END
>  <Dataset>  (65) 
ChEMBL_PKA

>  <Ligand_Instance>  (65) 
nan

>  <PDB_ID>  (65) 
nan

>  <Standardized_SMILES>  (65) 
C[C@@H](N)c1ccc(C(=O)Nc2ccnc3[nH]ccc23)cc1

>  <Name>  (65) 
Y-39983

>  <Pocket>  (65) 
nan

>  <ATP_Site>  (65) 
nan

>  <Peripheral>  (65) 
nan

>  <Num_H_Atoms_ProtBoundConf>  (65) 
nan

>  <Num_Resolved_Atoms>  (65) 
nan

>  <Num_Not_Resolved_Atoms>  (65) 
nan

>  <2D_Mol_H>  (65) 
<rdkit.Chem.rdchem.Mol object at 0x72a239110e40>

>  <MW>  (65) 
280.331

>  <HBA>  (65) 
3

>  <HBD>  (65) 
3

>  <LogP>  (65) 
2.8349

>  <NRB>  (65) 
5

>  <TPSA>  (65) 
83.8

>  <Num_Heavy_Atoms>  (65) 
21

>  <Ro5>  (65) 
[True, True, True, True, True, True]

>  <Ro5_Fulfilled>  (65) 
True

>  <Ro3>  (65) 
[True, True, True, True]

>  <Ro3_Fulfilled>  (65) 
True

>  <Fsp3>  (65) 
0.125

>  <Fsp3_0.42>  (65) 
False

>  <Fsp3_0.45>  (65) 
False

>  <Stereogenic_Carbons>  (65) 
1

>  <C_Atoms>  (65) 
16

>  <FCStereo>  (65) 
0.0625

>  <SPS>  (65) 
258

>  <nSPS>  (65) 
12.285714

>  <PBF>  (65) 
0.865176

>  <PBF_0.6>  (65) 
True

>  <nPBF>  (65) 
0.041199

>  <nPBF_0.016>  (65) 
True

>  <PMI1>  (65) 
522.724696

>  <PMI2>  (65) 
4395.726958

>  <PMI3>  (65) 
4516.405824

>  <NPR1>  (65) 
0.115739

>  <NPR2>  (65) 
0.97328

>  <Sum_NPR>  (65) 
1.089019

>  <Sum_NPR_1.07>  (65) 
True

>  <Sum_NPR_1.2>  (65) 
False

>  <MaxAbsEStateIndex>  (65) 
12.287823

>  <MaxEStateIndex>  (65) 
12.287823

>  <MinAbsEStateIndex>  (65) 
0.040009

>  <MinEStateIndex>  (65) 
-0.152848

>  <qed>  (65) 
0.689432

>  <MolWt>  (65) 
280.331

>  <HeavyAtomMolWt>  (65) 
264.203

>  <ExactMolWt>  (65) 
280.132411

>  <NumValenceElectrons>  (65) 
106

>  <NumRadicalElectrons>  (65) 
0

>  <MaxPartialCharge>  (65) 
0.255178

>  <MinPartialCharge>  (65) 
-0.346093

>  <MaxAbsPartialCharge>  (65) 
0.346093

>  <MinAbsPartialCharge>  (65) 
0.255178

>  <FpDensityMorgan1>  (65) 
1.238095

>  <FpDensityMorgan2>  (65) 
2.0

>  <FpDensityMorgan3>  (65) 
2.714286

>  <BCUT2D_MWHI>  (65) 
16.149161

>  <BCUT2D_MWLOW>  (65) 
10.065489

>  <BCUT2D_CHGHI>  (65) 
2.094391

>  <BCUT2D_CHGLO>  (65) 
-2.083674

>  <BCUT2D_LOGPHI>  (65) 
2.20792

>  <BCUT2D_LOGPLOW>  (65) 
-2.124852

>  <BCUT2D_MRHI>  (65) 
6.078065

>  <BCUT2D_MRLOW>  (65) 
0.10222

>  <AvgIpc>  (65) 
2.966163

>  <BalabanJ>  (65) 
1.841369

>  <BertzCT>  (65) 
774.33113

>  <Chi0>  (65) 
14.819626

>  <Chi0n>  (65) 
11.628965

>  <Chi0v>  (65) 
11.628965

>  <Chi1>  (65) 
10.147867

>  <Chi1n>  (65) 
6.739348

>  <Chi1v>  (65) 
6.739348

>  <Chi2n>  (65) 
4.963273

>  <Chi2v>  (65) 
4.963273

>  <Chi3n>  (65) 
3.407036

>  <Chi3v>  (65) 
3.407036

>  <Chi4n>  (65) 
2.202426

>  <Chi4v>  (65) 
2.202426

>  <HallKierAlpha>  (65) 
-2.66

>  <Ipc>  (65) 
98844.43169

>  <Kappa1>  (65) 
13.32894

>  <Kappa2>  (65) 
5.378151

>  <Kappa3>  (65) 
2.63652

>  <LabuteASA>  (65) 
121.745072

>  <PEOE_VSA1>  (65) 
16.034435

>  <PEOE_VSA10>  (65) 
5.647177

>  <PEOE_VSA11>  (65) 
0.0

>  <PEOE_VSA12>  (65) 
0.0

>  <PEOE_VSA13>  (65) 
5.90718

>  <PEOE_VSA14>  (65) 
0.0

>  <PEOE_VSA2>  (65) 
4.794537

>  <PEOE_VSA3>  (65) 
4.983979

>  <PEOE_VSA4>  (65) 
0.0

>  <PEOE_VSA5>  (65) 
0.0

>  <PEOE_VSA6>  (65) 
12.132734

>  <PEOE_VSA7>  (65) 
36.752657

>  <PEOE_VSA8>  (65) 
29.385204

>  <PEOE_VSA9>  (65) 
5.687386

>  <SMR_VSA1>  (65) 
4.794537

>  <SMR_VSA10>  (65) 
22.627967

>  <SMR_VSA2>  (65) 
0.0

>  <SMR_VSA3>  (65) 
9.967957

>  <SMR_VSA4>  (65) 
5.733667

>  <SMR_VSA5>  (65) 
12.965578

>  <SMR_VSA6>  (65) 
5.316789

>  <SMR_VSA7>  (65) 
59.918793

>  <SMR_VSA8>  (65) 
0.0

>  <SMR_VSA9>  (65) 
0.0

>  <SlogP_VSA1>  (65) 
11.050456

>  <SlogP_VSA10>  (65) 
5.687386

>  <SlogP_VSA11>  (65) 
0.0

>  <SlogP_VSA12>  (65) 
0.0

>  <SlogP_VSA2>  (65) 
15.875137

>  <SlogP_VSA3>  (65) 
0.0

>  <SlogP_VSA4>  (65) 
0.0

>  <SlogP_VSA5>  (65) 
28.887018

>  <SlogP_VSA6>  (65) 
48.79189

>  <SlogP_VSA7>  (65) 
0.0

>  <SlogP_VSA8>  (65) 
11.033401

>  <SlogP_VSA9>  (65) 
0.0

>  <EState_VSA1>  (65) 
0.0

>  <EState_VSA10>  (65) 
4.794537

>  <EState_VSA11>  (65) 
0.0

>  <EState_VSA2>  (65) 
11.949021

>  <EState_VSA3>  (65) 
5.563451

>  <EState_VSA4>  (65) 
22.284239

>  <EState_VSA5>  (65) 
0.0

>  <EState_VSA6>  (65) 
30.592788

>  <EState_VSA7>  (65) 
25.122838

>  <EState_VSA8>  (65) 
15.284746

>  <EState_VSA9>  (65) 
5.733667

>  <VSA_EState1>  (65) 
0.0

>  <VSA_EState10>  (65) 
0.0

>  <VSA_EState2>  (65) 
19.496548

>  <VSA_EState3>  (65) 
3.792907

>  <VSA_EState4>  (65) 
8.891772

>  <VSA_EState5>  (65) 
-0.152848

>  <VSA_EState6>  (65) 
10.936814

>  <VSA_EState7>  (65) 
3.456747

>  <VSA_EState8>  (65) 
1.911393

>  <VSA_EState9>  (65) 
0.0

>  <FractionCSP3>  (65) 
0.125

>  <HeavyAtomCount>  (65) 
21

>  <NHOHCount>  (65) 
4

>  <NOCount>  (65) 
5

>  <NumAliphaticCarbocycles>  (65) 
0

>  <NumAliphaticHeterocycles>  (65) 
0

>  <NumAliphaticRings>  (65) 
0

>  <NumAromaticCarbocycles>  (65) 
1

>  <NumAromaticHeterocycles>  (65) 
2

>  <NumAromaticRings>  (65) 
3

>  <NumHAcceptors>  (65) 
3

>  <NumHDonors>  (65) 
3

>  <NumHeteroatoms>  (65) 
5

>  <NumRotatableBonds>  (65) 
3

>  <NumSaturatedCarbocycles>  (65) 
0

>  <NumSaturatedHeterocycles>  (65) 
0

>  <NumSaturatedRings>  (65) 
0

>  <RingCount>  (65) 
3

>  <MolLogP>  (65) 
2.8349

>  <MolMR>  (65) 
83.0913

>  <fr_Al_COO>  (65) 
0

>  <fr_Al_OH>  (65) 
0

>  <fr_Al_OH_noTert>  (65) 
0

>  <fr_ArN>  (65) 
0

>  <fr_Ar_COO>  (65) 
0

>  <fr_Ar_N>  (65) 
2

>  <fr_Ar_NH>  (65) 
1

>  <fr_Ar_OH>  (65) 
0

>  <fr_COO>  (65) 
0

>  <fr_COO2>  (65) 
0

>  <fr_C_O>  (65) 
1

>  <fr_C_O_noCOO>  (65) 
1

>  <fr_C_S>  (65) 
0

>  <fr_HOCCN>  (65) 
0

>  <fr_Imine>  (65) 
0

>  <fr_NH0>  (65) 
1

>  <fr_NH1>  (65) 
2

>  <fr_NH2>  (65) 
1

>  <fr_N_O>  (65) 
0

>  <fr_Ndealkylation1>  (65) 
0

>  <fr_Ndealkylation2>  (65) 
0

>  <fr_Nhpyrrole>  (65) 
1

>  <fr_SH>  (65) 
0

>  <fr_aldehyde>  (65) 
0

>  <fr_alkyl_carbamate>  (65) 
0

>  <fr_alkyl_halide>  (65) 
0

>  <fr_allylic_oxid>  (65) 
0

>  <fr_amide>  (65) 
1

>  <fr_amidine>  (65) 
0

>  <fr_aniline>  (65) 
1

>  <fr_aryl_methyl>  (65) 
0

>  <fr_azide>  (65) 
0

>  <fr_azo>  (65) 
0

>  <fr_barbitur>  (65) 
0

>  <fr_benzene>  (65) 
1

>  <fr_benzodiazepine>  (65) 
0

>  <fr_bicyclic>  (65) 
1

>  <fr_diazo>  (65) 
0

>  <fr_dihydropyridine>  (65) 
0

>  <fr_epoxide>  (65) 
0

>  <fr_ester>  (65) 
0

>  <fr_ether>  (65) 
0

>  <fr_furan>  (65) 
0

>  <fr_guanido>  (65) 
0

>  <fr_halogen>  (65) 
0

>  <fr_hdrzine>  (65) 
0

>  <fr_hdrzone>  (65) 
0

>  <fr_imidazole>  (65) 
0

>  <fr_imide>  (65) 
0

>  <fr_isocyan>  (65) 
0

>  <fr_isothiocyan>  (65) 
0

>  <fr_ketone>  (65) 
0

>  <fr_ketone_Topliss>  (65) 
0

>  <fr_lactam>  (65) 
0

>  <fr_lactone>  (65) 
0

>  <fr_methoxy>  (65) 
0

>  <fr_morpholine>  (65) 
0

>  <fr_nitrile>  (65) 
0

>  <fr_nitro>  (65) 
0

>  <fr_nitro_arom>  (65) 
0

>  <fr_nitro_arom_nonortho>  (65) 
0

>  <fr_nitroso>  (65) 
0

>  <fr_oxazole>  (65) 
0

>  <fr_oxime>  (65) 
0

>  <fr_para_hydroxylation>  (65) 
0

>  <fr_phenol>  (65) 
0

>  <fr_phenol_noOrthoHbond>  (65) 
0

>  <fr_phos_acid>  (65) 
0

>  <fr_phos_ester>  (65) 
0

>  <fr_piperdine>  (65) 
0

>  <fr_piperzine>  (65) 
0

>  <fr_priamide>  (65) 
0

>  <fr_prisulfonamd>  (65) 
0

>  <fr_pyridine>  (65) 
1

>  <fr_quatN>  (65) 
0

>  <fr_sulfide>  (65) 
0

>  <fr_sulfonamd>  (65) 
0

>  <fr_sulfone>  (65) 
0

>  <fr_term_acetylene>  (65) 
0

>  <fr_tetrazole>  (65) 
0

>  <fr_thiazole>  (65) 
0

>  <fr_thiocyan>  (65) 
0

>  <fr_thiophene>  (65) 
0

>  <fr_unbrch_alkane>  (65) 
0

>  <fr_urea>  (65) 
0

>  <NP_Likeness>  (65) 
-1.155489

$$$$
CHEMBL573578
     RDKit          3D

  0  0  0  0  0  0  0  0  0  0999 V3000
M  V30 BEGIN CTAB
M  V30 COUNTS 46 49 0 0 0
M  V30 BEGIN ATOM
M  V30 1 C 0.965410 -4.126353 1.477048 0
M  V30 2 C -0.413806 -3.778142 1.009373 0
M  V30 3 C -1.338403 -3.788412 2.214473 0
M  V30 4 C -0.923298 -4.836445 0.053747 0
M  V30 5 N -0.431493 -2.476947 0.329771 0
M  V30 6 N 0.600984 -1.723363 0.185461 0
M  V30 7 C 0.314576 -0.566966 -0.482381 0
M  V30 8 C 1.244596 0.518087 -0.800745 0
M  V30 9 C 1.250605 1.691088 0.055346 0
M  V30 10 C 0.677657 2.917725 -0.215413 0
M  V30 11 C 0.659633 4.035611 0.587163 0
M  V30 12 C 1.277047 3.966290 1.816951 0
M  V30 13 C 1.880232 2.781615 2.176681 0
M  V30 14 C 2.498011 2.766341 3.407089 0
M  V30 15 C 3.139804 1.624059 3.833241 0
M  V30 16 C 3.156320 0.508992 3.021526 0
M  V30 17 C 2.514069 0.607924 1.806107 0
M  V30 18 C 1.851822 1.708836 1.311647 0
M  V30 19 C -1.029495 -0.719019 -0.726093 0
M  V30 20 C -1.960801 0.048010 -1.360214 0
M  V30 21 N -1.585155 1.262340 -1.932284 0
M  V30 22 N -3.241676 -0.324155 -1.482509 0
M  V30 23 C -3.680339 -1.511245 -0.968423 0
M  V30 24 N -2.804848 -2.303288 -0.336750 0
M  V30 25 C -1.520913 -1.923434 -0.218140 0
M  V30 26 H 1.098183 -5.226383 1.417093 0
M  V30 27 H 1.743456 -3.701948 0.800534 0
M  V30 28 H 1.127974 -3.801551 2.524078 0
M  V30 29 H -1.337570 -4.850284 2.564796 0
M  V30 30 H -0.962680 -3.180441 3.054096 0
M  V30 31 H -2.381877 -3.563103 1.926213 0
M  V30 32 H -1.345333 -5.681376 0.650773 0
M  V30 33 H -0.104440 -5.163854 -0.612132 0
M  V30 34 H -1.751605 -4.448282 -0.570513 0
M  V30 35 H 2.304043 0.125696 -0.797996 0
M  V30 36 H 1.129869 0.863877 -1.876292 0
M  V30 37 H 0.184887 3.094115 -1.158031 0
M  V30 38 H 0.191438 4.967168 0.315902 0
M  V30 39 H 1.284954 4.819895 2.475439 0
M  V30 40 H 2.490405 3.631121 4.047137 0
M  V30 41 H 3.612644 1.650270 4.804778 0
M  V30 42 H 3.657532 -0.361826 3.368318 0
M  V30 43 H 2.587595 -0.293280 1.221973 0
M  V30 44 H -1.096730 1.628909 -2.784347 0
M  V30 45 H -1.944994 1.961245 -1.216959 0
M  V30 46 H -4.699992 -1.875584 -1.029631 0
M  V30 END ATOM
M  V30 BEGIN BOND
M  V30 1 1 1 2
M  V30 2 1 2 3
M  V30 3 1 2 4
M  V30 4 1 2 5
M  V30 5 1 5 6
M  V30 6 2 6 7
M  V30 7 1 7 8
M  V30 8 1 8 9
M  V30 9 2 9 10
M  V30 10 1 10 11
M  V30 11 2 11 12
M  V30 12 1 12 13
M  V30 13 2 13 14
M  V30 14 1 14 15
M  V30 15 2 15 16
M  V30 16 1 16 17
M  V30 17 2 17 18
M  V30 18 1 7 19
M  V30 19 2 19 20
M  V30 20 1 20 21
M  V30 21 1 20 22
M  V30 22 2 22 23
M  V30 23 1 23 24
M  V30 24 2 24 25
M  V30 25 1 25 5
M  V30 26 1 18 9
M  V30 27 1 25 19
M  V30 28 1 18 13
M  V30 29 1 1 26
M  V30 30 1 1 27
M  V30 31 1 1 28
M  V30 32 1 3 29
M  V30 33 1 3 30
M  V30 34 1 3 31
M  V30 35 1 4 32
M  V30 36 1 4 33
M  V30 37 1 4 34
M  V30 38 1 8 35
M  V30 39 1 8 36
M  V30 40 1 10 37
M  V30 41 1 11 38
M  V30 42 1 12 39
M  V30 43 1 14 40
M  V30 44 1 15 41
M  V30 45 1 16 42
M  V30 46 1 17 43
M  V30 47 1 21 44
M  V30 48 1 21 45
M  V30 49 1 23 46
M  V30 END BOND
M  V30 END CTAB
M  END
>  <Dataset>  (66) 
ChEMBL_PKA

>  <Ligand_Instance>  (66) 
nan

>  <PDB_ID>  (66) 
nan

>  <Standardized_SMILES>  (66) 
CC(C)(C)n1nc(Cc2cccc3ccccc23)c2c(N)ncnc21

>  <Name>  (66) 
nan

>  <Pocket>  (66) 
nan

>  <ATP_Site>  (66) 
nan

>  <Peripheral>  (66) 
nan

>  <Num_H_Atoms_ProtBoundConf>  (66) 
nan

>  <Num_Resolved_Atoms>  (66) 
nan

>  <Num_Not_Resolved_Atoms>  (66) 
nan

>  <2D_Mol_H>  (66) 
<rdkit.Chem.rdchem.Mol object at 0x72a239110f20>

>  <MW>  (66) 
331.423

>  <HBA>  (66) 
5

>  <HBD>  (66) 
1

>  <LogP>  (66) 
3.9075

>  <NRB>  (66) 
3

>  <TPSA>  (66) 
69.62

>  <Num_Heavy_Atoms>  (66) 
25

>  <Ro5>  (66) 
[True, True, True, True, True, True]

>  <Ro5_Fulfilled>  (66) 
True

>  <Ro3>  (66) 
[False, False, True, False]

>  <Ro3_Fulfilled>  (66) 
False

>  <Fsp3>  (66) 
0.25

>  <Fsp3_0.42>  (66) 
False

>  <Fsp3_0.45>  (66) 
False

>  <Stereogenic_Carbons>  (66) 
0

>  <C_Atoms>  (66) 
20

>  <FCStereo>  (66) 
0.0

>  <SPS>  (66) 
303

>  <nSPS>  (66) 
12.12

>  <PBF>  (66) 
0.895782

>  <PBF_0.6>  (66) 
True

>  <nPBF>  (66) 
0.035831

>  <nPBF_0.016>  (66) 
True

>  <PMI1>  (66) 
1463.014723

>  <PMI2>  (66) 
2968.806787

>  <PMI3>  (66) 
4000.676278

>  <NPR1>  (66) 
0.365692

>  <NPR2>  (66) 
0.742076

>  <Sum_NPR>  (66) 
1.107768

>  <Sum_NPR_1.07>  (66) 
True

>  <Sum_NPR_1.2>  (66) 
False

>  <MaxAbsEStateIndex>  (66) 
6.175491

>  <MaxEStateIndex>  (66) 
6.175491

>  <MinAbsEStateIndex>  (66) 
0.184475

>  <MinEStateIndex>  (66) 
-0.184475

>  <qed>  (66) 
0.604472

>  <MolWt>  (66) 
331.423

>  <HeavyAtomMolWt>  (66) 
310.255

>  <ExactMolWt>  (66) 
331.179696

>  <NumValenceElectrons>  (66) 
126

>  <NumRadicalElectrons>  (66) 
0

>  <MaxPartialCharge>  (66) 
0.163604

>  <MinPartialCharge>  (66) 
-0.382975

>  <MaxAbsPartialCharge>  (66) 
0.382975

>  <MinAbsPartialCharge>  (66) 
0.163604

>  <FpDensityMorgan1>  (66) 
1.0

>  <FpDensityMorgan2>  (66) 
1.76

>  <FpDensityMorgan3>  (66) 
2.56

>  <BCUT2D_MWHI>  (66) 
15.343945

>  <BCUT2D_MWLOW>  (66) 
10.000045

>  <BCUT2D_CHGHI>  (66) 
2.228931

>  <BCUT2D_CHGLO>  (66) 
-2.191719

>  <BCUT2D_LOGPHI>  (66) 
2.290897

>  <BCUT2D_LOGPLOW>  (66) 
-2.232096

>  <BCUT2D_MRHI>  (66) 
5.900974

>  <BCUT2D_MRLOW>  (66) 
0.363405

>  <AvgIpc>  (66) 
2.954524

>  <BalabanJ>  (66) 
1.924835

>  <BertzCT>  (66) 
1067.275032

>  <Chi0>  (66) 
17.604084

>  <Chi0n>  (66) 
14.692114

>  <Chi0v>  (66) 
14.692114

>  <Chi1>  (66) 
11.948508

>  <Chi1n>  (66) 
8.401581

>  <Chi1v>  (66) 
8.401581

>  <Chi2n>  (66) 
7.301883

>  <Chi2v>  (66) 
7.301883

>  <Chi3n>  (66) 
4.439744

>  <Chi3v>  (66) 
4.439744

>  <Chi4n>  (66) 
3.263444

>  <Chi4v>  (66) 
3.263444

>  <HallKierAlpha>  (66) 
-2.95

>  <Ipc>  (66) 
658167.559872

>  <Kappa1>  (66) 
15.570313

>  <Kappa2>  (66) 
5.549307

>  <Kappa3>  (66) 
2.614873

>  <LabuteASA>  (66) 
146.062957

>  <PEOE_VSA1>  (66) 
5.733667

>  <PEOE_VSA10>  (66) 
12.145183

>  <PEOE_VSA11>  (66) 
5.647177

>  <PEOE_VSA12>  (66) 
0.0

>  <PEOE_VSA13>  (66) 
0.0

>  <PEOE_VSA14>  (66) 
0.0

>  <PEOE_VSA2>  (66) 
0.0

>  <PEOE_VSA3>  (66) 
14.64976

>  <PEOE_VSA4>  (66) 
5.098682

>  <PEOE_VSA5>  (66) 
0.0

>  <PEOE_VSA6>  (66) 
42.464569

>  <PEOE_VSA7>  (66) 
37.107112

>  <PEOE_VSA8>  (66) 
6.420822

>  <PEOE_VSA9>  (66) 
16.619077

>  <SMR_VSA1>  (66) 
0.0

>  <SMR_VSA10>  (66) 
27.623713

>  <SMR_VSA2>  (66) 
0.0

>  <SMR_VSA3>  (66) 
19.748442

>  <SMR_VSA4>  (66) 
0.0

>  <SMR_VSA5>  (66) 
32.730958

>  <SMR_VSA6>  (66) 
5.733667

>  <SMR_VSA7>  (66) 
60.049269

>  <SMR_VSA8>  (66) 
0.0

>  <SMR_VSA9>  (66) 
0.0

>  <SlogP_VSA1>  (66) 
5.733667

>  <SlogP_VSA10>  (66) 
5.817863

>  <SlogP_VSA11>  (66) 
0.0

>  <SlogP_VSA12>  (66) 
0.0

>  <SlogP_VSA2>  (66) 
19.748442

>  <SlogP_VSA3>  (66) 
11.959747

>  <SlogP_VSA4>  (66) 
0.0

>  <SlogP_VSA5>  (66) 
32.028591

>  <SlogP_VSA6>  (66) 
48.79189

>  <SlogP_VSA7>  (66) 
0.0

>  <SlogP_VSA8>  (66) 
21.80585

>  <SlogP_VSA9>  (66) 
0.0

>  <EState_VSA1>  (66) 
0.0

>  <EState_VSA10>  (66) 
0.0

>  <EState_VSA11>  (66) 
0.0

>  <EState_VSA2>  (66) 
5.538925

>  <EState_VSA3>  (66) 
12.238684

>  <EState_VSA4>  (66) 
16.727329

>  <EState_VSA5>  (66) 
22.66322

>  <EState_VSA6>  (66) 
0.0

>  <EState_VSA7>  (66) 
4.681803

>  <EState_VSA8>  (66) 
73.203738

>  <EState_VSA9>  (66) 
10.832349

>  <VSA_EState1>  (66) 
1.945275

>  <VSA_EState10>  (66) 
0.0

>  <VSA_EState2>  (66) 
8.62306

>  <VSA_EState3>  (66) 
8.170665

>  <VSA_EState4>  (66) 
8.918263

>  <VSA_EState5>  (66) 
0.482164

>  <VSA_EState6>  (66) 
14.749372

>  <VSA_EState7>  (66) 
2.196219

>  <VSA_EState8>  (66) 
6.33165

>  <VSA_EState9>  (66) 
0.0

>  <FractionCSP3>  (66) 
0.25

>  <HeavyAtomCount>  (66) 
25

>  <NHOHCount>  (66) 
2

>  <NOCount>  (66) 
5

>  <NumAliphaticCarbocycles>  (66) 
0

>  <NumAliphaticHeterocycles>  (66) 
0

>  <NumAliphaticRings>  (66) 
0

>  <NumAromaticCarbocycles>  (66) 
2

>  <NumAromaticHeterocycles>  (66) 
2

>  <NumAromaticRings>  (66) 
4

>  <NumHAcceptors>  (66) 
5

>  <NumHDonors>  (66) 
1

>  <NumHeteroatoms>  (66) 
5

>  <NumRotatableBonds>  (66) 
2

>  <NumSaturatedCarbocycles>  (66) 
0

>  <NumSaturatedHeterocycles>  (66) 
0

>  <NumSaturatedRings>  (66) 
0

>  <RingCount>  (66) 
4

>  <MolLogP>  (66) 
3.9075

>  <MolMR>  (66) 
101.4854

>  <fr_Al_COO>  (66) 
0

>  <fr_Al_OH>  (66) 
0

>  <fr_Al_OH_noTert>  (66) 
0

>  <fr_ArN>  (66) 
1

>  <fr_Ar_COO>  (66) 
0

>  <fr_Ar_N>  (66) 
4

>  <fr_Ar_NH>  (66) 
0

>  <fr_Ar_OH>  (66) 
0

>  <fr_COO>  (66) 
0

>  <fr_COO2>  (66) 
0

>  <fr_C_O>  (66) 
0

>  <fr_C_O_noCOO>  (66) 
0

>  <fr_C_S>  (66) 
0

>  <fr_HOCCN>  (66) 
0

>  <fr_Imine>  (66) 
0

>  <fr_NH0>  (66) 
4

>  <fr_NH1>  (66) 
0

>  <fr_NH2>  (66) 
1

>  <fr_N_O>  (66) 
0

>  <fr_Ndealkylation1>  (66) 
0

>  <fr_Ndealkylation2>  (66) 
0

>  <fr_Nhpyrrole>  (66) 
0

>  <fr_SH>  (66) 
0

>  <fr_aldehyde>  (66) 
0

>  <fr_alkyl_carbamate>  (66) 
0

>  <fr_alkyl_halide>  (66) 
0

>  <fr_allylic_oxid>  (66) 
0

>  <fr_amide>  (66) 
0

>  <fr_amidine>  (66) 
0

>  <fr_aniline>  (66) 
1

>  <fr_aryl_methyl>  (66) 
0

>  <fr_azide>  (66) 
0

>  <fr_azo>  (66) 
0

>  <fr_barbitur>  (66) 
0

>  <fr_benzene>  (66) 
2

>  <fr_benzodiazepine>  (66) 
0

>  <fr_bicyclic>  (66) 
2

>  <fr_diazo>  (66) 
0

>  <fr_dihydropyridine>  (66) 
0

>  <fr_epoxide>  (66) 
0

>  <fr_ester>  (66) 
0

>  <fr_ether>  (66) 
0

>  <fr_furan>  (66) 
0

>  <fr_guanido>  (66) 
0

>  <fr_halogen>  (66) 
0

>  <fr_hdrzine>  (66) 
0

>  <fr_hdrzone>  (66) 
0

>  <fr_imidazole>  (66) 
0

>  <fr_imide>  (66) 
0

>  <fr_isocyan>  (66) 
0

>  <fr_isothiocyan>  (66) 
0

>  <fr_ketone>  (66) 
0

>  <fr_ketone_Topliss>  (66) 
0

>  <fr_lactam>  (66) 
0

>  <fr_lactone>  (66) 
0

>  <fr_methoxy>  (66) 
0

>  <fr_morpholine>  (66) 
0

>  <fr_nitrile>  (66) 
0

>  <fr_nitro>  (66) 
0

>  <fr_nitro_arom>  (66) 
0

>  <fr_nitro_arom_nonortho>  (66) 
0

>  <fr_nitroso>  (66) 
0

>  <fr_oxazole>  (66) 
0

>  <fr_oxime>  (66) 
0

>  <fr_para_hydroxylation>  (66) 
0

>  <fr_phenol>  (66) 
0

>  <fr_phenol_noOrthoHbond>  (66) 
0

>  <fr_phos_acid>  (66) 
0

>  <fr_phos_ester>  (66) 
0

>  <fr_piperdine>  (66) 
0

>  <fr_piperzine>  (66) 
0

>  <fr_priamide>  (66) 
0

>  <fr_prisulfonamd>  (66) 
0

>  <fr_pyridine>  (66) 
0

>  <fr_quatN>  (66) 
0

>  <fr_sulfide>  (66) 
0

>  <fr_sulfonamd>  (66) 
0

>  <fr_sulfone>  (66) 
0

>  <fr_term_acetylene>  (66) 
0

>  <fr_tetrazole>  (66) 
0

>  <fr_thiazole>  (66) 
0

>  <fr_thiocyan>  (66) 
0

>  <fr_thiophene>  (66) 
0

>  <fr_unbrch_alkane>  (66) 
0

>  <fr_urea>  (66) 
0

>  <NP_Likeness>  (66) 
-0.813891

$$$$
CHEMBL574738
     RDKit          3D

  0  0  0  0  0  0  0  0  0  0999 V3000
M  V30 BEGIN CTAB
M  V30 COUNTS 68 71 0 0 0
M  V30 BEGIN ATOM
M  V30 1 C 5.350402 -1.590842 4.774064 0
M  V30 2 C 5.114366 -1.734209 3.311127 0
M  V30 3 N 4.917206 -0.545831 2.555046 0
M  V30 4 C 4.713274 -0.979539 1.160395 0
M  V30 5 C 4.197144 0.138961 0.312505 0
M  V30 6 N 4.536329 1.432594 0.873216 0
M  V30 7 C 4.473018 2.478653 -0.161588 0
M  V30 8 C 3.108958 2.559598 -0.741534 0
M  V30 9 C 2.808160 2.031538 -1.988069 0
M  V30 10 C 1.530337 2.108000 -2.516065 0
M  V30 11 C 0.539965 2.727358 -1.774225 0
M  V30 12 N -0.839206 2.874904 -2.205099 0
M  V30 13 C -1.729355 1.800873 -1.829461 0
M  V30 14 O -1.169006 0.864323 -1.165242 0
M  V30 15 N -3.117711 1.654243 -2.097102 0
M  V30 16 C -3.736248 0.472707 -1.591114 0
M  V30 17 C -3.818218 -0.703535 -2.313172 0
M  V30 18 C -4.401868 -1.838028 -1.843344 0
M  V30 19 C -4.956740 -1.865178 -0.581866 0
M  V30 20 O -5.595245 -2.866406 0.118066 0
M  V30 21 C -5.813562 -4.133916 -0.382913 0
M  V30 22 C -6.480287 -4.929744 0.559169 0
M  V30 23 C -6.814042 -6.241052 0.297784 0
M  V30 24 N -7.483253 -7.073253 1.221803 0
M  V30 25 C -7.870383 -6.613690 2.531169 0
M  V30 26 N -6.467628 -6.724098 -0.911993 0
M  V30 27 C -5.828168 -5.991689 -1.840731 0
M  V30 28 N -5.528818 -4.737889 -1.543711 0
M  V30 29 C -4.884220 -0.698508 0.154204 0
M  V30 30 C -4.287420 0.461824 -0.326090 0
M  V30 31 C 0.847382 3.257926 -0.519783 0
M  V30 32 C 2.137051 3.189055 0.030201 0
M  V30 33 C 2.330273 3.785739 1.356143 0
M  V30 34 F 1.152510 4.340439 1.861931 0
M  V30 35 F 3.167798 4.879229 1.183059 0
M  V30 36 F 2.947430 2.985362 2.276753 0
M  V30 37 C 5.861998 1.336514 1.400020 0
M  V30 38 C 5.946591 0.414952 2.575387 0
M  V30 39 H 5.051462 -0.640659 5.220912 0
M  V30 40 H 6.438349 -1.760214 5.018285 0
M  V30 41 H 4.812277 -2.393476 5.335770 0
M  V30 42 H 5.965473 -2.310358 2.875585 0
M  V30 43 H 4.225815 -2.385823 3.140799 0
M  V30 44 H 5.688240 -1.307897 0.746479 0
M  V30 45 H 4.040416 -1.852633 1.104797 0
M  V30 46 H 3.097061 0.061228 0.097770 0
M  V30 47 H 4.687670 0.071142 -0.677159 0
M  V30 48 H 4.881727 3.417985 0.201165 0
M  V30 49 H 5.139673 2.118991 -0.974842 0
M  V30 50 H 3.578388 1.545410 -2.572936 0
M  V30 51 H 1.235940 1.715995 -3.479167 0
M  V30 52 H -1.340964 3.629497 -2.753691 0
M  V30 53 H -3.508144 2.455734 -2.644621 0
M  V30 54 H -3.391646 -0.722132 -3.313693 0
M  V30 55 H -4.492582 -2.780061 -2.363696 0
M  V30 56 H -6.792423 -4.605886 1.559656 0
M  V30 57 H -7.714521 -8.045185 0.976725 0
M  V30 58 H -8.097826 -7.466416 3.211321 0
M  V30 59 H -7.010458 -6.054539 2.974390 0
M  V30 60 H -8.744569 -5.933040 2.480750 0
M  V30 61 H -5.532970 -6.340309 -2.820987 0
M  V30 62 H -5.271079 -0.549612 1.164094 0
M  V30 63 H -4.216505 1.388166 0.227598 0
M  V30 64 H 0.049800 3.748724 0.059551 0
M  V30 65 H 6.290447 2.312192 1.704566 0
M  V30 66 H 6.500496 0.913175 0.598458 0
M  V30 67 H 5.785108 1.044419 3.499267 0
M  V30 68 H 6.969306 0.017333 2.718686 0
M  V30 END ATOM
M  V30 BEGIN BOND
M  V30 1 1 1 2
M  V30 2 1 2 3
M  V30 3 1 3 4
M  V30 4 1 4 5
M  V30 5 1 5 6
M  V30 6 1 6 7
M  V30 7 1 7 8
M  V30 8 2 8 9
M  V30 9 1 9 10
M  V30 10 2 10 11
M  V30 11 1 11 12
M  V30 12 1 12 13
M  V30 13 2 13 14
M  V30 14 1 13 15
M  V30 15 1 15 16
M  V30 16 2 16 17
M  V30 17 1 17 18
M  V30 18 2 18 19
M  V30 19 1 19 20
M  V30 20 1 20 21
M  V30 21 2 21 22
M  V30 22 1 22 23
M  V30 23 1 23 24
M  V30 24 1 24 25
M  V30 25 2 23 26
M  V30 26 1 26 27
M  V30 27 2 27 28
M  V30 28 1 19 29
M  V30 29 2 29 30
M  V30 30 1 11 31
M  V30 31 2 31 32
M  V30 32 1 32 33
M  V30 33 1 33 34
M  V30 34 1 33 35
M  V30 35 1 33 36
M  V30 36 1 6 37
M  V30 37 1 37 38
M  V30 38 1 38 3
M  V30 39 1 32 8
M  V30 40 1 30 16
M  V30 41 1 28 21
M  V30 42 1 1 39
M  V30 43 1 1 40
M  V30 44 1 1 41
M  V30 45 1 2 42
M  V30 46 1 2 43
M  V30 47 1 4 44
M  V30 48 1 4 45
M  V30 49 1 5 46
M  V30 50 1 5 47
M  V30 51 1 7 48
M  V30 52 1 7 49
M  V30 53 1 9 50
M  V30 54 1 10 51
M  V30 55 1 12 52
M  V30 56 1 15 53
M  V30 57 1 17 54
M  V30 58 1 18 55
M  V30 59 1 22 56
M  V30 60 1 24 57
M  V30 61 1 25 58
M  V30 62 1 25 59
M  V30 63 1 25 60
M  V30 64 1 27 61
M  V30 65 1 29 62
M  V30 66 1 30 63
M  V30 67 1 31 64
M  V30 68 1 37 65
M  V30 69 1 37 66
M  V30 70 1 38 67
M  V30 71 1 38 68
M  V30 END BOND
M  V30 END CTAB
M  END
>  <Dataset>  (67) 
ChEMBL_PKA

>  <Ligand_Instance>  (67) 
nan

>  <PDB_ID>  (67) 
nan

>  <Standardized_SMILES>  (67) 
CCN1CCN(Cc2ccc(NC(=O)Nc3ccc(Oc4cc(NC)ncn4)cc3)cc2C(F)(F)F)CC1

>  <Name>  (67) 
AST-487

>  <Pocket>  (67) 
nan

>  <ATP_Site>  (67) 
nan

>  <Peripheral>  (67) 
nan

>  <Num_H_Atoms_ProtBoundConf>  (67) 
nan

>  <Num_Resolved_Atoms>  (67) 
nan

>  <Num_Not_Resolved_Atoms>  (67) 
nan

>  <2D_Mol_H>  (67) 
<rdkit.Chem.rdchem.Mol object at 0x72a239111000>

>  <MW>  (67) 
529.567

>  <HBA>  (67) 
7

>  <HBD>  (67) 
3

>  <LogP>  (67) 
5.1109

>  <NRB>  (67) 
10

>  <TPSA>  (67) 
94.65

>  <Num_Heavy_Atoms>  (67) 
38

>  <Ro5>  (67) 
[False, True, True, False, True, True]

>  <Ro5_Fulfilled>  (67) 
False

>  <Ro3>  (67) 
[False, False, True, False]

>  <Ro3_Fulfilled>  (67) 
False

>  <Fsp3>  (67) 
0.346154

>  <Fsp3_0.42>  (67) 
False

>  <Fsp3_0.45>  (67) 
False

>  <Stereogenic_Carbons>  (67) 
0

>  <C_Atoms>  (67) 
26

>  <FCStereo>  (67) 
0.0

>  <SPS>  (67) 
557

>  <nSPS>  (67) 
14.657895

>  <PBF>  (67) 
1.151551

>  <PBF_0.6>  (67) 
True

>  <nPBF>  (67) 
0.030304

>  <nPBF_0.016>  (67) 
True

>  <PMI1>  (67) 
4102.254788

>  <PMI2>  (67) 
15496.836134

>  <PMI3>  (67) 
17917.317327

>  <NPR1>  (67) 
0.228955

>  <NPR2>  (67) 
0.864908

>  <Sum_NPR>  (67) 
1.093863

>  <Sum_NPR_1.07>  (67) 
True

>  <Sum_NPR_1.2>  (67) 
False

>  <MaxAbsEStateIndex>  (67) 
13.841589

>  <MaxEStateIndex>  (67) 
13.841589

>  <MinAbsEStateIndex>  (67) 
0.054102

>  <MinEStateIndex>  (67) 
-4.539484

>  <qed>  (67) 
0.373344

>  <MolWt>  (67) 
529.567

>  <HeavyAtomMolWt>  (67) 
499.327

>  <ExactMolWt>  (67) 
529.241308

>  <NumValenceElectrons>  (67) 
202

>  <NumRadicalElectrons>  (67) 
0

>  <MaxPartialCharge>  (67) 
0.4163

>  <MinPartialCharge>  (67) 
-0.438849

>  <MaxAbsPartialCharge>  (67) 
0.438849

>  <MinAbsPartialCharge>  (67) 
0.4163

>  <FpDensityMorgan1>  (67) 
0.947368

>  <FpDensityMorgan2>  (67) 
1.605263

>  <FpDensityMorgan3>  (67) 
2.263158

>  <BCUT2D_MWHI>  (67) 
19.413197

>  <BCUT2D_MWLOW>  (67) 
10.047026

>  <BCUT2D_CHGHI>  (67) 
2.340191

>  <BCUT2D_CHGLO>  (67) 
-2.34056

>  <BCUT2D_LOGPHI>  (67) 
2.344658

>  <BCUT2D_LOGPLOW>  (67) 
-2.452983

>  <BCUT2D_MRHI>  (67) 
5.993837

>  <BCUT2D_MRLOW>  (67) 
-0.138024

>  <AvgIpc>  (67) 
2.903758

>  <BalabanJ>  (67) 
1.366323

>  <BertzCT>  (67) 
1230.256561

>  <Chi0>  (67) 
27.122745

>  <Chi0n>  (67) 
21.178037

>  <Chi0v>  (67) 
21.178037

>  <Chi1>  (67) 
18.228028

>  <Chi1n>  (67) 
12.237709

>  <Chi1v>  (67) 
12.237709

>  <Chi2n>  (67) 
8.777143

>  <Chi2v>  (67) 
8.777143

>  <Chi3n>  (67) 
6.211948

>  <Chi3v>  (67) 
6.211948

>  <Chi4n>  (67) 
4.113008

>  <Chi4v>  (67) 
4.113008

>  <HallKierAlpha>  (67) 
-3.9

>  <Ipc>  (67) 
267035458.190342

>  <Kappa1>  (67) 
27.143294

>  <Kappa2>  (67) 
12.096202

>  <Kappa3>  (67) 
7.325948

>  <LabuteASA>  (67) 
218.569405

>  <PEOE_VSA1>  (67) 
25.587138

>  <PEOE_VSA10>  (67) 
17.894695

>  <PEOE_VSA11>  (67) 
0.0

>  <PEOE_VSA12>  (67) 
5.879988

>  <PEOE_VSA13>  (67) 
0.0

>  <PEOE_VSA14>  (67) 
12.207413

>  <PEOE_VSA2>  (67) 
4.89991

>  <PEOE_VSA3>  (67) 
14.762494

>  <PEOE_VSA4>  (67) 
13.171245

>  <PEOE_VSA5>  (67) 
0.0

>  <PEOE_VSA6>  (67) 
12.990104

>  <PEOE_VSA7>  (67) 
48.50641

>  <PEOE_VSA8>  (67) 
57.212594

>  <PEOE_VSA9>  (67) 
5.563451

>  <SMR_VSA1>  (67) 
22.702645

>  <SMR_VSA10>  (67) 
23.22375

>  <SMR_VSA2>  (67) 
0.0

>  <SMR_VSA3>  (67) 
19.767777

>  <SMR_VSA4>  (67) 
0.0

>  <SMR_VSA5>  (67) 
19.644792

>  <SMR_VSA6>  (67) 
55.72182

>  <SMR_VSA7>  (67) 
65.98516

>  <SMR_VSA8>  (67) 
0.0

>  <SMR_VSA9>  (67) 
11.6295

>  <SlogP_VSA1>  (67) 
20.687229

>  <SlogP_VSA10>  (67) 
35.158418

>  <SlogP_VSA11>  (67) 
11.6295

>  <SlogP_VSA12>  (67) 
0.0

>  <SlogP_VSA2>  (67) 
65.570345

>  <SlogP_VSA3>  (67) 
12.721055

>  <SlogP_VSA4>  (67) 
0.0

>  <SlogP_VSA5>  (67) 
18.05064

>  <SlogP_VSA6>  (67) 
54.858257

>  <SlogP_VSA7>  (67) 
0.0

>  <SlogP_VSA8>  (67) 
0.0

>  <SlogP_VSA9>  (67) 
0.0

>  <EState_VSA1>  (67) 
17.770865

>  <EState_VSA10>  (67) 
17.965782

>  <EState_VSA11>  (67) 
0.0

>  <EState_VSA2>  (67) 
17.795594

>  <EState_VSA3>  (67) 
36.224262

>  <EState_VSA4>  (67) 
25.700636

>  <EState_VSA5>  (67) 
18.460054

>  <EState_VSA6>  (67) 
37.379507

>  <EState_VSA7>  (67) 
4.89991

>  <EState_VSA8>  (67) 
37.74197

>  <EState_VSA9>  (67) 
4.736863

>  <VSA_EState1>  (67) 
47.191017

>  <VSA_EState10>  (67) 
0.0

>  <VSA_EState2>  (67) 
24.815299

>  <VSA_EState3>  (67) 
7.989798

>  <VSA_EState4>  (67) 
-0.068367

>  <VSA_EState5>  (67) 
1.425596

>  <VSA_EState6>  (67) 
11.3577

>  <VSA_EState7>  (67) 
-3.172702

>  <VSA_EState8>  (67) 
6.317339

>  <VSA_EState9>  (67) 
1.727652

>  <FractionCSP3>  (67) 
0.346154

>  <HeavyAtomCount>  (67) 
38

>  <NHOHCount>  (67) 
3

>  <NOCount>  (67) 
9

>  <NumAliphaticCarbocycles>  (67) 
0

>  <NumAliphaticHeterocycles>  (67) 
1

>  <NumAliphaticRings>  (67) 
1

>  <NumAromaticCarbocycles>  (67) 
2

>  <NumAromaticHeterocycles>  (67) 
1

>  <NumAromaticRings>  (67) 
3

>  <NumHAcceptors>  (67) 
7

>  <NumHDonors>  (67) 
3

>  <NumHeteroatoms>  (67) 
12

>  <NumRotatableBonds>  (67) 
8

>  <NumSaturatedCarbocycles>  (67) 
0

>  <NumSaturatedHeterocycles>  (67) 
1

>  <NumSaturatedRings>  (67) 
1

>  <RingCount>  (67) 
4

>  <MolLogP>  (67) 
5.1109

>  <MolMR>  (67) 
139.5711

>  <fr_Al_COO>  (67) 
0

>  <fr_Al_OH>  (67) 
0

>  <fr_Al_OH_noTert>  (67) 
0

>  <fr_ArN>  (67) 
0

>  <fr_Ar_COO>  (67) 
0

>  <fr_Ar_N>  (67) 
2

>  <fr_Ar_NH>  (67) 
0

>  <fr_Ar_OH>  (67) 
0

>  <fr_COO>  (67) 
0

>  <fr_COO2>  (67) 
0

>  <fr_C_O>  (67) 
1

>  <fr_C_O_noCOO>  (67) 
1

>  <fr_C_S>  (67) 
0

>  <fr_HOCCN>  (67) 
0

>  <fr_Imine>  (67) 
0

>  <fr_NH0>  (67) 
4

>  <fr_NH1>  (67) 
3

>  <fr_NH2>  (67) 
0

>  <fr_N_O>  (67) 
0

>  <fr_Ndealkylation1>  (67) 
1

>  <fr_Ndealkylation2>  (67) 
0

>  <fr_Nhpyrrole>  (67) 
0

>  <fr_SH>  (67) 
0

>  <fr_aldehyde>  (67) 
0

>  <fr_alkyl_carbamate>  (67) 
0

>  <fr_alkyl_halide>  (67) 
3

>  <fr_allylic_oxid>  (67) 
0

>  <fr_amide>  (67) 
2

>  <fr_amidine>  (67) 
0

>  <fr_aniline>  (67) 
3

>  <fr_aryl_methyl>  (67) 
0

>  <fr_azide>  (67) 
0

>  <fr_azo>  (67) 
0

>  <fr_barbitur>  (67) 
0

>  <fr_benzene>  (67) 
2

>  <fr_benzodiazepine>  (67) 
0

>  <fr_bicyclic>  (67) 
0

>  <fr_diazo>  (67) 
0

>  <fr_dihydropyridine>  (67) 
0

>  <fr_epoxide>  (67) 
0

>  <fr_ester>  (67) 
0

>  <fr_ether>  (67) 
1

>  <fr_furan>  (67) 
0

>  <fr_guanido>  (67) 
0

>  <fr_halogen>  (67) 
3

>  <fr_hdrzine>  (67) 
0

>  <fr_hdrzone>  (67) 
0

>  <fr_imidazole>  (67) 
0

>  <fr_imide>  (67) 
0

>  <fr_isocyan>  (67) 
0

>  <fr_isothiocyan>  (67) 
0

>  <fr_ketone>  (67) 
0

>  <fr_ketone_Topliss>  (67) 
0

>  <fr_lactam>  (67) 
0

>  <fr_lactone>  (67) 
0

>  <fr_methoxy>  (67) 
0

>  <fr_morpholine>  (67) 
0

>  <fr_nitrile>  (67) 
0

>  <fr_nitro>  (67) 
0

>  <fr_nitro_arom>  (67) 
0

>  <fr_nitro_arom_nonortho>  (67) 
0

>  <fr_nitroso>  (67) 
0

>  <fr_oxazole>  (67) 
0

>  <fr_oxime>  (67) 
0

>  <fr_para_hydroxylation>  (67) 
0

>  <fr_phenol>  (67) 
0

>  <fr_phenol_noOrthoHbond>  (67) 
0

>  <fr_phos_acid>  (67) 
0

>  <fr_phos_ester>  (67) 
0

>  <fr_piperdine>  (67) 
0

>  <fr_piperzine>  (67) 
1

>  <fr_priamide>  (67) 
0

>  <fr_prisulfonamd>  (67) 
0

>  <fr_pyridine>  (67) 
0

>  <fr_quatN>  (67) 
0

>  <fr_sulfide>  (67) 
0

>  <fr_sulfonamd>  (67) 
0

>  <fr_sulfone>  (67) 
0

>  <fr_term_acetylene>  (67) 
0

>  <fr_tetrazole>  (67) 
0

>  <fr_thiazole>  (67) 
0

>  <fr_thiocyan>  (67) 
0

>  <fr_thiophene>  (67) 
0

>  <fr_unbrch_alkane>  (67) 
0

>  <fr_urea>  (67) 
1

>  <NP_Likeness>  (67) 
-1.61785

$$$$
CHEMBL60254
     RDKit          3D

  0  0  0  0  0  0  0  0  0  0999 V3000
M  V30 BEGIN CTAB
M  V30 COUNTS 66 69 0 0 0
M  V30 BEGIN ATOM
M  V30 1 O 1.289651 3.910689 1.621275 0
M  V30 2 C 2.358811 3.632706 2.189612 0
M  V30 3 N 2.434534 2.274393 2.595353 0
M  V30 4 C 1.575231 1.133879 2.510911 0 CFG=2
M  V30 5 C 1.074066 0.587064 3.796578 0
M  V30 6 N 0.717806 -0.808179 3.592317 0
M  V30 7 C 1.768907 -1.725892 3.946626 0
M  V30 8 C 2.708135 -2.013354 2.819507 0
M  V30 9 C 3.190509 -0.760606 2.106849 0
M  V30 10 C 2.091696 0.077460 1.553205 0 CFG=1
M  V30 11 O 0.967439 -0.670006 1.155071 0
M  V30 12 C 0.469074 -0.702961 -0.119871 0
M  V30 13 O 1.128969 0.013679 -0.904442 0
M  V30 14 C -0.692560 -1.475108 -0.537353 0
M  V30 15 C -1.334214 -2.222084 0.403322 0
M  V30 16 C -2.452284 -2.982893 0.055242 0
M  V30 17 O -3.036054 -3.710286 1.086746 0
M  V30 18 C -2.925718 -2.994690 -1.234897 0
M  V30 19 C -4.124203 -3.708419 -1.579586 0
M  V30 20 O -4.789533 -3.814687 -0.482125 0
M  V30 21 C -4.830913 -4.316587 -2.641729 0
M  V30 22 C -6.217247 -4.287179 -2.533437 0
M  V30 23 O -6.914136 -3.682649 -1.465146 0
M  V30 24 C -7.095453 -4.849827 -3.464996 0
M  V30 25 C -6.496438 -5.459798 -4.538735 0
M  V30 26 C -5.148225 -5.541671 -4.729782 0
M  V30 27 C -4.364273 -4.962378 -3.760964 0
M  V30 28 C -2.917620 -5.210606 -3.907267 0
M  V30 29 O -1.862139 -5.030805 -3.256263 0
M  V30 30 O -2.343597 -5.805061 -5.007446 0
M  V30 31 C -2.204142 -2.195364 -2.134604 0
M  V30 32 O -2.579348 -2.104338 -3.481877 0
M  V30 33 C -1.098900 -1.427990 -1.849569 0
M  V30 34 C 3.489760 4.505893 2.471859 0
M  V30 35 C 4.677819 4.196552 3.104179 0
M  V30 36 C 5.639305 5.171272 3.279695 0
M  V30 37 C 5.422093 6.462420 2.825163 0
M  V30 38 O 6.489056 7.311902 3.083718 0
M  V30 39 C 4.250540 6.768865 2.201236 0
M  V30 40 C 3.279175 5.806831 2.017861 0
M  V30 41 H 3.244066 1.828297 3.089197 0
M  V30 42 H 0.670403 1.522650 1.983522 0
M  V30 43 H 1.746380 0.615470 4.648769 0
M  V30 44 H 0.130244 1.078028 4.165572 0
M  V30 45 H -0.195508 -1.070955 4.027313 0
M  V30 46 H 2.304246 -1.435226 4.856735 0
M  V30 47 H 1.250634 -2.700173 4.171129 0
M  V30 48 H 2.280275 -2.710661 2.060851 0
M  V30 49 H 3.627546 -2.486496 3.253225 0
M  V30 50 H 3.769886 -1.151577 1.231867 0
M  V30 51 H 3.886177 -0.168251 2.699404 0
M  V30 52 H 2.481982 0.615600 0.657875 0
M  V30 53 H -0.980124 -2.228587 1.419780 0
M  V30 54 H -3.543357 -3.254876 1.833834 0
M  V30 55 H -7.669012 -3.029837 -1.629873 0
M  V30 56 H -8.169831 -4.825018 -3.378403 0
M  V30 57 H -7.130454 -5.904643 -5.283004 0
M  V30 58 H -4.743033 -6.031543 -5.589053 0
M  V30 59 H -1.637707 -6.536345 -5.001350 0
M  V30 60 H -3.026899 -1.292620 -3.862708 0
M  V30 61 H -0.570292 -0.830316 -2.557422 0
M  V30 62 H 4.750435 3.158805 3.422324 0
M  V30 63 H 6.523298 4.812087 3.785616 0
M  V30 64 H 6.401848 8.102556 3.732799 0
M  V30 65 H 4.178968 7.803049 1.884498 0
M  V30 66 H 2.381034 6.156092 1.508510 0
M  V30 END ATOM
M  V30 BEGIN BOND
M  V30 1 2 1 2
M  V30 2 1 2 3
M  V30 3 1 3 4
M  V30 4 1 4 5
M  V30 5 1 5 6
M  V30 6 1 6 7
M  V30 7 1 7 8
M  V30 8 1 8 9
M  V30 9 1 9 10
M  V30 10 1 10 11
M  V30 11 1 11 12
M  V30 12 2 12 13
M  V30 13 1 12 14
M  V30 14 2 14 15
M  V30 15 1 15 16
M  V30 16 1 16 17
M  V30 17 2 16 18
M  V30 18 1 18 19
M  V30 19 2 19 20
M  V30 20 1 19 21
M  V30 21 2 21 22
M  V30 22 1 22 23
M  V30 23 1 22 24
M  V30 24 2 24 25
M  V30 25 1 25 26
M  V30 26 2 26 27
M  V30 27 1 27 28
M  V30 28 2 28 29
M  V30 29 1 28 30
M  V30 30 1 18 31
M  V30 31 1 31 32
M  V30 32 2 31 33
M  V30 33 1 2 34
M  V30 34 2 34 35
M  V30 35 1 35 36
M  V30 36 2 36 37
M  V30 37 1 37 38
M  V30 38 1 37 39
M  V30 39 2 39 40
M  V30 40 1 10 4
M  V30 41 1 33 14
M  V30 42 1 40 34
M  V30 43 1 27 21
M  V30 44 1 3 41
M  V30 45 1 4 42 CFG=3
M  V30 46 1 5 43
M  V30 47 1 5 44
M  V30 48 1 6 45
M  V30 49 1 7 46
M  V30 50 1 7 47
M  V30 51 1 8 48
M  V30 52 1 8 49
M  V30 53 1 9 50
M  V30 54 1 9 51
M  V30 55 1 10 52 CFG=3
M  V30 56 1 15 53
M  V30 57 1 17 54
M  V30 58 1 23 55
M  V30 59 1 24 56
M  V30 60 1 25 57
M  V30 61 1 26 58
M  V30 62 1 30 59
M  V30 63 1 32 60
M  V30 64 1 33 61
M  V30 65 1 35 62
M  V30 66 1 36 63
M  V30 67 1 38 64
M  V30 68 1 39 65
M  V30 69 1 40 66
M  V30 END BOND
M  V30 END CTAB
M  END
>  <Dataset>  (68) 
ChEMBL_PKA

>  <Ligand_Instance>  (68) 
nan

>  <PDB_ID>  (68) 
nan

>  <Standardized_SMILES>  (68) 
O=C(N[C@@H]1CNCCC[C@H]1OC(=O)c1cc(O)c(C(=O)c2c(O)cccc2C(=O)O)c(O)c1)c1ccc(O)cc1

>  <Name>  (68) 
BALANOL

>  <Pocket>  (68) 
nan

>  <ATP_Site>  (68) 
nan

>  <Peripheral>  (68) 
nan

>  <Num_H_Atoms_ProtBoundConf>  (68) 
nan

>  <Num_Resolved_Atoms>  (68) 
nan

>  <Num_Not_Resolved_Atoms>  (68) 
nan

>  <2D_Mol_H>  (68) 
<rdkit.Chem.rdchem.Mol object at 0x72a2391110e0>

>  <MW>  (68) 
550.52

>  <HBA>  (68) 
11

>  <HBD>  (68) 
7

>  <LogP>  (68) 
2.1456

>  <NRB>  (68) 
11

>  <TPSA>  (68) 
202.72

>  <Num_Heavy_Atoms>  (68) 
40

>  <Ro5>  (68) 
[False, False, False, True, False, False]

>  <Ro5_Fulfilled>  (68) 
False

>  <Ro3>  (68) 
[False, False, False, True]

>  <Ro3_Fulfilled>  (68) 
False

>  <Fsp3>  (68) 
0.214286

>  <Fsp3_0.42>  (68) 
False

>  <Fsp3_0.45>  (68) 
False

>  <Stereogenic_Carbons>  (68) 
2

>  <C_Atoms>  (68) 
28

>  <FCStereo>  (68) 
0.071429

>  <SPS>  (68) 
676

>  <nSPS>  (68) 
16.9

>  <PBF>  (68) 
1.154469

>  <PBF_0.6>  (68) 
True

>  <nPBF>  (68) 
0.028862

>  <nPBF_0.016>  (68) 
True

>  <PMI1>  (68) 
2251.973613

>  <PMI2>  (68) 
18441.492962

>  <PMI3>  (68) 
18870.301189

>  <NPR1>  (68) 
0.11934

>  <NPR2>  (68) 
0.977276

>  <Sum_NPR>  (68) 
1.096616

>  <Sum_NPR_1.07>  (68) 
True

>  <Sum_NPR_1.2>  (68) 
False

>  <MaxAbsEStateIndex>  (68) 
13.031054

>  <MaxEStateIndex>  (68) 
13.031054

>  <MinAbsEStateIndex>  (68) 
0.00149

>  <MinEStateIndex>  (68) 
-1.510764

>  <qed>  (68) 
0.167716

>  <MolWt>  (68) 
550.52

>  <HeavyAtomMolWt>  (68) 
524.312

>  <ExactMolWt>  (68) 
550.158745

>  <NumValenceElectrons>  (68) 
208

>  <NumRadicalElectrons>  (68) 
0

>  <MaxPartialCharge>  (68) 
0.338251

>  <MinPartialCharge>  (68) 
-0.507966

>  <MaxAbsPartialCharge>  (68) 
0.507966

>  <MinAbsPartialCharge>  (68) 
0.338251

>  <FpDensityMorgan1>  (68) 
0.85

>  <FpDensityMorgan2>  (68) 
1.525

>  <FpDensityMorgan3>  (68) 
2.175

>  <BCUT2D_MWHI>  (68) 
16.544983

>  <BCUT2D_MWLOW>  (68) 
9.948109

>  <BCUT2D_CHGHI>  (68) 
2.311125

>  <BCUT2D_CHGLO>  (68) 
-2.258957

>  <BCUT2D_LOGPHI>  (68) 
2.3463

>  <BCUT2D_LOGPLOW>  (68) 
-2.488784

>  <BCUT2D_MRHI>  (68) 
6.18166

>  <BCUT2D_MRLOW>  (68) 
0.019074

>  <AvgIpc>  (68) 
3.12458

>  <BalabanJ>  (68) 
1.553985

>  <BertzCT>  (68) 
1445.407148

>  <Chi0>  (68) 
28.973963

>  <Chi0n>  (68) 
20.95659

>  <Chi0v>  (68) 
20.95659

>  <Chi1>  (68) 
19.061458

>  <Chi1n>  (68) 
12.240053

>  <Chi1v>  (68) 
12.240053

>  <Chi2n>  (68) 
9.140415

>  <Chi2v>  (68) 
9.140415

>  <Chi3n>  (68) 
6.419048

>  <Chi3v>  (68) 
6.419048

>  <Chi4n>  (68) 
4.417807

>  <Chi4v>  (68) 
4.417807

>  <HallKierAlpha>  (68) 
-5.1

>  <Ipc>  (68) 
610350277.389736

>  <Kappa1>  (68) 
27.921992

>  <Kappa2>  (68) 
11.742698

>  <Kappa3>  (68) 
5.967791

>  <LabuteASA>  (68) 
227.019708

>  <PEOE_VSA1>  (68) 
40.903077

>  <PEOE_VSA10>  (68) 
34.665465

>  <PEOE_VSA11>  (68) 
0.0

>  <PEOE_VSA12>  (68) 
5.783245

>  <PEOE_VSA13>  (68) 
5.90718

>  <PEOE_VSA14>  (68) 
11.938611

>  <PEOE_VSA2>  (68) 
9.589074

>  <PEOE_VSA3>  (68) 
9.589074

>  <PEOE_VSA4>  (68) 
0.0

>  <PEOE_VSA5>  (68) 
0.0

>  <PEOE_VSA6>  (68) 
6.066367

>  <PEOE_VSA7>  (68) 
67.917336

>  <PEOE_VSA8>  (68) 
12.108208

>  <PEOE_VSA9>  (68) 
22.732195

>  <SMR_VSA1>  (68) 
49.447649

>  <SMR_VSA10>  (68) 
23.629035

>  <SMR_VSA2>  (68) 
0.0

>  <SMR_VSA3>  (68) 
10.633577

>  <SMR_VSA4>  (68) 
0.0

>  <SMR_VSA5>  (68) 
24.98745

>  <SMR_VSA6>  (68) 
13.089513

>  <SMR_VSA7>  (68) 
82.414561

>  <SMR_VSA8>  (68) 
0.0

>  <SMR_VSA9>  (68) 
22.998047

>  <SlogP_VSA1>  (68) 
10.633577

>  <SlogP_VSA10>  (68) 
0.0

>  <SlogP_VSA11>  (68) 
22.998047

>  <SlogP_VSA12>  (68) 
0.0

>  <SlogP_VSA2>  (68) 
74.396992

>  <SlogP_VSA3>  (68) 
4.736863

>  <SlogP_VSA4>  (68) 
0.0

>  <SlogP_VSA5>  (68) 
59.837049

>  <SlogP_VSA6>  (68) 
54.597304

>  <SlogP_VSA7>  (68) 
0.0

>  <SlogP_VSA8>  (68) 
0.0

>  <SlogP_VSA9>  (68) 
0.0

>  <EState_VSA1>  (68) 
69.713732

>  <EState_VSA10>  (68) 
44.710786

>  <EState_VSA11>  (68) 
0.0

>  <EState_VSA2>  (68) 
23.421171

>  <EState_VSA3>  (68) 
19.3864

>  <EState_VSA4>  (68) 
24.265468

>  <EState_VSA5>  (68) 
30.331835

>  <EState_VSA6>  (68) 
0.0

>  <EState_VSA7>  (68) 
0.0

>  <EState_VSA8>  (68) 
10.633577

>  <EState_VSA9>  (68) 
4.736863

>  <VSA_EState1>  (68) 
5.632036

>  <VSA_EState10>  (68) 
0.0

>  <VSA_EState2>  (68) 
50.295779

>  <VSA_EState3>  (68) 
55.972219

>  <VSA_EState4>  (68) 
-1.914036

>  <VSA_EState5>  (68) 
-6.42011

>  <VSA_EState6>  (68) 
10.134668

>  <VSA_EState7>  (68) 
0.22914

>  <VSA_EState8>  (68) 
0.903638

>  <VSA_EState9>  (68) 
0.0

>  <FractionCSP3>  (68) 
0.214286

>  <HeavyAtomCount>  (68) 
40

>  <NHOHCount>  (68) 
7

>  <NOCount>  (68) 
12

>  <NumAliphaticCarbocycles>  (68) 
0

>  <NumAliphaticHeterocycles>  (68) 
1

>  <NumAliphaticRings>  (68) 
1

>  <NumAromaticCarbocycles>  (68) 
3

>  <NumAromaticHeterocycles>  (68) 
0

>  <NumAromaticRings>  (68) 
3

>  <NumHAcceptors>  (68) 
10

>  <NumHDonors>  (68) 
7

>  <NumHeteroatoms>  (68) 
12

>  <NumRotatableBonds>  (68) 
7

>  <NumSaturatedCarbocycles>  (68) 
0

>  <NumSaturatedHeterocycles>  (68) 
1

>  <NumSaturatedRings>  (68) 
1

>  <RingCount>  (68) 
4

>  <MolLogP>  (68) 
2.1456

>  <MolMR>  (68) 
138.9384

>  <fr_Al_COO>  (68) 
0

>  <fr_Al_OH>  (68) 
0

>  <fr_Al_OH_noTert>  (68) 
0

>  <fr_ArN>  (68) 
0

>  <fr_Ar_COO>  (68) 
1

>  <fr_Ar_N>  (68) 
0

>  <fr_Ar_NH>  (68) 
0

>  <fr_Ar_OH>  (68) 
4

>  <fr_COO>  (68) 
1

>  <fr_COO2>  (68) 
1

>  <fr_C_O>  (68) 
4

>  <fr_C_O_noCOO>  (68) 
3

>  <fr_C_S>  (68) 
0

>  <fr_HOCCN>  (68) 
0

>  <fr_Imine>  (68) 
0

>  <fr_NH0>  (68) 
0

>  <fr_NH1>  (68) 
2

>  <fr_NH2>  (68) 
0

>  <fr_N_O>  (68) 
0

>  <fr_Ndealkylation1>  (68) 
0

>  <fr_Ndealkylation2>  (68) 
0

>  <fr_Nhpyrrole>  (68) 
0

>  <fr_SH>  (68) 
0

>  <fr_aldehyde>  (68) 
0

>  <fr_alkyl_carbamate>  (68) 
0

>  <fr_alkyl_halide>  (68) 
0

>  <fr_allylic_oxid>  (68) 
0

>  <fr_amide>  (68) 
1

>  <fr_amidine>  (68) 
0

>  <fr_aniline>  (68) 
0

>  <fr_aryl_methyl>  (68) 
0

>  <fr_azide>  (68) 
0

>  <fr_azo>  (68) 
0

>  <fr_barbitur>  (68) 
0

>  <fr_benzene>  (68) 
3

>  <fr_benzodiazepine>  (68) 
0

>  <fr_bicyclic>  (68) 
0

>  <fr_diazo>  (68) 
0

>  <fr_dihydropyridine>  (68) 
0

>  <fr_epoxide>  (68) 
0

>  <fr_ester>  (68) 
1

>  <fr_ether>  (68) 
1

>  <fr_furan>  (68) 
0

>  <fr_guanido>  (68) 
0

>  <fr_halogen>  (68) 
0

>  <fr_hdrzine>  (68) 
0

>  <fr_hdrzone>  (68) 
0

>  <fr_imidazole>  (68) 
0

>  <fr_imide>  (68) 
0

>  <fr_isocyan>  (68) 
0

>  <fr_isothiocyan>  (68) 
0

>  <fr_ketone>  (68) 
1

>  <fr_ketone_Topliss>  (68) 
0

>  <fr_lactam>  (68) 
0

>  <fr_lactone>  (68) 
0

>  <fr_methoxy>  (68) 
0

>  <fr_morpholine>  (68) 
0

>  <fr_nitrile>  (68) 
0

>  <fr_nitro>  (68) 
0

>  <fr_nitro_arom>  (68) 
0

>  <fr_nitro_arom_nonortho>  (68) 
0

>  <fr_nitroso>  (68) 
0

>  <fr_oxazole>  (68) 
0

>  <fr_oxime>  (68) 
0

>  <fr_para_hydroxylation>  (68) 
0

>  <fr_phenol>  (68) 
4

>  <fr_phenol_noOrthoHbond>  (68) 
4

>  <fr_phos_acid>  (68) 
0

>  <fr_phos_ester>  (68) 
0

>  <fr_piperdine>  (68) 
0

>  <fr_piperzine>  (68) 
0

>  <fr_priamide>  (68) 
0

>  <fr_prisulfonamd>  (68) 
0

>  <fr_pyridine>  (68) 
0

>  <fr_quatN>  (68) 
0

>  <fr_sulfide>  (68) 
0

>  <fr_sulfonamd>  (68) 
0

>  <fr_sulfone>  (68) 
0

>  <fr_term_acetylene>  (68) 
0

>  <fr_tetrazole>  (68) 
0

>  <fr_thiazole>  (68) 
0

>  <fr_thiocyan>  (68) 
0

>  <fr_thiophene>  (68) 
0

>  <fr_unbrch_alkane>  (68) 
0

>  <fr_urea>  (68) 
0

>  <NP_Likeness>  (68) 
0.5442

$$$$
CHEMBL608533
     RDKit          3D

  0  0  0  0  0  0  0  0  0  0999 V3000
M  V30 BEGIN CTAB
M  V30 COUNTS 73 81 0 0 0
M  V30 BEGIN ATOM
M  V30 1 C 2.778830 0.726575 2.813078 0
M  V30 2 O 2.026058 0.364794 1.716622 0
M  V30 3 C 0.998187 1.211210 1.395933 0 CFG=2
M  V30 4 C -0.324786 0.579550 1.771156 0 CFG=2
M  V30 5 N -0.268758 -0.817645 1.439798 0
M  V30 6 C -0.238433 -1.878479 0.462894 0
M  V30 7 C -0.231843 -1.282248 2.816834 0
M  V30 8 O -0.236830 -0.892198 4.013667 0
M  V30 9 C -0.160207 -2.711330 3.197495 0
M  V30 10 C 1.146067 -3.163497 2.982857 0
M  V30 11 C 1.499572 -4.485685 3.261843 0
M  V30 12 C 0.536649 -5.338427 3.753218 0
M  V30 13 C -0.737032 -4.894103 3.961280 0
M  V30 14 C -1.117008 -3.595051 3.695612 0
M  V30 15 C -1.498650 1.341544 1.314493 0
M  V30 16 C -1.268924 2.393412 0.263272 0 CFG=1
M  V30 17 O -0.041836 2.701642 -0.070348 0
M  V30 18 C 1.037859 1.822979 0.036171 0 CFG=1
M  V30 19 C 2.162337 2.827554 0.124464 0
M  V30 20 N 1.071846 0.910042 -1.063270 0
M  V30 21 C 2.042190 0.203496 -1.638609 0
M  V30 22 C 3.361766 0.075387 -1.279232 0
M  V30 23 C 4.282523 -0.692437 -1.952974 0
M  V30 24 C 3.879452 -1.404080 -3.085160 0
M  V30 25 C 2.555646 -1.268275 -3.434867 0
M  V30 26 C 1.645610 -0.503169 -2.761985 0
M  V30 27 C 0.306086 -0.215173 -2.897625 0
M  V30 28 C -0.629335 -0.609578 -3.829395 0
M  V30 29 C -1.928976 -0.166345 -3.755947 0
M  V30 30 C -2.274453 0.670027 -2.739175 0
M  V30 31 C -3.467702 1.237739 -2.404537 0
M  V30 32 C -4.755982 1.302329 -2.838070 0
M  V30 33 C -5.793067 2.000390 -2.260623 0
M  V30 34 C -5.485387 2.722000 -1.099755 0
M  V30 35 C -4.177503 2.692674 -0.607406 0
M  V30 36 C -3.209187 1.961415 -1.261021 0
M  V30 37 N -1.922511 1.825720 -0.939088 0
M  V30 38 C -1.309757 1.034636 -1.836303 0
M  V30 39 C 0.004773 0.617215 -1.877497 0
M  V30 40 C -2.656821 -0.726865 -4.841650 0
M  V30 41 O -3.818269 -0.683626 -5.266695 0
M  V30 42 N -1.773026 -1.536760 -5.601086 0
M  V30 43 C -0.459507 -1.508492 -5.004122 0
M  V30 44 H 3.285735 1.693105 2.767436 0
M  V30 45 H 3.575490 -0.032682 2.967784 0
M  V30 46 H 2.171884 0.665957 3.765209 0
M  V30 47 H 1.085643 2.071064 2.137052 0
M  V30 48 H -0.323074 0.595145 2.901841 0
M  V30 49 H 0.681967 -1.883476 -0.171243 0
M  V30 50 H -0.255705 -2.881865 0.930012 0
M  V30 51 H -1.165740 -1.866965 -0.176907 0
M  V30 52 H 1.997054 -2.619352 2.607275 0
M  V30 53 H 2.468563 -4.922011 3.130476 0
M  V30 54 H 0.708452 -6.378056 3.999722 0
M  V30 55 H -1.585107 -5.479711 4.347202 0
M  V30 56 H -2.053966 -3.068842 3.793124 0
M  V30 57 H -2.003131 1.888416 2.169094 0
M  V30 58 H -2.281307 0.598092 1.030574 0
M  V30 59 H -1.835803 3.326503 0.459714 0
M  V30 60 H 2.233663 3.507572 -0.738303 0
M  V30 61 H 1.791985 3.566810 0.918861 0
M  V30 62 H 3.080773 2.517958 0.591577 0
M  V30 63 H 3.707159 0.603057 -0.410521 0
M  V30 64 H 5.326154 -0.795333 -1.671576 0
M  V30 65 H 4.535664 -2.030981 -3.670865 0
M  V30 66 H 2.158449 -1.793995 -4.310026 0
M  V30 67 H -5.022405 0.767244 -3.714646 0
M  V30 68 H -6.792913 1.997355 -2.674062 0
M  V30 69 H -6.256691 3.290930 -0.597090 0
M  V30 70 H -3.936613 3.247467 0.287636 0
M  V30 71 H -1.877368 -2.118523 -6.457086 0
M  V30 72 H -0.093305 -2.510437 -4.723145 0
M  V30 73 H 0.221341 -1.008308 -5.727931 0
M  V30 END ATOM
M  V30 BEGIN BOND
M  V30 1 1 1 2
M  V30 2 1 2 3
M  V30 3 1 3 4
M  V30 4 1 4 5
M  V30 5 1 5 6
M  V30 6 1 5 7
M  V30 7 2 7 8
M  V30 8 1 7 9
M  V30 9 2 9 10
M  V30 10 1 10 11
M  V30 11 2 11 12
M  V30 12 1 12 13
M  V30 13 2 13 14
M  V30 14 1 4 15
M  V30 15 1 15 16
M  V30 16 1 16 17
M  V30 17 1 17 18
M  V30 18 1 18 19 CFG=1
M  V30 19 1 18 20
M  V30 20 1 20 21
M  V30 21 2 21 22
M  V30 22 1 22 23
M  V30 23 2 23 24
M  V30 24 1 24 25
M  V30 25 2 25 26
M  V30 26 1 26 27
M  V30 27 2 27 28
M  V30 28 1 28 29
M  V30 29 2 29 30
M  V30 30 1 30 31
M  V30 31 2 31 32
M  V30 32 1 32 33
M  V30 33 2 33 34
M  V30 34 1 34 35
M  V30 35 2 35 36
M  V30 36 1 36 37
M  V30 37 1 37 38
M  V30 38 2 38 39
M  V30 39 1 29 40
M  V30 40 2 40 41
M  V30 41 1 40 42
M  V30 42 1 42 43
M  V30 43 1 18 3
M  V30 44 1 39 20
M  V30 45 1 14 9
M  V30 46 1 37 16
M  V30 47 1 26 21
M  V30 48 1 39 27
M  V30 49 1 43 28
M  V30 50 1 38 30
M  V30 51 1 36 31
M  V30 52 1 1 44
M  V30 53 1 1 45
M  V30 54 1 1 46
M  V30 55 1 3 47 CFG=1
M  V30 56 1 4 48 CFG=1
M  V30 57 1 6 49
M  V30 58 1 6 50
M  V30 59 1 6 51
M  V30 60 1 10 52
M  V30 61 1 11 53
M  V30 62 1 12 54
M  V30 63 1 13 55
M  V30 64 1 14 56
M  V30 65 1 15 57
M  V30 66 1 15 58
M  V30 67 1 16 59 CFG=1
M  V30 68 1 19 60
M  V30 69 1 19 61
M  V30 70 1 19 62
M  V30 71 1 22 63
M  V30 72 1 23 64
M  V30 73 1 24 65
M  V30 74 1 25 66
M  V30 75 1 32 67
M  V30 76 1 33 68
M  V30 77 1 34 69
M  V30 78 1 35 70
M  V30 79 1 42 71
M  V30 80 1 43 72
M  V30 81 1 43 73
M  V30 END BOND
M  V30 END CTAB
M  END
>  <Dataset>  (69) 
ChEMBL_PKA

>  <Ligand_Instance>  (69) 
nan

>  <PDB_ID>  (69) 
nan

>  <Standardized_SMILES>  (69) 
CO[C@@H]1[C@H](N(C)C(=O)c2ccccc2)C[C@H]2O[C@]1(C)n1c3ccccc3c3c4c(c5c6ccccc6n2c5c31)C(=O)NC4

>  <Name>  (69) 
MIDOSTAURIN

>  <Pocket>  (69) 
nan

>  <ATP_Site>  (69) 
nan

>  <Peripheral>  (69) 
nan

>  <Num_H_Atoms_ProtBoundConf>  (69) 
nan

>  <Num_Resolved_Atoms>  (69) 
nan

>  <Num_Not_Resolved_Atoms>  (69) 
nan

>  <2D_Mol_H>  (69) 
<rdkit.Chem.rdchem.Mol object at 0x72a2391111c0>

>  <MW>  (69) 
570.649

>  <HBA>  (69) 
6

>  <HBD>  (69) 
1

>  <LogP>  (69) 
5.9068

>  <NRB>  (69) 
6

>  <TPSA>  (69) 
77.73

>  <Num_Heavy_Atoms>  (69) 
43

>  <Ro5>  (69) 
[False, True, True, False, True, True]

>  <Ro5_Fulfilled>  (69) 
False

>  <Ro3>  (69) 
[False, False, True, False]

>  <Ro3_Fulfilled>  (69) 
False

>  <Fsp3>  (69) 
0.257143

>  <Fsp3_0.42>  (69) 
False

>  <Fsp3_0.45>  (69) 
False

>  <Stereogenic_Carbons>  (69) 
4

>  <C_Atoms>  (69) 
35

>  <FCStereo>  (69) 
0.114286

>  <SPS>  (69) 
1039

>  <nSPS>  (69) 
24.162791

>  <PBF>  (69) 
1.769831

>  <PBF_0.6>  (69) 
True

>  <nPBF>  (69) 
0.041159

>  <nPBF_0.016>  (69) 
True

>  <PMI1>  (69) 
4672.198918

>  <PMI2>  (69) 
7389.607339

>  <PMI3>  (69) 
8272.097224

>  <NPR1>  (69) 
0.564814

>  <NPR2>  (69) 
0.893317

>  <Sum_NPR>  (69) 
1.458132

>  <Sum_NPR_1.07>  (69) 
True

>  <Sum_NPR_1.2>  (69) 
True

>  <MaxAbsEStateIndex>  (69) 
13.882905

>  <MaxEStateIndex>  (69) 
13.882905

>  <MinAbsEStateIndex>  (69) 
0.044612

>  <MinEStateIndex>  (69) 
-0.979914

>  <qed>  (69) 
0.287218

>  <MolWt>  (69) 
570.649

>  <HeavyAtomMolWt>  (69) 
540.409

>  <ExactMolWt>  (69) 
570.226705

>  <NumValenceElectrons>  (69) 
214

>  <NumRadicalElectrons>  (69) 
0

>  <MaxPartialCharge>  (69) 
0.253437

>  <MinPartialCharge>  (69) 
-0.374262

>  <MaxAbsPartialCharge>  (69) 
0.374262

>  <MinAbsPartialCharge>  (69) 
0.253437

>  <FpDensityMorgan1>  (69) 
0.953488

>  <FpDensityMorgan2>  (69) 
1.627907

>  <FpDensityMorgan3>  (69) 
2.372093

>  <BCUT2D_MWHI>  (69) 
16.577674

>  <BCUT2D_MWLOW>  (69) 
9.909697

>  <BCUT2D_CHGHI>  (69) 
2.545682

>  <BCUT2D_CHGLO>  (69) 
-2.501825

>  <BCUT2D_LOGPHI>  (69) 
2.53781

>  <BCUT2D_LOGPLOW>  (69) 
-2.609526

>  <BCUT2D_MRHI>  (69) 
6.305435

>  <BCUT2D_MRLOW>  (69) 
-0.263854

>  <AvgIpc>  (69) 
3.678107

>  <BalabanJ>  (69) 
1.425201

>  <BertzCT>  (69) 
2180.823323

>  <Chi0>  (69) 
29.197577

>  <Chi0n>  (69) 
24.126452

>  <Chi0v>  (69) 
24.126452

>  <Chi1>  (69) 
20.935707

>  <Chi1n>  (69) 
14.758273

>  <Chi1v>  (69) 
14.758273

>  <Chi2n>  (69) 
12.091736

>  <Chi2v>  (69) 
12.091736

>  <Chi3n>  (69) 
10.035579

>  <Chi3v>  (69) 
10.035579

>  <Chi4n>  (69) 
8.327087

>  <Chi4v>  (69) 
8.327087

>  <HallKierAlpha>  (69) 
-4.66

>  <Ipc>  (69) 
16727238355.508312

>  <Kappa1>  (69) 
24.893656

>  <Kappa2>  (69) 
8.461354

>  <Kappa3>  (69) 
2.968438

>  <LabuteASA>  (69) 
246.91012

>  <PEOE_VSA1>  (69) 
28.824624

>  <PEOE_VSA10>  (69) 
12.331868

>  <PEOE_VSA11>  (69) 
5.724986

>  <PEOE_VSA12>  (69) 
0.0

>  <PEOE_VSA13>  (69) 
11.814359

>  <PEOE_VSA14>  (69) 
0.0

>  <PEOE_VSA2>  (69) 
9.589074

>  <PEOE_VSA3>  (69) 
0.0

>  <PEOE_VSA4>  (69) 
0.0

>  <PEOE_VSA5>  (69) 
0.0

>  <PEOE_VSA6>  (69) 
54.597304

>  <PEOE_VSA7>  (69) 
36.752657

>  <PEOE_VSA8>  (69) 
54.231396

>  <PEOE_VSA9>  (69) 
33.672095

>  <SMR_VSA1>  (69) 
19.0628

>  <SMR_VSA10>  (69) 
55.426059

>  <SMR_VSA2>  (69) 
0.0

>  <SMR_VSA3>  (69) 
19.350898

>  <SMR_VSA4>  (69) 
0.0

>  <SMR_VSA5>  (69) 
43.988009

>  <SMR_VSA6>  (69) 
14.15747

>  <SMR_VSA7>  (69) 
95.553126

>  <SMR_VSA8>  (69) 
0.0

>  <SMR_VSA9>  (69) 
0.0

>  <SlogP_VSA1>  (69) 
5.316789

>  <SlogP_VSA10>  (69) 
0.0

>  <SlogP_VSA11>  (69) 
0.0

>  <SlogP_VSA12>  (69) 
0.0

>  <SlogP_VSA2>  (69) 
52.151745

>  <SlogP_VSA3>  (69) 
21.743468

>  <SlogP_VSA4>  (69) 
0.0

>  <SlogP_VSA5>  (69) 
45.851889

>  <SlogP_VSA6>  (69) 
78.862772

>  <SlogP_VSA7>  (69) 
0.0

>  <SlogP_VSA8>  (69) 
43.6117

>  <SlogP_VSA9>  (69) 
0.0

>  <EState_VSA1>  (69) 
18.056853

>  <EState_VSA10>  (69) 
9.589074

>  <EState_VSA11>  (69) 
0.0

>  <EState_VSA2>  (69) 
17.8562

>  <EState_VSA3>  (69) 
18.52903

>  <EState_VSA4>  (69) 
54.738603

>  <EState_VSA5>  (69) 
0.0

>  <EState_VSA6>  (69) 
7.109798

>  <EState_VSA7>  (69) 
66.544885

>  <EState_VSA8>  (69) 
45.640193

>  <EState_VSA9>  (69) 
9.473726

>  <VSA_EState1>  (69) 
18.146568

>  <VSA_EState10>  (69) 
0.0

>  <VSA_EState2>  (69) 
29.24937

>  <VSA_EState3>  (69) 
7.239329

>  <VSA_EState4>  (69) 
5.456172

>  <VSA_EState5>  (69) 
-0.106574

>  <VSA_EState6>  (69) 
25.685522

>  <VSA_EState7>  (69) 
-0.385781

>  <VSA_EState8>  (69) 
2.559425

>  <VSA_EState9>  (69) 
3.572636

>  <FractionCSP3>  (69) 
0.257143

>  <HeavyAtomCount>  (69) 
43

>  <NHOHCount>  (69) 
1

>  <NOCount>  (69) 
8

>  <NumAliphaticCarbocycles>  (69) 
0

>  <NumAliphaticHeterocycles>  (69) 
3

>  <NumAliphaticRings>  (69) 
3

>  <NumAromaticCarbocycles>  (69) 
4

>  <NumAromaticHeterocycles>  (69) 
2

>  <NumAromaticRings>  (69) 
6

>  <NumHAcceptors>  (69) 
6

>  <NumHDonors>  (69) 
1

>  <NumHeteroatoms>  (69) 
8

>  <NumRotatableBonds>  (69) 
3

>  <NumSaturatedCarbocycles>  (69) 
0

>  <NumSaturatedHeterocycles>  (69) 
1

>  <NumSaturatedRings>  (69) 
1

>  <RingCount>  (69) 
9

>  <MolLogP>  (69) 
5.9068

>  <MolMR>  (69) 
165.1237

>  <fr_Al_COO>  (69) 
0

>  <fr_Al_OH>  (69) 
0

>  <fr_Al_OH_noTert>  (69) 
0

>  <fr_ArN>  (69) 
0

>  <fr_Ar_COO>  (69) 
0

>  <fr_Ar_N>  (69) 
2

>  <fr_Ar_NH>  (69) 
0

>  <fr_Ar_OH>  (69) 
0

>  <fr_COO>  (69) 
0

>  <fr_COO2>  (69) 
0

>  <fr_C_O>  (69) 
2

>  <fr_C_O_noCOO>  (69) 
2

>  <fr_C_S>  (69) 
0

>  <fr_HOCCN>  (69) 
0

>  <fr_Imine>  (69) 
0

>  <fr_NH0>  (69) 
3

>  <fr_NH1>  (69) 
1

>  <fr_NH2>  (69) 
0

>  <fr_N_O>  (69) 
0

>  <fr_Ndealkylation1>  (69) 
1

>  <fr_Ndealkylation2>  (69) 
0

>  <fr_Nhpyrrole>  (69) 
0

>  <fr_SH>  (69) 
0

>  <fr_aldehyde>  (69) 
0

>  <fr_alkyl_carbamate>  (69) 
0

>  <fr_alkyl_halide>  (69) 
0

>  <fr_allylic_oxid>  (69) 
0

>  <fr_amide>  (69) 
2

>  <fr_amidine>  (69) 
0

>  <fr_aniline>  (69) 
0

>  <fr_aryl_methyl>  (69) 
0

>  <fr_azide>  (69) 
0

>  <fr_azo>  (69) 
0

>  <fr_barbitur>  (69) 
0

>  <fr_benzene>  (69) 
4

>  <fr_benzodiazepine>  (69) 
0

>  <fr_bicyclic>  (69) 
13

>  <fr_diazo>  (69) 
0

>  <fr_dihydropyridine>  (69) 
0

>  <fr_epoxide>  (69) 
0

>  <fr_ester>  (69) 
0

>  <fr_ether>  (69) 
2

>  <fr_furan>  (69) 
0

>  <fr_guanido>  (69) 
0

>  <fr_halogen>  (69) 
0

>  <fr_hdrzine>  (69) 
0

>  <fr_hdrzone>  (69) 
0

>  <fr_imidazole>  (69) 
0

>  <fr_imide>  (69) 
0

>  <fr_isocyan>  (69) 
0

>  <fr_isothiocyan>  (69) 
0

>  <fr_ketone>  (69) 
0

>  <fr_ketone_Topliss>  (69) 
0

>  <fr_lactam>  (69) 
0

>  <fr_lactone>  (69) 
0

>  <fr_methoxy>  (69) 
1

>  <fr_morpholine>  (69) 
0

>  <fr_nitrile>  (69) 
0

>  <fr_nitro>  (69) 
0

>  <fr_nitro_arom>  (69) 
0

>  <fr_nitro_arom_nonortho>  (69) 
0

>  <fr_nitroso>  (69) 
0

>  <fr_oxazole>  (69) 
0

>  <fr_oxime>  (69) 
0

>  <fr_para_hydroxylation>  (69) 
2

>  <fr_phenol>  (69) 
0

>  <fr_phenol_noOrthoHbond>  (69) 
0

>  <fr_phos_acid>  (69) 
0

>  <fr_phos_ester>  (69) 
0

>  <fr_piperdine>  (69) 
0

>  <fr_piperzine>  (69) 
0

>  <fr_priamide>  (69) 
0

>  <fr_prisulfonamd>  (69) 
0

>  <fr_pyridine>  (69) 
0

>  <fr_quatN>  (69) 
0

>  <fr_sulfide>  (69) 
0

>  <fr_sulfonamd>  (69) 
0

>  <fr_sulfone>  (69) 
0

>  <fr_term_acetylene>  (69) 
0

>  <fr_tetrazole>  (69) 
0

>  <fr_thiazole>  (69) 
0

>  <fr_thiocyan>  (69) 
0

>  <fr_thiophene>  (69) 
0

>  <fr_unbrch_alkane>  (69) 
0

>  <fr_urea>  (69) 
0

>  <NP_Likeness>  (69) 
0.662034

$$$$
CHEMBL67166
     RDKit          3D

  0  0  0  0  0  0  0  0  0  0999 V3000
M  V30 BEGIN CTAB
M  V30 COUNTS 58 57 0 0 0
M  V30 BEGIN ATOM
M  V30 1 C -0.812194 -2.090082 3.648781 0
M  V30 2 C -0.953453 -3.142915 2.605333 0
M  V30 3 C 0.255138 -3.919100 2.249514 0
M  V30 4 C 1.358642 -3.157459 1.639908 0
M  V30 5 C 1.970207 -2.029829 2.405768 0
M  V30 6 C 3.136115 -1.512347 1.519938 0
M  V30 7 C 3.830797 -0.365683 2.096257 0
M  V30 8 C 3.225811 0.971981 2.226428 0
M  V30 9 C 2.944259 1.765041 1.028658 0
M  V30 10 C 2.019401 1.485358 -0.039086 0
M  V30 11 C 0.564149 1.479577 0.110912 0
M  V30 12 C -0.153387 0.609461 1.027456 0
M  V30 13 C -1.657484 0.899570 0.912273 0
M  V30 14 C -2.057151 0.613780 -0.486144 0
M  V30 15 C -2.990819 -0.330281 -0.727773 0
M  V30 16 C -3.590235 -0.837777 -1.965453 0 CFG=1
M  V30 17 O -4.883172 -0.314274 -2.178247 0
M  V30 18 C -2.823882 -0.591855 -3.220727 0 CFG=1
M  V30 19 N -2.687768 0.782108 -3.604584 0
M  V30 20 C -1.489463 -1.289849 -3.290553 0
M  V30 21 O -1.609718 -2.637752 -2.916080 0
M  V30 22 H -1.636365 -2.253152 4.413861 0
M  V30 23 H -0.907934 -1.052899 3.278922 0
M  V30 24 H 0.113457 -2.276941 4.231978 0
M  V30 25 H -1.781548 -3.840339 2.924284 0
M  V30 26 H -1.315678 -2.657859 1.655855 0
M  V30 27 H 0.607107 -4.564127 3.109690 0
M  V30 28 H -0.094679 -4.700174 1.495806 0
M  V30 29 H 1.064559 -2.790584 0.602704 0
M  V30 30 H 2.211690 -3.868217 1.377748 0
M  V30 31 H 1.280748 -1.219735 2.542929 0
M  V30 32 H 2.431031 -2.392452 3.357998 0
M  V30 33 H 3.841575 -2.400536 1.457829 0
M  V30 34 H 2.697612 -1.442521 0.532465 0
M  V30 35 H 4.856893 -0.274163 1.618921 0
M  V30 36 H 4.126481 -0.691604 3.159965 0
M  V30 37 H 2.358909 0.927653 2.953437 0
M  V30 38 H 3.970163 1.585912 2.838308 0
M  V30 39 H 3.985059 1.881525 0.518452 0
M  V30 40 H 2.847038 2.855480 1.407323 0
M  V30 41 H 2.214726 2.291719 -0.848770 0
M  V30 42 H 2.406692 0.578277 -0.617251 0
M  V30 43 H 0.142256 1.280997 -0.934891 0
M  V30 44 H 0.163953 2.538519 0.284725 0
M  V30 45 H 0.092512 0.751930 2.103152 0
M  V30 46 H -0.110712 -0.475990 0.816521 0
M  V30 47 H -1.871761 1.951894 1.167222 0
M  V30 48 H -2.144246 0.176094 1.580684 0
M  V30 49 H -1.759501 1.018791 -1.441408 0
M  V30 50 H -3.406962 -0.838909 0.166898 0
M  V30 51 H -3.733822 -1.952643 -1.903546 0
M  V30 52 H -5.385530 -0.410809 -1.352867 0
M  V30 53 H -3.436804 -1.070191 -4.046673 0
M  V30 54 H -3.459479 1.105285 -4.255927 0
M  V30 55 H -1.791797 0.867366 -4.171924 0
M  V30 56 H -1.134934 -1.317301 -4.341277 0
M  V30 57 H -0.787526 -0.828269 -2.602489 0
M  V30 58 H -2.504371 -2.917554 -3.235970 0
M  V30 END ATOM
M  V30 BEGIN BOND
M  V30 1 1 1 2
M  V30 2 1 2 3
M  V30 3 1 3 4
M  V30 4 1 4 5
M  V30 5 1 5 6
M  V30 6 1 6 7
M  V30 7 1 7 8
M  V30 8 1 8 9
M  V30 9 1 9 10
M  V30 10 1 10 11
M  V30 11 1 11 12
M  V30 12 1 12 13
M  V30 13 1 13 14
M  V30 14 2 14 15
M  V30 15 1 15 16
M  V30 16 1 16 17
M  V30 17 1 16 18
M  V30 18 1 18 19
M  V30 19 1 18 20
M  V30 20 1 20 21
M  V30 21 1 1 22
M  V30 22 1 1 23
M  V30 23 1 1 24
M  V30 24 1 2 25
M  V30 25 1 2 26
M  V30 26 1 3 27
M  V30 27 1 3 28
M  V30 28 1 4 29
M  V30 29 1 4 30
M  V30 30 1 5 31
M  V30 31 1 5 32
M  V30 32 1 6 33
M  V30 33 1 6 34
M  V30 34 1 7 35
M  V30 35 1 7 36
M  V30 36 1 8 37
M  V30 37 1 8 38
M  V30 38 1 9 39
M  V30 39 1 9 40
M  V30 40 1 10 41
M  V30 41 1 10 42
M  V30 42 1 11 43
M  V30 43 1 11 44
M  V30 44 1 12 45
M  V30 45 1 12 46
M  V30 46 1 13 47
M  V30 47 1 13 48
M  V30 48 1 14 49
M  V30 49 1 15 50
M  V30 50 1 16 51 CFG=1
M  V30 51 1 17 52
M  V30 52 1 18 53 CFG=3
M  V30 53 1 19 54
M  V30 54 1 19 55
M  V30 55 1 20 56
M  V30 56 1 20 57
M  V30 57 1 21 58
M  V30 END BOND
M  V30 END CTAB
M  END
>  <Dataset>  (70) 
ChEMBL_PKA

>  <Ligand_Instance>  (70) 
nan

>  <PDB_ID>  (70) 
nan

>  <Standardized_SMILES>  (70) 
CCCCCCCCCCCCC/C=C/[C@@H](O)[C@@H](N)CO

>  <Name>  (70) 
SPHINGOSINE

>  <Pocket>  (70) 
nan

>  <ATP_Site>  (70) 
nan

>  <Peripheral>  (70) 
nan

>  <Num_H_Atoms_ProtBoundConf>  (70) 
nan

>  <Num_Resolved_Atoms>  (70) 
nan

>  <Num_Not_Resolved_Atoms>  (70) 
nan

>  <2D_Mol_H>  (70) 
<rdkit.Chem.rdchem.Mol object at 0x72a2391112a0>

>  <MW>  (70) 
299.499

>  <HBA>  (70) 
3

>  <HBD>  (70) 
3

>  <LogP>  (70) 
3.9242

>  <NRB>  (70) 
19

>  <TPSA>  (70) 
66.48

>  <Num_Heavy_Atoms>  (70) 
21

>  <Ro5>  (70) 
[True, True, True, True, False, True]

>  <Ro5_Fulfilled>  (70) 
True

>  <Ro3>  (70) 
[True, True, True, False]

>  <Ro3_Fulfilled>  (70) 
True

>  <Fsp3>  (70) 
0.888889

>  <Fsp3_0.42>  (70) 
True

>  <Fsp3_0.45>  (70) 
True

>  <Stereogenic_Carbons>  (70) 
2

>  <C_Atoms>  (70) 
18

>  <FCStereo>  (70) 
0.111111

>  <SPS>  (70) 
308

>  <nSPS>  (70) 
14.666667

>  <PBF>  (70) 
1.193433

>  <PBF_0.6>  (70) 
True

>  <nPBF>  (70) 
0.05683

>  <nPBF_0.016>  (70) 
True

>  <PMI1>  (70) 
1461.818263

>  <PMI2>  (70) 
3242.979187

>  <PMI3>  (70) 
3784.8692

>  <NPR1>  (70) 
0.386227

>  <NPR2>  (70) 
0.856827

>  <Sum_NPR>  (70) 
1.243054

>  <Sum_NPR_1.07>  (70) 
True

>  <Sum_NPR_1.2>  (70) 
True

>  <MaxAbsEStateIndex>  (70) 
9.52303

>  <MaxEStateIndex>  (70) 
9.52303

>  <MinAbsEStateIndex>  (70) 
0.176636

>  <MinEStateIndex>  (70) 
-0.719715

>  <qed>  (70) 
0.316982

>  <MolWt>  (70) 
299.499

>  <HeavyAtomMolWt>  (70) 
262.203

>  <ExactMolWt>  (70) 
299.282429

>  <NumValenceElectrons>  (70) 
126

>  <NumRadicalElectrons>  (70) 
0

>  <MaxPartialCharge>  (70) 
0.08938

>  <MinPartialCharge>  (70) 
-0.394646

>  <MaxAbsPartialCharge>  (70) 
0.394646

>  <MinAbsPartialCharge>  (70) 
0.08938

>  <FpDensityMorgan1>  (70) 
0.857143

>  <FpDensityMorgan2>  (70) 
1.333333

>  <FpDensityMorgan3>  (70) 
1.809524

>  <BCUT2D_MWHI>  (70) 
16.279095

>  <BCUT2D_MWLOW>  (70) 
10.049289

>  <BCUT2D_CHGHI>  (70) 
2.080851

>  <BCUT2D_CHGLO>  (70) 
-2.111251

>  <BCUT2D_LOGPHI>  (70) 
2.116299

>  <BCUT2D_LOGPLOW>  (70) 
-2.35922

>  <BCUT2D_MRHI>  (70) 
4.930202

>  <BCUT2D_MRLOW>  (70) 
0.143767

>  <AvgIpc>  (70) 
2.503159

>  <BalabanJ>  (70) 
3.202629

>  <BertzCT>  (70) 
231.258216

>  <Chi0>  (70) 
15.761302

>  <Chi0n>  (70) 
13.973567

>  <Chi0v>  (70) 
13.973567

>  <Chi1>  (70) 
10.218744

>  <Chi1n>  (70) 
8.931363

>  <Chi1v>  (70) 
8.931363

>  <Chi2n>  (70) 
6.089383

>  <Chi2v>  (70) 
6.089383

>  <Chi3n>  (70) 
3.957092

>  <Chi3v>  (70) 
3.957092

>  <Chi4n>  (70) 
2.412769

>  <Chi4v>  (70) 
2.412769

>  <HallKierAlpha>  (70) 
-0.38

>  <Ipc>  (70) 
37282.052065

>  <Kappa1>  (70) 
20.62

>  <Kappa2>  (70) 
15.998565

>  <Kappa3>  (70) 
14.326282

>  <LabuteASA>  (70) 
131.182022

>  <PEOE_VSA1>  (70) 
15.946722

>  <PEOE_VSA10>  (70) 
0.0

>  <PEOE_VSA11>  (70) 
0.0

>  <PEOE_VSA12>  (70) 
0.0

>  <PEOE_VSA13>  (70) 
0.0

>  <PEOE_VSA14>  (70) 
0.0

>  <PEOE_VSA2>  (70) 
0.0

>  <PEOE_VSA3>  (70) 
0.0

>  <PEOE_VSA4>  (70) 
0.0

>  <PEOE_VSA5>  (70) 
0.0

>  <PEOE_VSA6>  (70) 
83.283994

>  <PEOE_VSA7>  (70) 
12.841643

>  <PEOE_VSA8>  (70) 
0.0

>  <PEOE_VSA9>  (70) 
18.752689

>  <SMR_VSA1>  (70) 
10.213055

>  <SMR_VSA10>  (70) 
0.0

>  <SMR_VSA2>  (70) 
0.0

>  <SMR_VSA3>  (70) 
0.0

>  <SMR_VSA4>  (70) 
5.733667

>  <SMR_VSA5>  (70) 
96.119404

>  <SMR_VSA6>  (70) 
6.606882

>  <SMR_VSA7>  (70) 
12.15204

>  <SMR_VSA8>  (70) 
0.0

>  <SMR_VSA9>  (70) 
0.0

>  <SlogP_VSA1>  (70) 
5.733667

>  <SlogP_VSA10>  (70) 
0.0

>  <SlogP_VSA11>  (70) 
0.0

>  <SlogP_VSA12>  (70) 
0.0

>  <SlogP_VSA2>  (70) 
28.965744

>  <SlogP_VSA3>  (70) 
0.0

>  <SlogP_VSA4>  (70) 
0.0

>  <SlogP_VSA5>  (70) 
83.973597

>  <SlogP_VSA6>  (70) 
12.15204

>  <SlogP_VSA7>  (70) 
0.0

>  <SlogP_VSA8>  (70) 
0.0

>  <SlogP_VSA9>  (70) 
0.0

>  <EState_VSA1>  (70) 
12.145807

>  <EState_VSA10>  (70) 
5.106527

>  <EState_VSA11>  (70) 
0.0

>  <EState_VSA2>  (70) 
6.606882

>  <EState_VSA3>  (70) 
0.0

>  <EState_VSA4>  (70) 
6.420822

>  <EState_VSA5>  (70) 
70.629038

>  <EState_VSA6>  (70) 
6.07602

>  <EState_VSA7>  (70) 
6.07602

>  <EState_VSA8>  (70) 
6.923737

>  <EState_VSA9>  (70) 
10.840195

>  <VSA_EState1>  (70) 
0.0

>  <VSA_EState10>  (70) 
0.0

>  <VSA_EState2>  (70) 
0.0

>  <VSA_EState3>  (70) 
18.313176

>  <VSA_EState4>  (70) 
5.512403

>  <VSA_EState5>  (70) 
0.0

>  <VSA_EState6>  (70) 
-0.556874

>  <VSA_EState7>  (70) 
18.813791

>  <VSA_EState8>  (70) 
2.084171

>  <VSA_EState9>  (70) 
0.0

>  <FractionCSP3>  (70) 
0.888889

>  <HeavyAtomCount>  (70) 
21

>  <NHOHCount>  (70) 
4

>  <NOCount>  (70) 
3

>  <NumAliphaticCarbocycles>  (70) 
0

>  <NumAliphaticHeterocycles>  (70) 
0

>  <NumAliphaticRings>  (70) 
0

>  <NumAromaticCarbocycles>  (70) 
0

>  <NumAromaticHeterocycles>  (70) 
0

>  <NumAromaticRings>  (70) 
0

>  <NumHAcceptors>  (70) 
3

>  <NumHDonors>  (70) 
3

>  <NumHeteroatoms>  (70) 
3

>  <NumRotatableBonds>  (70) 
15

>  <NumSaturatedCarbocycles>  (70) 
0

>  <NumSaturatedHeterocycles>  (70) 
0

>  <NumSaturatedRings>  (70) 
0

>  <RingCount>  (70) 
0

>  <MolLogP>  (70) 
3.9242

>  <MolMR>  (70) 
91.286

>  <fr_Al_COO>  (70) 
0

>  <fr_Al_OH>  (70) 
2

>  <fr_Al_OH_noTert>  (70) 
2

>  <fr_ArN>  (70) 
0

>  <fr_Ar_COO>  (70) 
0

>  <fr_Ar_N>  (70) 
0

>  <fr_Ar_NH>  (70) 
0

>  <fr_Ar_OH>  (70) 
0

>  <fr_COO>  (70) 
0

>  <fr_COO2>  (70) 
0

>  <fr_C_O>  (70) 
0

>  <fr_C_O_noCOO>  (70) 
0

>  <fr_C_S>  (70) 
0

>  <fr_HOCCN>  (70) 
0

>  <fr_Imine>  (70) 
0

>  <fr_NH0>  (70) 
0

>  <fr_NH1>  (70) 
0

>  <fr_NH2>  (70) 
1

>  <fr_N_O>  (70) 
0

>  <fr_Ndealkylation1>  (70) 
0

>  <fr_Ndealkylation2>  (70) 
0

>  <fr_Nhpyrrole>  (70) 
0

>  <fr_SH>  (70) 
0

>  <fr_aldehyde>  (70) 
0

>  <fr_alkyl_carbamate>  (70) 
0

>  <fr_alkyl_halide>  (70) 
0

>  <fr_allylic_oxid>  (70) 
1

>  <fr_amide>  (70) 
0

>  <fr_amidine>  (70) 
0

>  <fr_aniline>  (70) 
0

>  <fr_aryl_methyl>  (70) 
0

>  <fr_azide>  (70) 
0

>  <fr_azo>  (70) 
0

>  <fr_barbitur>  (70) 
0

>  <fr_benzene>  (70) 
0

>  <fr_benzodiazepine>  (70) 
0

>  <fr_bicyclic>  (70) 
0

>  <fr_diazo>  (70) 
0

>  <fr_dihydropyridine>  (70) 
0

>  <fr_epoxide>  (70) 
0

>  <fr_ester>  (70) 
0

>  <fr_ether>  (70) 
0

>  <fr_furan>  (70) 
0

>  <fr_guanido>  (70) 
0

>  <fr_halogen>  (70) 
0

>  <fr_hdrzine>  (70) 
0

>  <fr_hdrzone>  (70) 
0

>  <fr_imidazole>  (70) 
0

>  <fr_imide>  (70) 
0

>  <fr_isocyan>  (70) 
0

>  <fr_isothiocyan>  (70) 
0

>  <fr_ketone>  (70) 
0

>  <fr_ketone_Topliss>  (70) 
0

>  <fr_lactam>  (70) 
0

>  <fr_lactone>  (70) 
0

>  <fr_methoxy>  (70) 
0

>  <fr_morpholine>  (70) 
0

>  <fr_nitrile>  (70) 
0

>  <fr_nitro>  (70) 
0

>  <fr_nitro_arom>  (70) 
0

>  <fr_nitro_arom_nonortho>  (70) 
0

>  <fr_nitroso>  (70) 
0

>  <fr_oxazole>  (70) 
0

>  <fr_oxime>  (70) 
0

>  <fr_para_hydroxylation>  (70) 
0

>  <fr_phenol>  (70) 
0

>  <fr_phenol_noOrthoHbond>  (70) 
0

>  <fr_phos_acid>  (70) 
0

>  <fr_phos_ester>  (70) 
0

>  <fr_piperdine>  (70) 
0

>  <fr_piperzine>  (70) 
0

>  <fr_priamide>  (70) 
0

>  <fr_prisulfonamd>  (70) 
0

>  <fr_pyridine>  (70) 
0

>  <fr_quatN>  (70) 
0

>  <fr_sulfide>  (70) 
0

>  <fr_sulfonamd>  (70) 
0

>  <fr_sulfone>  (70) 
0

>  <fr_term_acetylene>  (70) 
0

>  <fr_tetrazole>  (70) 
0

>  <fr_thiazole>  (70) 
0

>  <fr_thiocyan>  (70) 
0

>  <fr_thiophene>  (70) 
0

>  <fr_unbrch_alkane>  (70) 
11

>  <fr_urea>  (70) 
0

>  <NP_Likeness>  (70) 
1.482525

$$$$
CHEMBL91829
     RDKit          3D

  0  0  0  0  0  0  0  0  0  0999 V3000
M  V30 BEGIN CTAB
M  V30 COUNTS 63 68 0 0 0
M  V30 BEGIN ATOM
M  V30 1 C 0.641485 -0.872690 5.662512 0
M  V30 2 N 0.944046 0.164180 4.754638 0
M  V30 3 C 2.273107 0.619207 4.676136 0
M  V30 4 C 0.026862 0.486212 3.740435 0
M  V30 5 C -0.169493 -0.559069 2.660619 0 CFG=2
M  V30 6 C 1.075445 -0.964808 1.961094 0
M  V30 7 C 1.797309 0.097593 1.209384 0
M  V30 8 N 0.994420 0.668740 0.133426 0
M  V30 9 C 0.816984 -0.144819 -0.922390 0
M  V30 10 C 0.040993 0.518284 -1.845478 0
M  V30 11 C -0.269844 1.760514 -1.363390 0
M  V30 12 C -1.006754 2.838815 -1.852877 0
M  V30 13 C -1.136278 3.987340 -1.103988 0
M  V30 14 C -0.502691 4.004512 0.138485 0
M  V30 15 C 0.229664 2.949485 0.639080 0
M  V30 16 C 0.343898 1.816963 -0.125153 0
M  V30 17 C -0.383371 -0.031291 -3.126414 0
M  V30 18 C -0.916392 -1.239064 -3.216942 0
M  V30 19 C -1.288044 -1.641470 -4.566119 0
M  V30 20 O -1.803374 -2.715692 -4.928875 0
M  V30 21 N -0.906543 -0.487519 -5.348278 0
M  V30 22 C -0.344650 0.521429 -4.480065 0
M  V30 23 O 0.101922 1.659930 -4.774531 0
M  V30 24 C -1.071540 -2.022779 -1.972267 0
M  V30 25 C -1.680650 -1.507417 -0.842413 0
M  V30 26 N -1.647120 -2.453747 0.087521 0
M  V30 27 C -1.046387 -3.535893 -0.409370 0
M  V30 28 C -0.759557 -4.785262 0.142225 0
M  V30 29 C -0.114801 -5.721367 -0.635675 0
M  V30 30 C 0.263056 -5.488283 -1.933811 0
M  V30 31 C -0.006590 -4.248122 -2.523387 0
M  V30 32 C -0.653603 -3.316078 -1.735016 0
M  V30 33 C -2.194756 -2.261431 1.415939 0
M  V30 34 C -2.296731 -0.803608 1.739737 0
M  V30 35 O -1.122573 -0.101991 1.736262 0
M  V30 36 H 0.894970 -1.887893 5.337184 0
M  V30 37 H 1.247668 -0.693327 6.590195 0
M  V30 38 H -0.414551 -0.769483 5.986003 0
M  V30 39 H 2.989715 -0.147690 4.313560 0
M  V30 40 H 2.328437 1.578170 4.139296 0
M  V30 41 H 2.620332 0.845194 5.721720 0
M  V30 42 H -0.990451 0.577821 4.228410 0
M  V30 43 H 0.240552 1.490604 3.362294 0
M  V30 44 H -0.611032 -1.434609 3.165977 0
M  V30 45 H 1.779952 -1.446257 2.670757 0
M  V30 46 H 0.806380 -1.758934 1.237262 0
M  V30 47 H 2.223069 0.888423 1.823090 0
M  V30 48 H 2.668053 -0.401136 0.711121 0
M  V30 49 H 1.168301 -1.147207 -1.124938 0
M  V30 50 H -1.483540 2.784791 -2.823137 0
M  V30 51 H -1.700556 4.842918 -1.452336 0
M  V30 52 H -0.622722 4.923509 0.706270 0
M  V30 53 H 0.691299 3.022492 1.591947 0
M  V30 54 H -1.019124 -0.397154 -6.381365 0
M  V30 55 H -2.080612 -0.503932 -0.818151 0
M  V30 56 H -1.025667 -5.041118 1.155995 0
M  V30 57 H 0.110662 -6.691686 -0.213909 0
M  V30 58 H 0.772787 -6.204585 -2.573443 0
M  V30 59 H 0.267368 -4.007276 -3.542378 0
M  V30 60 H -1.673977 -2.852027 2.171290 0
M  V30 61 H -3.246488 -2.671187 1.346261 0
M  V30 62 H -2.854735 -0.732435 2.699545 0
M  V30 63 H -2.969008 -0.289356 1.000719 0
M  V30 END ATOM
M  V30 BEGIN BOND
M  V30 1 1 1 2
M  V30 2 1 2 3
M  V30 3 1 2 4
M  V30 4 1 4 5
M  V30 5 1 5 6
M  V30 6 1 6 7
M  V30 7 1 7 8
M  V30 8 1 8 9
M  V30 9 2 9 10
M  V30 10 1 10 11
M  V30 11 2 11 12
M  V30 12 1 12 13
M  V30 13 2 13 14
M  V30 14 1 14 15
M  V30 15 2 15 16
M  V30 16 1 10 17
M  V30 17 2 17 18
M  V30 18 1 18 19
M  V30 19 2 19 20
M  V30 20 1 19 21
M  V30 21 1 21 22
M  V30 22 2 22 23
M  V30 23 1 18 24
M  V30 24 2 24 25
M  V30 25 1 25 26
M  V30 26 1 26 27
M  V30 27 2 27 28
M  V30 28 1 28 29
M  V30 29 2 29 30
M  V30 30 1 30 31
M  V30 31 2 31 32
M  V30 32 1 26 33
M  V30 33 1 33 34
M  V30 34 1 34 35
M  V30 35 1 35 5
M  V30 36 1 16 8
M  V30 37 1 22 17
M  V30 38 1 32 24
M  V30 39 1 16 11
M  V30 40 1 32 27
M  V30 41 1 1 36
M  V30 42 1 1 37
M  V30 43 1 1 38
M  V30 44 1 3 39
M  V30 45 1 3 40
M  V30 46 1 3 41
M  V30 47 1 4 42
M  V30 48 1 4 43
M  V30 49 1 5 44 CFG=1
M  V30 50 1 6 45
M  V30 51 1 6 46
M  V30 52 1 7 47
M  V30 53 1 7 48
M  V30 54 1 9 49
M  V30 55 1 12 50
M  V30 56 1 13 51
M  V30 57 1 14 52
M  V30 58 1 15 53
M  V30 59 1 21 54
M  V30 60 1 25 55
M  V30 61 1 28 56
M  V30 62 1 29 57
M  V30 63 1 30 58
M  V30 64 1 31 59
M  V30 65 1 33 60
M  V30 66 1 33 61
M  V30 67 1 34 62
M  V30 68 1 34 63
M  V30 END BOND
M  V30 END CTAB
M  END
>  <Dataset>  (71) 
ChEMBL_PKA

>  <Ligand_Instance>  (71) 
nan

>  <PDB_ID>  (71) 
nan

>  <Standardized_SMILES>  (71) 
CN(C)C[C@@H]1CCn2cc(c3ccccc32)C2=C(C(=O)NC2=O)c2cn(c3ccccc23)CCO1

>  <Name>  (71) 
RUBOXISTAURIN

>  <Pocket>  (71) 
nan

>  <ATP_Site>  (71) 
nan

>  <Peripheral>  (71) 
nan

>  <Num_H_Atoms_ProtBoundConf>  (71) 
nan

>  <Num_Resolved_Atoms>  (71) 
nan

>  <Num_Not_Resolved_Atoms>  (71) 
nan

>  <2D_Mol_H>  (71) 
<rdkit.Chem.rdchem.Mol object at 0x72a239111380>

>  <MW>  (71) 
468.557

>  <HBA>  (71) 
6

>  <HBD>  (71) 
1

>  <LogP>  (71) 
3.5137

>  <NRB>  (71) 
4

>  <TPSA>  (71) 
68.5

>  <Num_Heavy_Atoms>  (71) 
35

>  <Ro5>  (71) 
[True, True, True, True, True, True]

>  <Ro5_Fulfilled>  (71) 
True

>  <Ro3>  (71) 
[False, False, True, False]

>  <Ro3_Fulfilled>  (71) 
False

>  <Fsp3>  (71) 
0.285714

>  <Fsp3_0.42>  (71) 
False

>  <Fsp3_0.45>  (71) 
False

>  <Stereogenic_Carbons>  (71) 
1

>  <C_Atoms>  (71) 
28

>  <FCStereo>  (71) 
0.035714

>  <SPS>  (71) 
661

>  <nSPS>  (71) 
18.885714

>  <PBF>  (71) 
1.04566

>  <PBF_0.6>  (71) 
True

>  <nPBF>  (71) 
0.029876

>  <nPBF_0.016>  (71) 
True

>  <PMI1>  (71) 
3092.250728

>  <PMI2>  (71) 
4532.504155

>  <PMI3>  (71) 
6700.143553

>  <NPR1>  (71) 
0.46152

>  <NPR2>  (71) 
0.676479

>  <Sum_NPR>  (71) 
1.137999

>  <Sum_NPR_1.07>  (71) 
True

>  <Sum_NPR_1.2>  (71) 
False

>  <MaxAbsEStateIndex>  (71) 
13.201412

>  <MaxEStateIndex>  (71) 
13.201412

>  <MinAbsEStateIndex>  (71) 
0.074058

>  <MinEStateIndex>  (71) 
-0.348032

>  <qed>  (71) 
0.457397

>  <MolWt>  (71) 
468.557

>  <HeavyAtomMolWt>  (71) 
440.333

>  <ExactMolWt>  (71) 
468.216141

>  <NumValenceElectrons>  (71) 
178

>  <NumRadicalElectrons>  (71) 
0

>  <MaxPartialCharge>  (71) 
0.259139

>  <MinPartialCharge>  (71) 
-0.374966

>  <MaxAbsPartialCharge>  (71) 
0.374966

>  <MinAbsPartialCharge>  (71) 
0.259139

>  <FpDensityMorgan1>  (71) 
0.857143

>  <FpDensityMorgan2>  (71) 
1.4

>  <FpDensityMorgan3>  (71) 
1.971429

>  <BCUT2D_MWHI>  (71) 
16.487318

>  <BCUT2D_MWLOW>  (71) 
9.954774

>  <BCUT2D_CHGHI>  (71) 
2.351447

>  <BCUT2D_CHGLO>  (71) 
-2.222487

>  <BCUT2D_LOGPHI>  (71) 
2.387551

>  <BCUT2D_LOGPLOW>  (71) 
-2.300985

>  <BCUT2D_MRHI>  (71) 
6.504136

>  <BCUT2D_MRLOW>  (71) 
-0.122341

>  <AvgIpc>  (71) 
3.472017

>  <BalabanJ>  (71) 
1.621832

>  <BertzCT>  (71) 
1507.215622

>  <Chi0>  (71) 
24.103719

>  <Chi0n>  (71) 
19.952773

>  <Chi0v>  (71) 
19.952773

>  <Chi1>  (71) 
17.00804

>  <Chi1n>  (71) 
12.037895

>  <Chi1v>  (71) 
12.037895

>  <Chi2n>  (71) 
9.583602

>  <Chi2v>  (71) 
9.583602

>  <Chi3n>  (71) 
6.993539

>  <Chi3v>  (71) 
6.993539

>  <Chi4n>  (71) 
5.466514

>  <Chi4v>  (71) 
5.466514

>  <HallKierAlpha>  (71) 
-3.68

>  <Ipc>  (71) 
162815431.524954

>  <Kappa1>  (71) 
21.82672

>  <Kappa2>  (71) 
8.51712

>  <Kappa3>  (71) 
3.677231

>  <LabuteASA>  (71) 
203.114416

>  <PEOE_VSA1>  (71) 
18.770972

>  <PEOE_VSA10>  (71) 
0.0

>  <PEOE_VSA11>  (71) 
0.0

>  <PEOE_VSA12>  (71) 
0.0

>  <PEOE_VSA13>  (71) 
11.814359

>  <PEOE_VSA14>  (71) 
0.0

>  <PEOE_VSA2>  (71) 
14.905863

>  <PEOE_VSA3>  (71) 
0.0

>  <PEOE_VSA4>  (71) 
0.0

>  <PEOE_VSA5>  (71) 
0.0

>  <PEOE_VSA6>  (71) 
36.398202

>  <PEOE_VSA7>  (71) 
32.6489

>  <PEOE_VSA8>  (71) 
64.960709

>  <PEOE_VSA9>  (71) 
23.857057

>  <SMR_VSA1>  (71) 
14.325937

>  <SMR_VSA10>  (71) 
44.766418

>  <SMR_VSA2>  (71) 
0.0

>  <SMR_VSA3>  (71) 
19.350898

>  <SMR_VSA4>  (71) 
0.0

>  <SMR_VSA5>  (71) 
25.614301

>  <SMR_VSA6>  (71) 
27.246982

>  <SMR_VSA7>  (71) 
72.051527

>  <SMR_VSA8>  (71) 
0.0

>  <SMR_VSA9>  (71) 
0.0

>  <SlogP_VSA1>  (71) 
5.316789

>  <SlogP_VSA10>  (71) 
0.0

>  <SlogP_VSA11>  (71) 
0.0

>  <SlogP_VSA12>  (71) 
0.0

>  <SlogP_VSA2>  (71) 
59.199417

>  <SlogP_VSA3>  (71) 
27.41545

>  <SlogP_VSA4>  (71) 
0.0

>  <SlogP_VSA5>  (71) 
17.547725

>  <SlogP_VSA6>  (71) 
60.924624

>  <SlogP_VSA7>  (71) 
0.0

>  <SlogP_VSA8>  (71) 
32.952059

>  <SlogP_VSA9>  (71) 
0.0

>  <EState_VSA1>  (71) 
0.0

>  <EState_VSA10>  (71) 
9.589074

>  <EState_VSA11>  (71) 
0.0

>  <EState_VSA2>  (71) 
17.918326

>  <EState_VSA3>  (71) 
24.297847

>  <EState_VSA4>  (71) 
52.443087

>  <EState_VSA5>  (71) 
0.0

>  <EState_VSA6>  (71) 
0.0

>  <EState_VSA7>  (71) 
48.79189

>  <EState_VSA8>  (71) 
45.578976

>  <EState_VSA9>  (71) 
4.736863

>  <VSA_EState1>  (71) 
10.696258

>  <VSA_EState10>  (71) 
0.0

>  <VSA_EState2>  (71) 
28.525805

>  <VSA_EState3>  (71) 
4.484549

>  <VSA_EState4>  (71) 
4.52026

>  <VSA_EState5>  (71) 
-0.690027

>  <VSA_EState6>  (71) 
16.102121

>  <VSA_EState7>  (71) 
4.929512

>  <VSA_EState8>  (71) 
2.805917

>  <VSA_EState9>  (71) 
4.125605

>  <FractionCSP3>  (71) 
0.285714

>  <HeavyAtomCount>  (71) 
35

>  <NHOHCount>  (71) 
1

>  <NOCount>  (71) 
7

>  <NumAliphaticCarbocycles>  (71) 
0

>  <NumAliphaticHeterocycles>  (71) 
2

>  <NumAliphaticRings>  (71) 
2

>  <NumAromaticCarbocycles>  (71) 
2

>  <NumAromaticHeterocycles>  (71) 
2

>  <NumAromaticRings>  (71) 
4

>  <NumHAcceptors>  (71) 
6

>  <NumHDonors>  (71) 
1

>  <NumHeteroatoms>  (71) 
7

>  <NumRotatableBonds>  (71) 
2

>  <NumSaturatedCarbocycles>  (71) 
0

>  <NumSaturatedHeterocycles>  (71) 
0

>  <NumSaturatedRings>  (71) 
0

>  <RingCount>  (71) 
6

>  <MolLogP>  (71) 
3.5137

>  <MolMR>  (71) 
136.7507

>  <fr_Al_COO>  (71) 
0

>  <fr_Al_OH>  (71) 
0

>  <fr_Al_OH_noTert>  (71) 
0

>  <fr_ArN>  (71) 
0

>  <fr_Ar_COO>  (71) 
0

>  <fr_Ar_N>  (71) 
2

>  <fr_Ar_NH>  (71) 
0

>  <fr_Ar_OH>  (71) 
0

>  <fr_COO>  (71) 
0

>  <fr_COO2>  (71) 
0

>  <fr_C_O>  (71) 
2

>  <fr_C_O_noCOO>  (71) 
2

>  <fr_C_S>  (71) 
0

>  <fr_HOCCN>  (71) 
0

>  <fr_Imine>  (71) 
0

>  <fr_NH0>  (71) 
3

>  <fr_NH1>  (71) 
1

>  <fr_NH2>  (71) 
0

>  <fr_N_O>  (71) 
0

>  <fr_Ndealkylation1>  (71) 
1

>  <fr_Ndealkylation2>  (71) 
0

>  <fr_Nhpyrrole>  (71) 
0

>  <fr_SH>  (71) 
0

>  <fr_aldehyde>  (71) 
0

>  <fr_alkyl_carbamate>  (71) 
0

>  <fr_alkyl_halide>  (71) 
0

>  <fr_allylic_oxid>  (71) 
0

>  <fr_amide>  (71) 
2

>  <fr_amidine>  (71) 
0

>  <fr_aniline>  (71) 
0

>  <fr_aryl_methyl>  (71) 
1

>  <fr_azide>  (71) 
0

>  <fr_azo>  (71) 
0

>  <fr_barbitur>  (71) 
0

>  <fr_benzene>  (71) 
2

>  <fr_benzodiazepine>  (71) 
0

>  <fr_bicyclic>  (71) 
12

>  <fr_diazo>  (71) 
0

>  <fr_dihydropyridine>  (71) 
0

>  <fr_epoxide>  (71) 
0

>  <fr_ester>  (71) 
0

>  <fr_ether>  (71) 
1

>  <fr_furan>  (71) 
0

>  <fr_guanido>  (71) 
0

>  <fr_halogen>  (71) 
0

>  <fr_hdrzine>  (71) 
0

>  <fr_hdrzone>  (71) 
0

>  <fr_imidazole>  (71) 
0

>  <fr_imide>  (71) 
1

>  <fr_isocyan>  (71) 
0

>  <fr_isothiocyan>  (71) 
0

>  <fr_ketone>  (71) 
0

>  <fr_ketone_Topliss>  (71) 
0

>  <fr_lactam>  (71) 
0

>  <fr_lactone>  (71) 
0

>  <fr_methoxy>  (71) 
0

>  <fr_morpholine>  (71) 
0

>  <fr_nitrile>  (71) 
0

>  <fr_nitro>  (71) 
0

>  <fr_nitro_arom>  (71) 
0

>  <fr_nitro_arom_nonortho>  (71) 
0

>  <fr_nitroso>  (71) 
0

>  <fr_oxazole>  (71) 
0

>  <fr_oxime>  (71) 
0

>  <fr_para_hydroxylation>  (71) 
2

>  <fr_phenol>  (71) 
0

>  <fr_phenol_noOrthoHbond>  (71) 
0

>  <fr_phos_acid>  (71) 
0

>  <fr_phos_ester>  (71) 
0

>  <fr_piperdine>  (71) 
0

>  <fr_piperzine>  (71) 
0

>  <fr_priamide>  (71) 
0

>  <fr_prisulfonamd>  (71) 
0

>  <fr_pyridine>  (71) 
0

>  <fr_quatN>  (71) 
0

>  <fr_sulfide>  (71) 
0

>  <fr_sulfonamd>  (71) 
0

>  <fr_sulfone>  (71) 
0

>  <fr_term_acetylene>  (71) 
0

>  <fr_tetrazole>  (71) 
0

>  <fr_thiazole>  (71) 
0

>  <fr_thiocyan>  (71) 
0

>  <fr_thiophene>  (71) 
0

>  <fr_unbrch_alkane>  (71) 
0

>  <fr_urea>  (71) 
0

>  <NP_Likeness>  (71) 
-0.105215

$$$$
