CHEMBL1271576
     RDKit          3D

  0  0  0  0  0  0  0  0  0  0999 V3000
M  V30 BEGIN CTAB
M  V30 COUNTS 77 80 0 0 0
M  V30 BEGIN ATOM
M  V30 1 C 2.878557 -6.382718 -3.264265 0
M  V30 2 C 1.477323 -5.996253 -3.570348 0
M  V30 3 N 1.252277 -4.663703 -4.040111 0
M  V30 4 C -0.116740 -4.454912 -4.332369 0
M  V30 5 C -0.625526 -5.240565 -5.527369 0
M  V30 6 C 2.233961 -4.198774 -4.920886 0
M  V30 7 C 1.926274 -2.864404 -5.568849 0
M  V30 8 N 1.747985 -1.777743 -4.652326 0
M  V30 9 C 2.633562 -1.213780 -3.701591 0
M  V30 10 O 3.759694 -1.784946 -3.678761 0
M  V30 11 C 2.263310 -0.090480 -2.849866 0
M  V30 12 C 1.035948 0.529698 -2.849235 0
M  V30 13 C 0.760827 1.589464 -2.012944 0
M  V30 14 C 1.690399 2.092100 -1.132069 0
M  V30 15 N 1.423786 3.195981 -0.238586 0
M  V30 16 C 0.832117 2.517912 0.896098 0
M  V30 17 C -0.443814 2.782046 1.005106 0
M  V30 18 C -1.307043 3.609739 0.193853 0
M  V30 19 O -0.972450 4.255501 -0.809252 0
M  V30 20 N -2.616437 3.563242 0.739053 0
M  V30 21 C -2.526665 2.700668 1.885536 0
M  V30 22 C -3.557335 2.368882 2.729249 0
M  V30 23 C -3.263183 1.524827 3.792689 0
M  V30 24 C -4.381724 1.189925 4.651522 0
M  V30 25 O -5.560675 1.376038 4.253346 0
M  V30 26 N -4.635505 0.666912 5.925226 0
M  V30 27 C -6.100085 0.636640 6.057348 0
M  V30 28 C -3.835681 0.196555 7.036485 0
M  V30 29 C -3.592894 -1.266484 6.851892 0
M  V30 30 C -1.980649 1.033741 3.999782 0
M  V30 31 C -1.002979 1.410830 3.111851 0
M  V30 32 C -1.263708 2.233996 2.060705 0
M  V30 33 C 1.716472 1.652687 1.604912 0
M  V30 34 C 1.848680 0.290224 1.879305 0
M  V30 35 C 2.857201 -0.230975 2.641414 0
M  V30 36 C 3.826327 0.576669 3.198200 0
M  V30 37 C 3.731727 1.911980 2.953680 0
M  V30 38 C 2.715265 2.467222 2.180445 0
M  V30 39 C 2.924038 1.469078 -1.132795 0
M  V30 40 C 3.200313 0.405940 -1.970651 0
M  V30 41 H 2.997840 -7.483549 -3.523202 0
M  V30 42 H 3.574801 -5.856960 -3.934395 0
M  V30 43 H 3.157860 -6.232181 -2.191263 0
M  V30 44 H 0.891829 -6.155751 -2.601032 0
M  V30 45 H 1.046505 -6.760610 -4.272071 0
M  V30 46 H -0.696332 -4.840212 -3.441390 0
M  V30 47 H -0.412990 -3.389256 -4.389020 0
M  V30 48 H -1.183914 -4.544383 -6.212126 0
M  V30 49 H 0.181752 -5.699382 -6.127982 0
M  V30 50 H -1.337170 -6.048201 -5.240838 0
M  V30 51 H 3.161739 -3.970506 -4.300712 0
M  V30 52 H 2.583410 -4.882318 -5.714639 0
M  V30 53 H 1.159766 -2.925775 -6.345158 0
M  V30 54 H 2.873626 -2.624354 -6.141954 0
M  V30 55 H 0.791663 -1.344116 -4.716700 0
M  V30 56 H 0.271224 0.171898 -3.522068 0
M  V30 57 H -0.229133 2.006155 -2.085354 0
M  V30 58 H 1.602313 4.196362 -0.367650 0
M  V30 59 H -3.438721 4.081795 0.333593 0
M  V30 60 H -4.555281 2.745174 2.577746 0
M  V30 61 H -6.385150 0.259708 7.064179 0
M  V30 62 H -6.479173 -0.068524 5.268941 0
M  V30 63 H -6.554907 1.618588 5.882647 0
M  V30 64 H -2.864844 0.727676 7.023292 0
M  V30 65 H -4.368371 0.344452 8.007717 0
M  V30 66 H -4.119389 -1.908247 7.588522 0
M  V30 67 H -3.933418 -1.620609 5.841442 0
M  V30 68 H -2.506636 -1.510432 6.881512 0
M  V30 69 H -1.890923 0.376842 4.875437 0
M  V30 70 H -0.087030 0.975183 3.423572 0
M  V30 71 H 1.005766 -0.197000 1.368326 0
M  V30 72 H 2.787697 -1.316794 2.737999 0
M  V30 73 H 4.577455 0.070626 3.782095 0
M  V30 74 H 4.542421 2.474727 3.434903 0
M  V30 75 H 2.860703 3.555671 2.133918 0
M  V30 76 H 3.684459 1.820866 -0.468004 0
M  V30 77 H 4.199342 -0.042309 -1.920034 0
M  V30 END ATOM
M  V30 BEGIN BOND
M  V30 1 1 1 2
M  V30 2 1 2 3
M  V30 3 1 3 4
M  V30 4 1 4 5
M  V30 5 1 3 6
M  V30 6 1 6 7
M  V30 7 1 7 8
M  V30 8 1 8 9
M  V30 9 2 9 10
M  V30 10 1 9 11
M  V30 11 2 11 12
M  V30 12 1 12 13
M  V30 13 2 13 14
M  V30 14 1 14 15
M  V30 15 1 15 16
M  V30 16 2 16 17
M  V30 17 1 17 18
M  V30 18 2 18 19
M  V30 19 1 18 20
M  V30 20 1 20 21
M  V30 21 2 21 22
M  V30 22 1 22 23
M  V30 23 1 23 24
M  V30 24 2 24 25
M  V30 25 1 24 26
M  V30 26 1 26 27
M  V30 27 1 26 28
M  V30 28 1 28 29
M  V30 29 2 23 30
M  V30 30 1 30 31
M  V30 31 2 31 32
M  V30 32 1 16 33
M  V30 33 2 33 34
M  V30 34 1 34 35
M  V30 35 2 35 36
M  V30 36 1 36 37
M  V30 37 2 37 38
M  V30 38 1 14 39
M  V30 39 2 39 40
M  V30 40 1 40 11
M  V30 41 1 32 17
M  V30 42 1 38 33
M  V30 43 1 32 21
M  V30 44 1 1 41
M  V30 45 1 1 42
M  V30 46 1 1 43
M  V30 47 1 2 44
M  V30 48 1 2 45
M  V30 49 1 4 46
M  V30 50 1 4 47
M  V30 51 1 5 48
M  V30 52 1 5 49
M  V30 53 1 5 50
M  V30 54 1 6 51
M  V30 55 1 6 52
M  V30 56 1 7 53
M  V30 57 1 7 54
M  V30 58 1 8 55
M  V30 59 1 12 56
M  V30 60 1 13 57
M  V30 61 1 15 58
M  V30 62 1 20 59
M  V30 63 1 22 60
M  V30 64 1 27 61
M  V30 65 1 27 62
M  V30 66 1 27 63
M  V30 67 1 28 64
M  V30 68 1 28 65
M  V30 69 1 29 66
M  V30 70 1 29 67
M  V30 71 1 29 68
M  V30 72 1 30 69
M  V30 73 1 31 70
M  V30 74 1 34 71
M  V30 75 1 35 72
M  V30 76 1 36 73
M  V30 77 1 37 74
M  V30 78 1 38 75
M  V30 79 1 39 76
M  V30 80 1 40 77
M  V30 END BOND
M  V30 END CTAB
M  END
>  <Dataset>  (1) 
ChEMBL_Kinases

>  <Ligand_Instance>  (1) 
nan

>  <PDB_ID>  (1) 
nan

>  <Standardized_SMILES>  (1) 
CCN(CC)CCNC(=O)c1ccc(N/C(=C2\C(=O)Nc3cc(C(=O)N(C)CC)ccc32)c2ccccc2)cc1

>  <Name>  (1) 
nan

>  <Pocket>  (1) 
nan

>  <ATP_Site>  (1) 
nan

>  <Peripheral>  (1) 
nan

>  <Num_H_Atoms_ProtBoundConf>  (1) 
nan

>  <Num_Resolved_Atoms>  (1) 
nan

>  <Num_Not_Resolved_Atoms>  (1) 
nan

$$$$
CHEMBL1271564
     RDKit          3D

  0  0  0  0  0  0  0  0  0  0999 V3000
M  V30 BEGIN CTAB
M  V30 COUNTS 51 54 0 0 0
M  V30 BEGIN ATOM
M  V30 1 C 3.077841 -2.242852 3.681281 0
M  V30 2 C 2.955018 -0.873254 4.369429 0
M  V30 3 C 2.745423 -1.069505 5.829384 0
M  V30 4 C 4.161650 -0.129796 3.992693 0
M  V30 5 N 5.308878 -0.351992 4.703114 0
M  V30 6 N 6.245619 0.405559 4.182293 0
M  V30 7 C 5.763586 1.123325 3.152719 0
M  V30 8 C 4.433766 0.795852 3.015429 0
M  V30 9 C 3.455525 1.309816 2.063100 0
M  V30 10 C 3.902724 2.274097 1.185330 0
M  V30 11 C 2.941788 2.771954 0.301847 0
M  V30 12 N 1.677215 2.354784 0.296203 0
M  V30 13 C 1.247013 1.397795 1.170997 0
M  V30 14 N -0.099909 0.983267 1.167708 0
M  V30 15 C -0.893865 0.255659 0.255974 0
M  V30 16 C -0.481571 -0.243185 -0.956857 0
M  V30 17 C -1.416996 -0.920198 -1.724434 0
M  V30 18 C -2.744642 -1.117633 -1.328845 0
M  V30 19 N -3.709308 -1.787003 -2.102061 0
M  V30 20 C -3.509805 -2.290242 -3.445628 0
M  V30 21 C -4.747356 -1.914909 -4.262616 0
M  V30 22 N -5.918494 -2.548739 -3.739404 0
M  V30 23 C -5.747089 -3.003065 -2.370276 0
M  V30 24 C -5.023675 -1.997281 -1.519003 0
M  V30 25 C -3.068319 -0.583617 -0.097328 0
M  V30 26 N -2.158007 0.066490 0.631408 0
M  V30 27 N 2.174158 0.926792 2.012075 0
M  V30 28 H 3.528805 -2.038992 2.689711 0
M  V30 29 H 3.840480 -2.857914 4.235348 0
M  V30 30 H 2.129656 -2.784250 3.637670 0
M  V30 31 H 2.045861 -0.409440 3.933382 0
M  V30 32 H 2.946257 -2.137054 6.084584 0
M  V30 33 H 3.448846 -0.488866 6.460978 0
M  V30 34 H 1.677389 -0.915192 6.069550 0
M  V30 35 H 7.265496 0.516364 4.451126 0
M  V30 36 H 6.252199 1.834313 2.509638 0
M  V30 37 H 4.908733 2.603980 1.190030 0
M  V30 38 H 3.331073 3.541339 -0.386715 0
M  V30 39 H -0.432798 1.361296 2.073975 0
M  V30 40 H 0.536566 -0.082577 -1.243463 0
M  V30 41 H -1.097354 -1.313792 -2.677414 0
M  V30 42 H -2.615653 -1.818038 -3.916747 0
M  V30 43 H -3.435909 -3.393411 -3.458463 0
M  V30 44 H -4.901366 -0.811136 -4.194480 0
M  V30 45 H -4.605208 -2.175273 -5.332479 0
M  V30 46 H -6.762703 -1.924079 -3.807016 0
M  V30 47 H -5.147936 -3.934101 -2.406652 0
M  V30 48 H -6.733335 -3.285609 -1.958754 0
M  V30 49 H -4.840655 -2.468182 -0.527410 0
M  V30 50 H -5.576695 -1.034094 -1.434476 0
M  V30 51 H -4.085216 -0.704122 0.268207 0
M  V30 END ATOM
M  V30 BEGIN BOND
M  V30 1 1 1 2
M  V30 2 1 2 3
M  V30 3 1 2 4
M  V30 4 2 4 5
M  V30 5 1 5 6
M  V30 6 1 6 7
M  V30 7 2 7 8
M  V30 8 1 8 9
M  V30 9 2 9 10
M  V30 10 1 10 11
M  V30 11 2 11 12
M  V30 12 1 12 13
M  V30 13 1 13 14
M  V30 14 1 14 15
M  V30 15 2 15 16
M  V30 16 1 16 17
M  V30 17 2 17 18
M  V30 18 1 18 19
M  V30 19 1 19 20
M  V30 20 1 20 21
M  V30 21 1 21 22
M  V30 22 1 22 23
M  V30 23 1 23 24
M  V30 24 1 18 25
M  V30 25 2 25 26
M  V30 26 2 13 27
M  V30 27 1 8 4
M  V30 28 1 27 9
M  V30 29 1 26 15
M  V30 30 1 24 19
M  V30 31 1 1 28
M  V30 32 1 1 29
M  V30 33 1 1 30
M  V30 34 1 2 31
M  V30 35 1 3 32
M  V30 36 1 3 33
M  V30 37 1 3 34
M  V30 38 1 6 35
M  V30 39 1 7 36
M  V30 40 1 10 37
M  V30 41 1 11 38
M  V30 42 1 14 39
M  V30 43 1 16 40
M  V30 44 1 17 41
M  V30 45 1 20 42
M  V30 46 1 20 43
M  V30 47 1 21 44
M  V30 48 1 21 45
M  V30 49 1 22 46
M  V30 50 1 23 47
M  V30 51 1 23 48
M  V30 52 1 24 49
M  V30 53 1 24 50
M  V30 54 1 25 51
M  V30 END BOND
M  V30 END CTAB
M  END
>  <Dataset>  (2) 
ChEMBL_Kinases

>  <Ligand_Instance>  (2) 
nan

>  <PDB_ID>  (2) 
nan

>  <Standardized_SMILES>  (2) 
CC(C)c1n[nH]cc1-c1ccnc(Nc2ccc(N3CCNCC3)cn2)n1

>  <Name>  (2) 
nan

>  <Pocket>  (2) 
nan

>  <ATP_Site>  (2) 
nan

>  <Peripheral>  (2) 
nan

>  <Num_H_Atoms_ProtBoundConf>  (2) 
nan

>  <Num_Resolved_Atoms>  (2) 
nan

>  <Num_Not_Resolved_Atoms>  (2) 
nan

$$$$
CHEMBL1271555
     RDKit          3D

  0  0  0  0  0  0  0  0  0  0999 V3000
M  V30 BEGIN CTAB
M  V30 COUNTS 49 52 0 0 0
M  V30 BEGIN ATOM
M  V30 1 C -0.307750 -0.856858 -5.583454 0
M  V30 2 S 1.468675 -0.774570 -5.240611 0
M  V30 3 C 1.679663 -0.164659 -3.577832 0
M  V30 4 N 2.882856 0.019151 -2.995988 0
M  V30 5 C 2.710349 0.486505 -1.744300 0
M  V30 6 C 3.783066 0.800320 -0.821506 0
M  V30 7 C 4.610927 1.802532 -1.327430 0
M  V30 8 C 5.713100 2.268794 -0.608739 0
M  V30 9 C 5.934044 1.681556 0.627064 0
M  V30 10 F 6.995292 2.097152 1.372460 0
M  V30 11 C 5.131703 0.684046 1.159361 0
M  V30 12 C 4.052929 0.252520 0.416164 0
M  V30 13 C 1.338255 0.593909 -1.550396 0
M  V30 14 C 0.721437 1.066064 -0.314584 0
M  V30 15 C 0.872035 2.315149 0.241305 0
M  V30 16 C 0.216758 2.612009 1.423916 0
M  V30 17 N -0.565608 1.692454 2.035352 0
M  V30 18 C -0.736872 0.451800 1.516013 0
M  V30 19 N -1.558415 -0.520246 2.149984 0
M  V30 20 C -1.373324 -1.539898 3.118128 0
M  V30 21 O -0.264469 -1.779565 3.654477 0
M  V30 22 C -2.532430 -2.335088 3.495198 0
M  V30 23 C -2.312265 -3.317366 4.438010 0
M  V30 24 C -3.338824 -4.144941 4.882419 0
M  V30 25 C -4.602262 -3.967163 4.358432 0
M  V30 26 C -5.716642 -4.837735 4.815315 0
M  V30 27 C -4.850352 -2.996403 3.417828 0
M  V30 28 F -6.094186 -2.820366 2.900786 0
M  V30 29 C -3.804585 -2.182395 2.991205 0
M  V30 30 C -0.080889 0.134975 0.319962 0
M  V30 31 N 0.730245 0.189103 -2.687978 0
M  V30 32 H -0.529408 -1.649992 -6.335850 0
M  V30 33 H -0.900727 -1.050444 -4.661692 0
M  V30 34 H -0.643443 0.100613 -6.001563 0
M  V30 35 H 4.498802 2.310420 -2.291113 0
M  V30 36 H 6.370350 3.036404 -0.965384 0
M  V30 37 H 5.320604 0.248040 2.110160 0
M  V30 38 H 3.363703 -0.504216 0.713012 0
M  V30 39 H 1.500647 2.997200 -0.285509 0
M  V30 40 H 0.372209 3.617382 1.819037 0
M  V30 41 H -2.439171 -0.259421 1.660439 0
M  V30 42 H -1.353044 -3.506977 4.885028 0
M  V30 43 H -3.153869 -4.911910 5.622260 0
M  V30 44 H -6.635516 -4.619758 4.239413 0
M  V30 45 H -5.469937 -5.912890 4.606614 0
M  V30 46 H -5.888374 -4.774815 5.900577 0
M  V30 47 H -3.977727 -1.428573 2.266357 0
M  V30 48 H -0.239738 -0.865499 -0.067099 0
M  V30 49 H -0.304923 0.156199 -2.849652 0
M  V30 END ATOM
M  V30 BEGIN BOND
M  V30 1 1 1 2
M  V30 2 1 2 3
M  V30 3 2 3 4
M  V30 4 1 4 5
M  V30 5 1 5 6
M  V30 6 2 6 7
M  V30 7 1 7 8
M  V30 8 2 8 9
M  V30 9 1 9 10
M  V30 10 1 9 11
M  V30 11 2 11 12
M  V30 12 2 5 13
M  V30 13 1 13 14
M  V30 14 2 14 15
M  V30 15 1 15 16
M  V30 16 2 16 17
M  V30 17 1 17 18
M  V30 18 1 18 19
M  V30 19 1 19 20
M  V30 20 2 20 21
M  V30 21 1 20 22
M  V30 22 2 22 23
M  V30 23 1 23 24
M  V30 24 2 24 25
M  V30 25 1 25 26
M  V30 26 1 25 27
M  V30 27 1 27 28
M  V30 28 2 27 29
M  V30 29 2 18 30
M  V30 30 1 13 31
M  V30 31 1 31 3
M  V30 32 1 12 6
M  V30 33 1 30 14
M  V30 34 1 29 22
M  V30 35 1 1 32
M  V30 36 1 1 33
M  V30 37 1 1 34
M  V30 38 1 7 35
M  V30 39 1 8 36
M  V30 40 1 11 37
M  V30 41 1 12 38
M  V30 42 1 15 39
M  V30 43 1 16 40
M  V30 44 1 19 41
M  V30 45 1 23 42
M  V30 46 1 24 43
M  V30 47 1 26 44
M  V30 48 1 26 45
M  V30 49 1 26 46
M  V30 50 1 29 47
M  V30 51 1 30 48
M  V30 52 1 31 49
M  V30 END BOND
M  V30 END CTAB
M  END
>  <Dataset>  (3) 
ChEMBL_Kinases

>  <Ligand_Instance>  (3) 
nan

>  <PDB_ID>  (3) 
nan

>  <Standardized_SMILES>  (3) 
CSc1nc(-c2ccc(F)cc2)c(-c2ccnc(NC(=O)c3ccc(C)c(F)c3)c2)[nH]1

>  <Name>  (3) 
nan

>  <Pocket>  (3) 
nan

>  <ATP_Site>  (3) 
nan

>  <Peripheral>  (3) 
nan

>  <Num_H_Atoms_ProtBoundConf>  (3) 
nan

>  <Num_Resolved_Atoms>  (3) 
nan

>  <Num_Not_Resolved_Atoms>  (3) 
nan

$$$$
CHEMBL1271554
     RDKit          3D

  0  0  0  0  0  0  0  0  0  0999 V3000
M  V30 BEGIN CTAB
M  V30 COUNTS 49 52 0 0 0
M  V30 BEGIN ATOM
M  V30 1 C 4.546708 -3.208796 4.273638 0
M  V30 2 S 4.208343 -3.444527 2.526931 0
M  V30 3 C 3.505492 -1.965814 1.816724 0
M  V30 4 N 4.321061 -1.036290 1.295126 0
M  V30 5 C 3.584272 -0.016033 0.819847 0
M  V30 6 C 3.871284 1.240098 0.163651 0
M  V30 7 C 3.350481 1.336793 -1.131897 0
M  V30 8 C 3.537322 2.472391 -1.891626 0
M  V30 9 C 4.229266 3.550370 -1.432571 0
M  V30 10 F 4.388428 4.643453 -2.212091 0
M  V30 11 C 4.741315 3.450520 -0.153389 0
M  V30 12 C 4.571310 2.337674 0.621246 0
M  V30 13 C 2.272144 -0.338793 1.062295 0
M  V30 14 C 1.025417 0.335442 0.792329 0
M  V30 15 C 0.776457 1.566954 1.385283 0
M  V30 16 C -0.424774 2.204980 1.118821 0
M  V30 17 N -1.295614 1.611415 0.302934 0
M  V30 18 C -1.064596 0.405537 -0.284457 0
M  V30 19 N -2.067140 -0.165676 -1.156364 0
M  V30 20 C -2.945616 -0.961127 -0.386104 0
M  V30 21 O -3.180849 -1.359167 0.784135 0
M  V30 22 C -4.100281 -1.704506 -0.946824 0
M  V30 23 C -4.848805 -2.448131 0.068961 0
M  V30 24 C -4.390213 -3.753038 0.282554 0
M  V30 25 C -5.023568 -4.561470 1.227716 0
M  V30 26 C -6.096039 -4.091917 1.954849 0
M  V30 27 F -6.657005 -4.925498 2.847753 0
M  V30 28 C -6.533653 -2.793550 1.725798 0
M  V30 29 C -5.923532 -1.978367 0.797969 0
M  V30 30 C 0.130143 -0.286495 -0.053407 0
M  V30 31 N 2.239568 -1.557762 1.684546 0
M  V30 32 H 3.975002 -2.341133 4.700556 0
M  V30 33 H 4.263612 -4.116624 4.878835 0
M  V30 34 H 5.608492 -2.987124 4.504420 0
M  V30 35 H 2.777456 0.530225 -1.602759 0
M  V30 36 H 3.121497 2.521621 -2.897084 0
M  V30 37 H 5.303868 4.284468 0.264703 0
M  V30 38 H 4.950100 2.205724 1.628139 0
M  V30 39 H 1.488530 2.043511 2.047525 0
M  V30 40 H -0.646073 3.178550 1.574519 0
M  V30 41 H -2.297892 -0.140559 -2.171539 0
M  V30 42 H -3.870439 -2.357947 -1.786235 0
M  V30 43 H -4.808043 -0.917765 -1.339313 0
M  V30 44 H -3.548470 -4.179899 -0.259923 0
M  V30 45 H -4.638970 -5.570620 1.366206 0
M  V30 46 H -7.385406 -2.425156 2.305484 0
M  V30 47 H -6.241205 -0.964558 0.597860 0
M  V30 48 H 0.331330 -1.252729 -0.515663 0
M  V30 49 H 1.462185 -2.176106 2.045494 0
M  V30 END ATOM
M  V30 BEGIN BOND
M  V30 1 1 1 2
M  V30 2 1 2 3
M  V30 3 2 3 4
M  V30 4 1 4 5
M  V30 5 1 5 6
M  V30 6 2 6 7
M  V30 7 1 7 8
M  V30 8 2 8 9
M  V30 9 1 9 10
M  V30 10 1 9 11
M  V30 11 2 11 12
M  V30 12 2 5 13
M  V30 13 1 13 14
M  V30 14 2 14 15
M  V30 15 1 15 16
M  V30 16 2 16 17
M  V30 17 1 17 18
M  V30 18 1 18 19
M  V30 19 1 19 20
M  V30 20 2 20 21
M  V30 21 1 20 22
M  V30 22 1 22 23
M  V30 23 2 23 24
M  V30 24 1 24 25
M  V30 25 2 25 26
M  V30 26 1 26 27
M  V30 27 1 26 28
M  V30 28 2 28 29
M  V30 29 2 18 30
M  V30 30 1 13 31
M  V30 31 1 31 3
M  V30 32 1 12 6
M  V30 33 1 30 14
M  V30 34 1 29 23
M  V30 35 1 1 32
M  V30 36 1 1 33
M  V30 37 1 1 34
M  V30 38 1 7 35
M  V30 39 1 8 36
M  V30 40 1 11 37
M  V30 41 1 12 38
M  V30 42 1 15 39
M  V30 43 1 16 40
M  V30 44 1 19 41
M  V30 45 1 22 42
M  V30 46 1 22 43
M  V30 47 1 24 44
M  V30 48 1 25 45
M  V30 49 1 28 46
M  V30 50 1 29 47
M  V30 51 1 30 48
M  V30 52 1 31 49
M  V30 END BOND
M  V30 END CTAB
M  END
>  <Dataset>  (4) 
ChEMBL_Kinases

>  <Ligand_Instance>  (4) 
nan

>  <PDB_ID>  (4) 
nan

>  <Standardized_SMILES>  (4) 
CSc1nc(-c2ccc(F)cc2)c(-c2ccnc(NC(=O)Cc3ccc(F)cc3)c2)[nH]1

>  <Name>  (4) 
nan

>  <Pocket>  (4) 
nan

>  <ATP_Site>  (4) 
nan

>  <Peripheral>  (4) 
nan

>  <Num_H_Atoms_ProtBoundConf>  (4) 
nan

>  <Num_Resolved_Atoms>  (4) 
nan

>  <Num_Not_Resolved_Atoms>  (4) 
nan

$$$$
CHEMBL1271524
     RDKit          3D

  0  0  0  0  0  0  0  0  0  0999 V3000
M  V30 BEGIN CTAB
M  V30 COUNTS 74 77 0 0 0
M  V30 BEGIN ATOM
M  V30 1 C 3.819262 1.780591 7.982132 0
M  V30 2 C 3.181564 3.107103 7.738393 0
M  V30 3 N 2.282278 3.127635 6.601078 0
M  V30 4 C 2.985262 2.788249 5.416278 0
M  V30 5 O 4.208539 2.544690 5.575998 0
M  V30 6 C 2.346308 2.722187 4.095668 0
M  V30 7 C 3.147652 2.389661 2.998187 0
M  V30 8 C 2.585842 2.317447 1.741819 0
M  V30 9 C 1.268757 2.571848 1.602911 0
M  V30 10 C 0.474824 2.898028 2.681500 0
M  V30 11 C 1.023147 2.975380 3.950267 0
M  V30 12 N -0.889547 3.095637 2.258845 0
M  V30 13 C -0.975965 2.887081 0.833223 0
M  V30 14 O -1.963682 2.956639 0.065316 0
M  V30 15 C 0.393810 2.565750 0.472113 0
M  V30 16 C 0.787981 2.372057 -0.759208 0
M  V30 17 N -0.041139 2.345214 -1.918624 0
M  V30 18 C -0.886545 1.217500 -2.157647 0
M  V30 19 C -0.933105 0.144507 -1.296251 0
M  V30 20 C -1.735895 -0.949061 -1.505486 0
M  V30 21 C -2.550915 -1.013095 -2.623639 0
M  V30 22 C -3.458758 -2.097206 -2.996755 0
M  V30 23 O -4.189498 -2.123586 -4.037087 0
M  V30 24 N -3.628067 -3.282206 -2.207575 0
M  V30 25 C -4.557478 -4.313545 -2.662432 0
M  V30 26 C -4.513791 -5.419154 -1.630490 0
M  V30 27 N -3.216652 -5.988316 -1.461524 0
M  V30 28 C -3.205536 -7.043478 -0.466003 0
M  V30 29 C -1.807219 -7.585612 -0.317620 0
M  V30 30 C -2.554284 -6.383957 -2.678535 0
M  V30 31 C -3.197834 -7.549314 -3.377493 0
M  V30 32 C -2.535206 0.056503 -3.526205 0
M  V30 33 C -1.700107 1.120650 -3.244784 0
M  V30 34 C 2.101500 2.273742 -1.315119 0
M  V30 35 C 2.632874 1.213829 -2.042596 0
M  V30 36 C 3.886495 1.218209 -2.620641 0
M  V30 37 C 4.698231 2.307189 -2.501128 0
M  V30 38 C 4.264510 3.409644 -1.799529 0
M  V30 39 C 3.006243 3.351156 -1.244278 0
M  V30 40 H 3.828785 1.588998 9.074919 0
M  V30 41 H 3.236567 0.917851 7.554230 0
M  V30 42 H 4.890929 1.720227 7.674872 0
M  V30 43 H 2.589881 3.393976 8.614205 0
M  V30 44 H 4.004003 3.851087 7.659275 0
M  V30 45 H 1.262972 3.347113 6.570682 0
M  V30 46 H 4.212590 2.200379 3.217198 0
M  V30 47 H 3.302103 2.032799 1.029210 0
M  V30 48 H 0.369279 3.232839 4.760670 0
M  V30 49 H -1.702774 3.351019 2.867144 0
M  V30 50 H -0.081793 3.119809 -2.639528 0
M  V30 51 H -0.326475 0.119294 -0.402577 0
M  V30 52 H -1.797459 -1.807799 -0.850012 0
M  V30 53 H -3.062616 -3.356401 -1.316206 0
M  V30 54 H -5.555697 -3.815240 -2.680449 0
M  V30 55 H -4.294877 -4.732131 -3.635753 0
M  V30 56 H -4.782103 -4.938950 -0.660034 0
M  V30 57 H -5.256985 -6.219187 -1.853914 0
M  V30 58 H -3.899716 -7.869751 -0.723619 0
M  V30 59 H -3.560399 -6.618097 0.490832 0
M  V30 60 H -1.677344 -7.913304 0.752854 0
M  V30 61 H -1.065051 -6.766879 -0.464785 0
M  V30 62 H -1.618669 -8.479365 -0.936191 0
M  V30 63 H -1.512128 -6.699677 -2.449629 0
M  V30 64 H -2.456517 -5.527713 -3.371759 0
M  V30 65 H -3.391894 -8.378353 -2.671473 0
M  V30 66 H -2.437772 -7.962547 -4.091913 0
M  V30 67 H -4.051876 -7.257716 -4.000483 0
M  V30 68 H -3.155735 0.068523 -4.429616 0
M  V30 69 H -1.698507 1.949461 -3.958269 0
M  V30 70 H 1.991074 0.343420 -2.141831 0
M  V30 71 H 4.233165 0.358545 -3.171587 0
M  V30 72 H 5.680642 2.384873 -2.920548 0
M  V30 73 H 4.831094 4.321236 -1.647749 0
M  V30 74 H 2.635659 4.216858 -0.679782 0
M  V30 END ATOM
M  V30 BEGIN BOND
M  V30 1 1 1 2
M  V30 2 1 2 3
M  V30 3 1 3 4
M  V30 4 2 4 5
M  V30 5 1 4 6
M  V30 6 2 6 7
M  V30 7 1 7 8
M  V30 8 2 8 9
M  V30 9 1 9 10
M  V30 10 2 10 11
M  V30 11 1 10 12
M  V30 12 1 12 13
M  V30 13 2 13 14
M  V30 14 1 13 15
M  V30 15 2 15 16
M  V30 16 1 16 17
M  V30 17 1 17 18
M  V30 18 2 18 19
M  V30 19 1 19 20
M  V30 20 2 20 21
M  V30 21 1 21 22
M  V30 22 2 22 23
M  V30 23 1 22 24
M  V30 24 1 24 25
M  V30 25 1 25 26
M  V30 26 1 26 27
M  V30 27 1 27 28
M  V30 28 1 28 29
M  V30 29 1 27 30
M  V30 30 1 30 31
M  V30 31 1 21 32
M  V30 32 2 32 33
M  V30 33 1 16 34
M  V30 34 2 34 35
M  V30 35 1 35 36
M  V30 36 2 36 37
M  V30 37 1 37 38
M  V30 38 2 38 39
M  V30 39 1 11 6
M  V30 40 1 33 18
M  V30 41 1 39 34
M  V30 42 1 15 9
M  V30 43 1 1 40
M  V30 44 1 1 41
M  V30 45 1 1 42
M  V30 46 1 2 43
M  V30 47 1 2 44
M  V30 48 1 3 45
M  V30 49 1 7 46
M  V30 50 1 8 47
M  V30 51 1 11 48
M  V30 52 1 12 49
M  V30 53 1 17 50
M  V30 54 1 19 51
M  V30 55 1 20 52
M  V30 56 1 24 53
M  V30 57 1 25 54
M  V30 58 1 25 55
M  V30 59 1 26 56
M  V30 60 1 26 57
M  V30 61 1 28 58
M  V30 62 1 28 59
M  V30 63 1 29 60
M  V30 64 1 29 61
M  V30 65 1 29 62
M  V30 66 1 30 63
M  V30 67 1 30 64
M  V30 68 1 31 65
M  V30 69 1 31 66
M  V30 70 1 31 67
M  V30 71 1 32 68
M  V30 72 1 33 69
M  V30 73 1 35 70
M  V30 74 1 36 71
M  V30 75 1 37 72
M  V30 76 1 38 73
M  V30 77 1 39 74
M  V30 END BOND
M  V30 END CTAB
M  END
>  <Dataset>  (5) 
ChEMBL_Kinases

>  <Ligand_Instance>  (5) 
nan

>  <PDB_ID>  (5) 
nan

>  <Standardized_SMILES>  (5) 
CCNC(=O)c1ccc2c(c1)NC(=O)/C2=C(\Nc1ccc(C(=O)NCCN(CC)CC)cc1)c1ccccc1

>  <Name>  (5) 
nan

>  <Pocket>  (5) 
nan

>  <ATP_Site>  (5) 
nan

>  <Peripheral>  (5) 
nan

>  <Num_H_Atoms_ProtBoundConf>  (5) 
nan

>  <Num_Resolved_Atoms>  (5) 
nan

>  <Num_Not_Resolved_Atoms>  (5) 
nan

$$$$
CHEMBL1271472
     RDKit          3D

  0  0  0  0  0  0  0  0  0  0999 V3000
M  V30 BEGIN CTAB
M  V30 COUNTS 68 72 0 0 0
M  V30 BEGIN ATOM
M  V30 1 C 7.554328 -0.578715 4.988986 0
M  V30 2 C 6.680986 0.642153 5.213644 0
M  V30 3 N 5.619437 0.669267 4.245102 0
M  V30 4 C 4.602388 1.654574 4.144929 0
M  V30 5 O 4.732514 2.556472 5.047914 0
M  V30 6 C 3.525915 1.699032 3.175732 0
M  V30 7 C 3.347193 0.789282 2.143378 0
M  V30 8 C 2.284832 0.910893 1.272048 0
M  V30 9 C 1.378942 1.912439 1.382296 0
M  V30 10 C 1.543700 2.820903 2.403092 0
M  V30 11 C 2.601284 2.715045 3.284932 0
M  V30 12 N 0.480263 3.767181 2.364347 0
M  V30 13 C -0.380757 3.422276 1.263074 0
M  V30 14 O -1.419617 3.990690 0.883694 0
M  V30 15 C 0.185909 2.240923 0.628813 0
M  V30 16 C -0.219339 1.610819 -0.453407 0
M  V30 17 N -1.440678 2.073670 -1.059172 0
M  V30 18 C -2.337550 0.995214 -1.363898 0
M  V30 19 C -2.529703 0.312747 -2.544652 0
M  V30 20 C -3.440744 -0.716692 -2.607671 0
M  V30 21 C -4.188106 -1.094266 -1.488933 0
M  V30 22 C -5.163429 -2.232821 -1.586763 0
M  V30 23 N -4.511028 -3.485984 -1.253870 0
M  V30 24 C -5.398088 -4.629312 -1.314716 0
M  V30 25 C -4.501864 -5.804251 -1.692529 0
M  V30 26 C -3.195477 -5.645026 -0.954321 0
M  V30 27 C -3.307523 -4.837754 0.309094 0
M  V30 28 C -3.925219 -3.471211 0.052060 0
M  V30 29 C -3.978794 -0.395913 -0.318265 0
M  V30 30 C -3.073729 0.636644 -0.230473 0
M  V30 31 C 0.494851 0.572678 -1.180958 0
M  V30 32 C 0.260215 -0.756750 -1.444091 0
M  V30 33 C 1.117288 -1.449071 -2.268821 0
M  V30 34 C 2.211802 -0.866036 -2.849475 0
M  V30 35 C 2.465373 0.465959 -2.598524 0
M  V30 36 C 1.603759 1.188620 -1.760844 0
M  V30 37 H 8.293196 -0.667704 5.786492 0
M  V30 38 H 8.051543 -0.491948 4.017463 0
M  V30 39 H 6.906384 -1.498805 5.036855 0
M  V30 40 H 6.329609 0.590293 6.271357 0
M  V30 41 H 7.360048 1.517300 5.133075 0
M  V30 42 H 5.565566 -0.110946 3.522309 0
M  V30 43 H 4.117512 0.014223 2.121242 0
M  V30 44 H 2.311337 0.104831 0.575076 0
M  V30 45 H 2.713064 3.448304 4.086986 0
M  V30 46 H 0.289159 4.586560 2.981921 0
M  V30 47 H -1.628164 3.070783 -1.245695 0
M  V30 48 H -1.907654 0.679473 -3.346723 0
M  V30 49 H -3.549437 -1.212939 -3.552375 0
M  V30 50 H -5.613639 -2.262910 -2.593264 0
M  V30 51 H -5.946615 -2.041347 -0.832468 0
M  V30 52 H -5.786155 -4.840306 -0.279407 0
M  V30 53 H -6.229739 -4.497646 -2.012592 0
M  V30 54 H -4.982560 -6.784722 -1.497435 0
M  V30 55 H -4.268118 -5.695986 -2.793000 0
M  V30 56 H -2.879089 -6.673943 -0.627342 0
M  V30 57 H -2.376097 -5.294838 -1.613629 0
M  V30 58 H -2.259564 -4.691531 0.673375 0
M  V30 59 H -3.819818 -5.406510 1.090334 0
M  V30 60 H -4.708529 -3.346231 0.854321 0
M  V30 61 H -3.177301 -2.678988 0.225613 0
M  V30 62 H -4.580457 -0.717154 0.538921 0
M  V30 63 H -3.016949 1.088673 0.746318 0
M  V30 64 H -0.627083 -1.074892 -0.915186 0
M  V30 65 H 0.811938 -2.497472 -2.393242 0
M  V30 66 H 2.785500 -1.539396 -3.469460 0
M  V30 67 H 3.348129 0.844063 -3.094517 0
M  V30 68 H 1.977423 2.217171 -1.692306 0
M  V30 END ATOM
M  V30 BEGIN BOND
M  V30 1 1 1 2
M  V30 2 1 2 3
M  V30 3 1 3 4
M  V30 4 2 4 5
M  V30 5 1 4 6
M  V30 6 2 6 7
M  V30 7 1 7 8
M  V30 8 2 8 9
M  V30 9 1 9 10
M  V30 10 2 10 11
M  V30 11 1 10 12
M  V30 12 1 12 13
M  V30 13 2 13 14
M  V30 14 1 13 15
M  V30 15 2 15 16
M  V30 16 1 16 17
M  V30 17 1 17 18
M  V30 18 2 18 19
M  V30 19 1 19 20
M  V30 20 2 20 21
M  V30 21 1 21 22
M  V30 22 1 22 23
M  V30 23 1 23 24
M  V30 24 1 24 25
M  V30 25 1 25 26
M  V30 26 1 26 27
M  V30 27 1 27 28
M  V30 28 1 21 29
M  V30 29 2 29 30
M  V30 30 1 16 31
M  V30 31 2 31 32
M  V30 32 1 32 33
M  V30 33 2 33 34
M  V30 34 1 34 35
M  V30 35 2 35 36
M  V30 36 1 11 6
M  V30 37 1 30 18
M  V30 38 1 36 31
M  V30 39 1 15 9
M  V30 40 1 28 23
M  V30 41 1 1 37
M  V30 42 1 1 38
M  V30 43 1 1 39
M  V30 44 1 2 40
M  V30 45 1 2 41
M  V30 46 1 3 42
M  V30 47 1 7 43
M  V30 48 1 8 44
M  V30 49 1 11 45
M  V30 50 1 12 46
M  V30 51 1 17 47
M  V30 52 1 19 48
M  V30 53 1 20 49
M  V30 54 1 22 50
M  V30 55 1 22 51
M  V30 56 1 24 52
M  V30 57 1 24 53
M  V30 58 1 25 54
M  V30 59 1 25 55
M  V30 60 1 26 56
M  V30 61 1 26 57
M  V30 62 1 27 58
M  V30 63 1 27 59
M  V30 64 1 28 60
M  V30 65 1 28 61
M  V30 66 1 29 62
M  V30 67 1 30 63
M  V30 68 1 32 64
M  V30 69 1 33 65
M  V30 70 1 34 66
M  V30 71 1 35 67
M  V30 72 1 36 68
M  V30 END BOND
M  V30 END CTAB
M  END
>  <Dataset>  (6) 
ChEMBL_Kinases

>  <Ligand_Instance>  (6) 
nan

>  <PDB_ID>  (6) 
nan

>  <Standardized_SMILES>  (6) 
CCNC(=O)c1ccc2c(c1)NC(=O)/C2=C(\Nc1ccc(CN2CCCCC2)cc1)c1ccccc1

>  <Name>  (6) 
nan

>  <Pocket>  (6) 
nan

>  <ATP_Site>  (6) 
nan

>  <Peripheral>  (6) 
nan

>  <Num_H_Atoms_ProtBoundConf>  (6) 
nan

>  <Num_Resolved_Atoms>  (6) 
nan

>  <Num_Not_Resolved_Atoms>  (6) 
nan

$$$$
CHEMBL1271471
     RDKit          3D

  0  0  0  0  0  0  0  0  0  0999 V3000
M  V30 BEGIN CTAB
M  V30 COUNTS 64 67 0 0 0
M  V30 BEGIN ATOM
M  V30 1 C 5.704284 -1.883140 1.594069 0
M  V30 2 C 5.468774 -0.786460 2.597841 0
M  V30 3 N 6.227004 0.387787 2.357088 0
M  V30 4 C 5.808342 1.085531 1.185885 0
M  V30 5 C 4.351094 1.459353 1.236419 0
M  V30 6 C 3.371845 0.616716 0.710580 0
M  V30 7 C 2.069641 1.054874 0.817761 0
M  V30 8 C 1.651087 2.234390 1.389623 0
M  V30 9 N 0.284526 2.625134 1.475069 0
M  V30 10 C -0.614599 1.664695 0.931833 0
M  V30 11 C -0.872457 0.537772 1.542855 0
M  V30 12 C -0.380212 0.021321 2.805877 0
M  V30 13 O 0.384626 0.682382 3.545578 0
M  V30 14 N -0.929037 -1.278375 2.964977 0
M  V30 15 C -1.731974 -1.535472 1.820157 0
M  V30 16 C -2.449538 -2.683591 1.524479 0
M  V30 17 C -3.155590 -2.764796 0.346414 0
M  V30 18 C -3.879334 -4.000222 0.109608 0
M  V30 19 O -4.766921 -4.123810 1.022872 0
M  V30 20 N -3.662337 -4.931054 -0.944253 0
M  V30 21 C -2.647292 -4.748508 -1.963483 0
M  V30 22 C -4.550785 -6.100494 -0.915293 0
M  V30 23 C -5.806489 -5.877243 -1.690259 0
M  V30 24 C -3.139892 -1.685396 -0.539950 0
M  V30 25 C -2.414649 -0.565041 -0.205141 0
M  V30 26 C -1.708756 -0.464401 0.961318 0
M  V30 27 C -1.198581 2.277459 -0.238711 0
M  V30 28 C -2.562163 2.548046 -0.018358 0
M  V30 29 C -3.349561 3.140739 -0.990678 0
M  V30 30 C -2.812565 3.484679 -2.211768 0
M  V30 31 C -1.477804 3.209534 -2.401380 0
M  V30 32 C -0.665006 2.623515 -1.463530 0
M  V30 33 C 2.683086 3.006532 1.883269 0
M  V30 34 C 4.022045 2.680875 1.837581 0
M  V30 35 H 6.592389 -2.499334 1.915512 0
M  V30 36 H 5.850868 -1.450407 0.596912 0
M  V30 37 H 4.816979 -2.569503 1.577278 0
M  V30 38 H 4.359553 -0.560666 2.615396 0
M  V30 39 H 5.754487 -1.245466 3.595999 0
M  V30 40 H 7.233108 0.193766 2.291902 0
M  V30 41 H 6.355926 2.054410 1.051853 0
M  V30 42 H 6.067374 0.497293 0.290886 0
M  V30 43 H 3.644300 -0.318381 0.251950 0
M  V30 44 H 1.334476 0.374617 0.398211 0
M  V30 45 H 0.095951 3.559108 1.920294 0
M  V30 46 H -0.753483 -1.904201 3.786563 0
M  V30 47 H -2.448527 -3.506814 2.221824 0
M  V30 48 H -2.845928 -3.892392 -2.639061 0
M  V30 49 H -2.710341 -5.658308 -2.629380 0
M  V30 50 H -1.635068 -4.656304 -1.568495 0
M  V30 51 H -4.802372 -6.388402 0.117405 0
M  V30 52 H -4.009872 -6.968830 -1.393322 0
M  V30 53 H -6.659811 -6.295589 -1.122449 0
M  V30 54 H -5.804708 -6.398806 -2.672853 0
M  V30 55 H -6.027099 -4.809607 -1.882617 0
M  V30 56 H -3.735792 -1.893788 -1.417946 0
M  V30 57 H -2.503911 0.122366 -1.013389 0
M  V30 58 H -3.132255 2.332412 0.900129 0
M  V30 59 H -4.399320 3.362003 -0.855258 0
M  V30 60 H -3.371030 3.954226 -3.025736 0
M  V30 61 H -0.965950 3.441343 -3.322768 0
M  V30 62 H 0.380844 2.371095 -1.517659 0
M  V30 63 H 2.473124 3.956494 2.355116 0
M  V30 64 H 4.805743 3.298955 2.229070 0
M  V30 END ATOM
M  V30 BEGIN BOND
M  V30 1 1 1 2
M  V30 2 1 2 3
M  V30 3 1 3 4
M  V30 4 1 4 5
M  V30 5 2 5 6
M  V30 6 1 6 7
M  V30 7 2 7 8
M  V30 8 1 8 9
M  V30 9 1 9 10
M  V30 10 2 10 11
M  V30 11 1 11 12
M  V30 12 2 12 13
M  V30 13 1 12 14
M  V30 14 1 14 15
M  V30 15 2 15 16
M  V30 16 1 16 17
M  V30 17 1 17 18
M  V30 18 2 18 19
M  V30 19 1 18 20
M  V30 20 1 20 21
M  V30 21 1 20 22
M  V30 22 1 22 23
M  V30 23 2 17 24
M  V30 24 1 24 25
M  V30 25 2 25 26
M  V30 26 1 10 27
M  V30 27 2 27 28
M  V30 28 1 28 29
M  V30 29 2 29 30
M  V30 30 1 30 31
M  V30 31 2 31 32
M  V30 32 1 8 33
M  V30 33 2 33 34
M  V30 34 1 34 5
M  V30 35 1 26 11
M  V30 36 1 32 27
M  V30 37 1 26 15
M  V30 38 1 1 35
M  V30 39 1 1 36
M  V30 40 1 1 37
M  V30 41 1 2 38
M  V30 42 1 2 39
M  V30 43 1 3 40
M  V30 44 1 4 41
M  V30 45 1 4 42
M  V30 46 1 6 43
M  V30 47 1 7 44
M  V30 48 1 9 45
M  V30 49 1 14 46
M  V30 50 1 16 47
M  V30 51 1 21 48
M  V30 52 1 21 49
M  V30 53 1 21 50
M  V30 54 1 22 51
M  V30 55 1 22 52
M  V30 56 1 23 53
M  V30 57 1 23 54
M  V30 58 1 23 55
M  V30 59 1 24 56
M  V30 60 1 25 57
M  V30 61 1 28 58
M  V30 62 1 29 59
M  V30 63 1 30 60
M  V30 64 1 31 61
M  V30 65 1 32 62
M  V30 66 1 33 63
M  V30 67 1 34 64
M  V30 END BOND
M  V30 END CTAB
M  END
>  <Dataset>  (7) 
ChEMBL_Kinases

>  <Ligand_Instance>  (7) 
nan

>  <PDB_ID>  (7) 
nan

>  <Standardized_SMILES>  (7) 
CCNCc1ccc(N/C(=C2\C(=O)Nc3cc(C(=O)N(C)CC)ccc32)c2ccccc2)cc1

>  <Name>  (7) 
nan

>  <Pocket>  (7) 
nan

>  <ATP_Site>  (7) 
nan

>  <Peripheral>  (7) 
nan

>  <Num_H_Atoms_ProtBoundConf>  (7) 
nan

>  <Num_Resolved_Atoms>  (7) 
nan

>  <Num_Not_Resolved_Atoms>  (7) 
nan

$$$$
CHEMBL1271470
     RDKit          3D

  0  0  0  0  0  0  0  0  0  0999 V3000
M  V30 BEGIN CTAB
M  V30 COUNTS 71 74 0 0 0
M  V30 BEGIN ATOM
M  V30 1 C 6.531990 0.145995 5.696969 0
M  V30 2 C 6.686792 0.471317 4.227954 0
M  V30 3 N 5.414849 0.586784 3.538576 0
M  V30 4 C 4.861247 -0.635585 2.935867 0
M  V30 5 C 4.734299 1.855042 3.456379 0
M  V30 6 O 5.424792 2.722903 4.052709 0
M  V30 7 C 3.464691 1.851305 2.738753 0
M  V30 8 C 3.410580 1.662131 1.365401 0
M  V30 9 C 2.190820 1.659885 0.733962 0
M  V30 10 C 1.064548 1.844276 1.484685 0
M  V30 11 C 1.100528 2.033219 2.837273 0
M  V30 12 C 2.310408 2.039922 3.498431 0
M  V30 13 N -0.214303 2.219918 3.348317 0
M  V30 14 C -1.170249 2.148515 2.270444 0
M  V30 15 O -2.403785 2.257263 2.270144 0
M  V30 16 C -0.324859 1.908500 1.113278 0
M  V30 17 C -0.785187 1.707151 -0.093273 0
M  V30 18 N -2.166559 1.769061 -0.520239 0
M  V30 19 C -2.995173 0.657205 -0.835482 0
M  V30 20 C -3.873259 0.026755 0.019354 0
M  V30 21 C -4.661934 -1.054299 -0.308126 0
M  V30 22 C -4.587785 -1.568658 -1.589662 0
M  V30 23 N -5.356226 -2.683820 -2.031296 0
M  V30 24 C -6.638602 -2.805118 -2.652920 0
M  V30 25 C -4.558050 -3.805474 -1.727932 0
M  V30 26 O -3.767204 -2.945582 -1.285033 0
M  V30 27 C -4.535850 -5.305091 -1.824995 0
M  V30 28 N -3.316530 -5.799442 -1.263209 0
M  V30 29 C -3.309950 -5.565589 0.172828 0
M  V30 30 C -2.114586 -5.347260 -1.897301 0
M  V30 31 C -3.724016 -0.979849 -2.498736 0
M  V30 32 C -2.952815 0.102680 -2.125052 0
M  V30 33 C -0.105777 1.242887 -1.287923 0
M  V30 34 C 0.491392 -0.022383 -1.461455 0
M  V30 35 C 1.137657 -0.385859 -2.617435 0
M  V30 36 C 1.215512 0.507087 -3.660808 0
M  V30 37 C 0.643968 1.771217 -3.547242 0
M  V30 38 C -0.016418 2.142220 -2.364568 0
M  V30 39 H 5.607788 -0.421011 5.838987 0
M  V30 40 H 6.575545 1.044492 6.333428 0
M  V30 41 H 7.371275 -0.522351 5.978779 0
M  V30 42 H 7.278648 1.411839 4.110076 0
M  V30 43 H 7.279460 -0.315399 3.724082 0
M  V30 44 H 4.818509 -1.398168 3.740293 0
M  V30 45 H 3.851833 -0.445746 2.511813 0
M  V30 46 H 5.558883 -1.015939 2.167334 0
M  V30 47 H 4.385707 1.523432 0.894479 0
M  V30 48 H 2.314077 1.529703 -0.317471 0
M  V30 49 H 2.323903 2.186194 4.566520 0
M  V30 50 H -0.470531 2.387348 4.355653 0
M  V30 51 H -2.498689 2.770882 -0.569068 0
M  V30 52 H -3.958251 0.395023 1.011753 0
M  V30 53 H -5.329118 -1.501408 0.407961 0
M  V30 54 H -7.146216 -1.856335 -2.832243 0
M  V30 55 H -6.577651 -3.397980 -3.608474 0
M  V30 56 H -7.289738 -3.444056 -1.990319 0
M  V30 57 H -5.361670 -5.673098 -1.155694 0
M  V30 58 H -4.793068 -5.659932 -2.827185 0
M  V30 59 H -2.690253 -4.655946 0.416587 0
M  V30 60 H -2.978697 -6.442035 0.754770 0
M  V30 61 H -4.326366 -5.304678 0.531815 0
M  V30 62 H -2.125378 -5.455434 -2.988780 0
M  V30 63 H -1.888992 -4.288782 -1.605297 0
M  V30 64 H -1.259521 -5.977936 -1.526693 0
M  V30 65 H -3.673293 -1.392484 -3.505698 0
M  V30 66 H -2.320821 0.484599 -2.892424 0
M  V30 67 H 0.382199 -0.675368 -0.584892 0
M  V30 68 H 1.571587 -1.375879 -2.671254 0
M  V30 69 H 1.703574 0.270766 -4.583999 0
M  V30 70 H 0.673103 2.527246 -4.345334 0
M  V30 71 H -0.475521 3.129780 -2.238543 0
M  V30 END ATOM
M  V30 BEGIN BOND
M  V30 1 1 1 2
M  V30 2 1 2 3
M  V30 3 1 3 4
M  V30 4 1 3 5
M  V30 5 2 5 6
M  V30 6 1 5 7
M  V30 7 2 7 8
M  V30 8 1 8 9
M  V30 9 2 9 10
M  V30 10 1 10 11
M  V30 11 2 11 12
M  V30 12 1 11 13
M  V30 13 1 13 14
M  V30 14 2 14 15
M  V30 15 1 14 16
M  V30 16 2 16 17
M  V30 17 1 17 18
M  V30 18 1 18 19
M  V30 19 2 19 20
M  V30 20 1 20 21
M  V30 21 2 21 22
M  V30 22 1 22 23
M  V30 23 1 23 24
M  V30 24 1 23 25
M  V30 25 2 25 26
M  V30 26 1 25 27
M  V30 27 1 27 28
M  V30 28 1 28 29
M  V30 29 1 28 30
M  V30 30 1 22 31
M  V30 31 2 31 32
M  V30 32 1 17 33
M  V30 33 2 33 34
M  V30 34 1 34 35
M  V30 35 2 35 36
M  V30 36 1 36 37
M  V30 37 2 37 38
M  V30 38 1 12 7
M  V30 39 1 32 19
M  V30 40 1 38 33
M  V30 41 1 16 10
M  V30 42 1 1 39
M  V30 43 1 1 40
M  V30 44 1 1 41
M  V30 45 1 2 42
M  V30 46 1 2 43
M  V30 47 1 4 44
M  V30 48 1 4 45
M  V30 49 1 4 46
M  V30 50 1 8 47
M  V30 51 1 9 48
M  V30 52 1 12 49
M  V30 53 1 13 50
M  V30 54 1 18 51
M  V30 55 1 20 52
M  V30 56 1 21 53
M  V30 57 1 24 54
M  V30 58 1 24 55
M  V30 59 1 24 56
M  V30 60 1 27 57
M  V30 61 1 27 58
M  V30 62 1 29 59
M  V30 63 1 29 60
M  V30 64 1 29 61
M  V30 65 1 30 62
M  V30 66 1 30 63
M  V30 67 1 30 64
M  V30 68 1 31 65
M  V30 69 1 32 66
M  V30 70 1 34 67
M  V30 71 1 35 68
M  V30 72 1 36 69
M  V30 73 1 37 70
M  V30 74 1 38 71
M  V30 END BOND
M  V30 END CTAB
M  END
>  <Dataset>  (8) 
ChEMBL_Kinases

>  <Ligand_Instance>  (8) 
nan

>  <PDB_ID>  (8) 
nan

>  <Standardized_SMILES>  (8) 
CCN(C)C(=O)c1ccc2c(c1)NC(=O)/C2=C(\Nc1ccc(N(C)C(=O)CN(C)C)cc1)c1ccccc1

>  <Name>  (8) 
nan

>  <Pocket>  (8) 
nan

>  <ATP_Site>  (8) 
nan

>  <Peripheral>  (8) 
nan

>  <Num_H_Atoms_ProtBoundConf>  (8) 
nan

>  <Num_Resolved_Atoms>  (8) 
nan

>  <Num_Not_Resolved_Atoms>  (8) 
nan

$$$$
CHEMBL1270169
     RDKit          3D

  0  0  0  0  0  0  0  0  0  0999 V3000
M  V30 BEGIN CTAB
M  V30 COUNTS 53 55 0 0 0
M  V30 BEGIN ATOM
M  V30 1 C 1.394276 -3.918795 5.321690 0
M  V30 2 N 0.164760 -3.679387 4.576368 0
M  V30 3 C -1.118951 -4.069847 5.096241 0
M  V30 4 C 0.292280 -3.041628 3.310665 0
M  V30 5 C 1.547847 -2.685710 2.854729 0
M  V30 6 C 1.711713 -2.062281 1.625792 0
M  V30 7 C 0.601442 -1.790014 0.839226 0
M  V30 8 C 0.636655 -1.126051 -0.499080 0
M  V30 9 C 0.518275 0.342183 -0.324279 0
M  V30 10 C 1.502742 1.248929 -0.700631 0
M  V30 11 C 1.432870 2.615853 -0.539767 0
M  V30 12 C 0.300750 3.148121 0.040658 0
M  V30 13 N 0.192998 4.544691 0.221814 0
M  V30 14 C 1.260962 5.421874 -0.196733 0
M  V30 15 C -0.998663 5.115216 0.833795 0
M  V30 16 C -0.722598 2.315406 0.442409 0
M  V30 17 C -0.574646 0.958317 0.246097 0
M  V30 18 C -0.279738 -1.724222 -1.463871 0
M  V30 19 C 0.208122 -2.938788 -1.973439 0
M  V30 20 C -0.463336 -3.700473 -2.904090 0
M  V30 21 C -1.683989 -3.273736 -3.381049 0
M  V30 22 N -2.403438 -4.030673 -4.338333 0 CHG=1 VAL=4
M  V30 23 O -3.505145 -3.615405 -4.748531 0
M  V30 24 O -1.980145 -5.224250 -4.874083 0 CHG=-1 VAL=1
M  V30 25 C -2.187469 -2.086414 -2.899673 0
M  V30 26 C -1.488872 -1.350027 -1.969164 0
M  V30 27 C -0.652584 -2.141039 1.285575 0
M  V30 28 C -0.811844 -2.767141 2.520902 0
M  V30 29 H 1.186216 -4.421101 6.292292 0
M  V30 30 H 1.851552 -2.924231 5.593238 0
M  V30 31 H 2.150932 -4.475880 4.766728 0
M  V30 32 H -0.998788 -4.827925 5.906366 0
M  V30 33 H -1.724562 -4.589595 4.316366 0
M  V30 34 H -1.721067 -3.231674 5.482849 0
M  V30 35 H 2.451070 -2.864845 3.408766 0
M  V30 36 H 2.644150 -1.744488 1.178812 0
M  V30 37 H 1.719172 -1.272196 -0.820632 0
M  V30 38 H 2.415950 0.856747 -1.165330 0
M  V30 39 H 2.246888 3.246807 -0.862091 0
M  V30 40 H 1.188657 6.426398 0.280671 0
M  V30 41 H 1.255882 5.598742 -1.300472 0
M  V30 42 H 2.261761 5.038455 0.118363 0
M  V30 43 H -0.947478 6.214491 0.824621 0
M  V30 44 H -1.926008 4.802888 0.312577 0
M  V30 45 H -1.061893 4.720590 1.872892 0
M  V30 46 H -1.576715 2.767161 0.885005 0
M  V30 47 H -1.415450 0.378718 0.597451 0
M  V30 48 H 1.166231 -3.401502 -1.684740 0
M  V30 49 H -0.108877 -4.623761 -3.301714 0
M  V30 50 H -3.139657 -1.677436 -3.220715 0
M  V30 51 H -1.846295 -0.413016 -1.570864 0
M  V30 52 H -1.611668 -2.004498 0.806084 0
M  V30 53 H -1.768209 -3.077541 2.947839 0
M  V30 END ATOM
M  V30 BEGIN BOND
M  V30 1 1 1 2
M  V30 2 1 2 3
M  V30 3 1 2 4
M  V30 4 2 4 5
M  V30 5 1 5 6
M  V30 6 2 6 7
M  V30 7 1 7 8
M  V30 8 1 8 9
M  V30 9 2 9 10
M  V30 10 1 10 11
M  V30 11 2 11 12
M  V30 12 1 12 13
M  V30 13 1 13 14
M  V30 14 1 13 15
M  V30 15 1 12 16
M  V30 16 2 16 17
M  V30 17 1 8 18
M  V30 18 2 18 19
M  V30 19 1 19 20
M  V30 20 2 20 21
M  V30 21 1 21 22
M  V30 22 2 22 23
M  V30 23 1 22 24
M  V30 24 1 21 25
M  V30 25 2 25 26
M  V30 26 1 7 27
M  V30 27 2 27 28
M  V30 28 1 28 4
M  V30 29 1 17 9
M  V30 30 1 26 18
M  V30 31 1 1 29
M  V30 32 1 1 30
M  V30 33 1 1 31
M  V30 34 1 3 32
M  V30 35 1 3 33
M  V30 36 1 3 34
M  V30 37 1 5 35
M  V30 38 1 6 36
M  V30 39 1 8 37
M  V30 40 1 10 38
M  V30 41 1 11 39
M  V30 42 1 14 40
M  V30 43 1 14 41
M  V30 44 1 14 42
M  V30 45 1 15 43
M  V30 46 1 15 44
M  V30 47 1 15 45
M  V30 48 1 16 46
M  V30 49 1 17 47
M  V30 50 1 19 48
M  V30 51 1 20 49
M  V30 52 1 25 50
M  V30 53 1 26 51
M  V30 54 1 27 52
M  V30 55 1 28 53
M  V30 END BOND
M  V30 END CTAB
M  END
>  <Dataset>  (9) 
ChEMBL_Kinases

>  <Ligand_Instance>  (9) 
nan

>  <PDB_ID>  (9) 
nan

>  <Standardized_SMILES>  (9) 
CN(C)c1ccc(C(c2ccc(N(C)C)cc2)c2ccc([N+](=O)[O-])cc2)cc1

>  <Name>  (9) 
nan

>  <Pocket>  (9) 
nan

>  <ATP_Site>  (9) 
nan

>  <Peripheral>  (9) 
nan

>  <Num_H_Atoms_ProtBoundConf>  (9) 
nan

>  <Num_Resolved_Atoms>  (9) 
nan

>  <Num_Not_Resolved_Atoms>  (9) 
nan

$$$$
CHEMBL1269806
     RDKit          3D

  0  0  0  0  0  0  0  0  0  0999 V3000
M  V30 BEGIN CTAB
M  V30 COUNTS 80 84 0 0 0
M  V30 BEGIN ATOM
M  V30 1 C -3.251970 2.545136 7.031213 0
M  V30 2 C -1.759202 2.553428 7.050057 0
M  V30 3 N -1.167339 2.134900 5.799709 0
M  V30 4 C -0.891437 0.739048 5.620005 0
M  V30 5 C -0.885842 3.115355 4.805486 0
M  V30 6 O -1.212976 4.276346 5.179482 0
M  V30 7 C -0.288912 2.649782 3.561285 0
M  V30 8 C 1.093356 2.429915 3.459417 0
M  V30 9 C 1.605856 1.990720 2.258857 0
M  V30 10 C 0.762775 1.782389 1.203852 0
M  V30 11 C -0.591226 1.995385 1.301159 0
M  V30 12 C -1.129967 2.434348 2.490118 0
M  V30 13 N -1.265583 1.686624 0.090276 0
M  V30 14 C -0.285267 1.250546 -0.843635 0
M  V30 15 O -0.454328 0.886516 -2.015438 0
M  V30 16 C 0.974009 1.314291 -0.146508 0
M  V30 17 C 2.171888 1.082128 -0.626918 0
M  V30 18 N 2.287662 0.606501 -1.972248 0
M  V30 19 C 1.918656 -0.772336 -2.183223 0
M  V30 20 C 1.505898 -1.527972 -1.083074 0
M  V30 21 C 1.163519 -2.834112 -1.348243 0
M  V30 22 C 1.222592 -3.379135 -2.636406 0
M  V30 23 N 0.818921 -4.747776 -2.658224 0
M  V30 24 C 2.066561 -5.451605 -2.376207 0
M  V30 25 C -0.345933 -5.547704 -2.861000 0
M  V30 26 O -0.209326 -6.818825 -2.731005 0
M  V30 27 C -1.778951 -5.450047 -3.195263 0
M  V30 28 N -2.125082 -4.057347 -3.397492 0
M  V30 29 C -2.055239 -3.357796 -2.149602 0
M  V30 30 C -3.429481 -2.974596 -1.699504 0
M  V30 31 N -4.054602 -2.114472 -2.654423 0
M  V30 32 C -3.395629 -0.825350 -2.686156 0
M  V30 33 C -4.043919 -2.653639 -3.998319 0
M  V30 34 C -3.400161 -4.021831 -4.046499 0
M  V30 35 C 1.635043 -2.606613 -3.704207 0
M  V30 36 C 1.981882 -1.294905 -3.455169 0
M  V30 37 C 3.490452 1.329491 -0.112184 0
M  V30 38 C 3.842289 2.664141 0.169732 0
M  V30 39 C 5.087851 2.997690 0.672082 0
M  V30 40 C 6.010619 1.997801 0.904215 0
M  V30 41 C 5.675200 0.694349 0.632497 0
M  V30 42 C 4.435149 0.345790 0.129991 0
M  V30 43 H -3.675378 3.437787 7.522809 0
M  V30 44 H -3.605019 2.473612 5.970294 0
M  V30 45 H -3.611468 1.627253 7.538477 0
M  V30 46 H -1.399273 1.875268 7.850647 0
M  V30 47 H -1.424545 3.567480 7.351070 0
M  V30 48 H -1.190424 0.443990 4.576277 0
M  V30 49 H -1.448762 0.109890 6.314926 0
M  V30 50 H 0.206663 0.551792 5.726608 0
M  V30 51 H 1.646665 2.640015 4.387085 0
M  V30 52 H 2.636382 1.847108 2.347428 0
M  V30 53 H -2.172829 2.605833 2.588228 0
M  V30 54 H -2.277826 1.756879 -0.106466 0
M  V30 55 H 2.610185 1.186358 -2.753504 0
M  V30 56 H 1.458861 -1.110804 -0.088115 0
M  V30 57 H 0.846391 -3.392914 -0.467044 0
M  V30 58 H 1.894932 -6.559222 -2.316043 0
M  V30 59 H 2.496244 -5.143201 -1.422262 0
M  V30 60 H 2.745480 -5.271696 -3.216269 0
M  V30 61 H -2.441059 -5.914759 -2.426889 0
M  V30 62 H -2.027699 -6.000660 -4.138406 0
M  V30 63 H -1.511119 -2.407205 -2.345856 0
M  V30 64 H -1.511930 -3.983455 -1.410461 0
M  V30 65 H -3.342773 -2.389123 -0.749031 0
M  V30 66 H -4.020871 -3.887359 -1.488762 0
M  V30 67 H -2.446321 -0.856199 -3.263523 0
M  V30 68 H -4.059422 -0.118521 -3.254713 0
M  V30 69 H -3.195154 -0.404781 -1.687345 0
M  V30 70 H -3.614691 -1.971364 -4.750636 0
M  V30 71 H -5.110429 -2.778283 -4.284124 0
M  V30 72 H -3.262770 -4.284983 -5.113945 0
M  V30 73 H -4.108447 -4.794104 -3.638746 0
M  V30 74 H 1.641509 -3.126004 -4.640562 0
M  V30 75 H 2.300789 -0.717425 -4.314662 0
M  V30 76 H 3.093442 3.447684 -0.021548 0
M  V30 77 H 5.339207 4.043717 0.881527 0
M  V30 78 H 6.999912 2.192132 1.294728 0
M  V30 79 H 6.413001 -0.095375 0.820921 0
M  V30 80 H 4.172158 -0.694466 -0.086787 0
M  V30 END ATOM
M  V30 BEGIN BOND
M  V30 1 1 1 2
M  V30 2 1 2 3
M  V30 3 1 3 4
M  V30 4 1 3 5
M  V30 5 2 5 6
M  V30 6 1 5 7
M  V30 7 2 7 8
M  V30 8 1 8 9
M  V30 9 2 9 10
M  V30 10 1 10 11
M  V30 11 2 11 12
M  V30 12 1 11 13
M  V30 13 1 13 14
M  V30 14 2 14 15
M  V30 15 1 14 16
M  V30 16 2 16 17
M  V30 17 1 17 18
M  V30 18 1 18 19
M  V30 19 2 19 20
M  V30 20 1 20 21
M  V30 21 2 21 22
M  V30 22 1 22 23
M  V30 23 1 23 24
M  V30 24 1 23 25
M  V30 25 2 25 26
M  V30 26 1 25 27
M  V30 27 1 27 28
M  V30 28 1 28 29
M  V30 29 1 29 30
M  V30 30 1 30 31
M  V30 31 1 31 32
M  V30 32 1 31 33
M  V30 33 1 33 34
M  V30 34 1 22 35
M  V30 35 2 35 36
M  V30 36 1 17 37
M  V30 37 2 37 38
M  V30 38 1 38 39
M  V30 39 2 39 40
M  V30 40 1 40 41
M  V30 41 2 41 42
M  V30 42 1 12 7
M  V30 43 1 36 19
M  V30 44 1 42 37
M  V30 45 1 16 10
M  V30 46 1 34 28
M  V30 47 1 1 43
M  V30 48 1 1 44
M  V30 49 1 1 45
M  V30 50 1 2 46
M  V30 51 1 2 47
M  V30 52 1 4 48
M  V30 53 1 4 49
M  V30 54 1 4 50
M  V30 55 1 8 51
M  V30 56 1 9 52
M  V30 57 1 12 53
M  V30 58 1 13 54
M  V30 59 1 18 55
M  V30 60 1 20 56
M  V30 61 1 21 57
M  V30 62 1 24 58
M  V30 63 1 24 59
M  V30 64 1 24 60
M  V30 65 1 27 61
M  V30 66 1 27 62
M  V30 67 1 29 63
M  V30 68 1 29 64
M  V30 69 1 30 65
M  V30 70 1 30 66
M  V30 71 1 32 67
M  V30 72 1 32 68
M  V30 73 1 32 69
M  V30 74 1 33 70
M  V30 75 1 33 71
M  V30 76 1 34 72
M  V30 77 1 34 73
M  V30 78 1 35 74
M  V30 79 1 36 75
M  V30 80 1 38 76
M  V30 81 1 39 77
M  V30 82 1 40 78
M  V30 83 1 41 79
M  V30 84 1 42 80
M  V30 END BOND
M  V30 END CTAB
M  END
>  <Dataset>  (10) 
ChEMBL_Kinases

>  <Ligand_Instance>  (10) 
nan

>  <PDB_ID>  (10) 
nan

>  <Standardized_SMILES>  (10) 
CCN(C)C(=O)c1ccc2c(c1)NC(=O)/C2=C(\Nc1ccc(N(C)C(=O)CN2CCN(C)CC2)cc1)c1ccccc1

>  <Name>  (10) 
nan

>  <Pocket>  (10) 
nan

>  <ATP_Site>  (10) 
nan

>  <Peripheral>  (10) 
nan

>  <Num_H_Atoms_ProtBoundConf>  (10) 
nan

>  <Num_Resolved_Atoms>  (10) 
nan

>  <Num_Not_Resolved_Atoms>  (10) 
nan

$$$$
CHEMBL1269497
     RDKit          3D

  0  0  0  0  0  0  0  0  0  0999 V3000
M  V30 BEGIN CTAB
M  V30 COUNTS 17 18 0 0 0
M  V30 BEGIN ATOM
M  V30 1 N -2.028313 -1.679473 1.771946 0
M  V30 2 C -0.959428 -0.836785 1.301744 0
M  V30 3 N 0.132977 -0.679704 1.738966 0
M  V30 4 C 1.072152 0.111899 1.259077 0
M  V30 5 C 2.344114 0.300448 1.760763 0
M  V30 6 O 2.877149 -0.328603 2.893925 0
M  V30 7 C 3.200996 1.173078 1.126870 0
M  V30 8 C 2.898464 1.904216 -0.003908 0
M  V30 9 C 1.628429 1.721288 -0.511785 0
M  V30 10 C 0.772604 0.849575 0.121530 0
M  V30 11 S -0.932766 0.319071 -0.189171 0
M  V30 12 H -2.238345 -2.514873 1.161839 0
M  V30 13 H -2.537620 -1.459829 2.647473 0
M  V30 14 H 2.478842 -0.126485 3.800169 0
M  V30 15 H 4.222616 1.349081 1.497818 0
M  V30 16 H 3.546981 2.592479 -0.519915 0
M  V30 17 H 1.238098 2.211672 -1.380316 0
M  V30 END ATOM
M  V30 BEGIN BOND
M  V30 1 1 1 2
M  V30 2 2 2 3
M  V30 3 1 3 4
M  V30 4 2 4 5
M  V30 5 1 5 6
M  V30 6 1 5 7
M  V30 7 2 7 8
M  V30 8 1 8 9
M  V30 9 2 9 10
M  V30 10 1 10 11
M  V30 11 1 11 2
M  V30 12 1 10 4
M  V30 13 1 1 12
M  V30 14 1 1 13
M  V30 15 1 6 14
M  V30 16 1 7 15
M  V30 17 1 8 16
M  V30 18 1 9 17
M  V30 END BOND
M  V30 END CTAB
M  END
>  <Dataset>  (11) 
ChEMBL_Kinases

>  <Ligand_Instance>  (11) 
nan

>  <PDB_ID>  (11) 
nan

>  <Standardized_SMILES>  (11) 
Nc1nc2c(O)cccc2s1

>  <Name>  (11) 
nan

>  <Pocket>  (11) 
nan

>  <ATP_Site>  (11) 
nan

>  <Peripheral>  (11) 
nan

>  <Num_H_Atoms_ProtBoundConf>  (11) 
nan

>  <Num_Resolved_Atoms>  (11) 
nan

>  <Num_Not_Resolved_Atoms>  (11) 
nan

$$$$
CHEMBL126804
     RDKit          3D

  0  0  0  0  0  0  0  0  0  0999 V3000
M  V30 BEGIN CTAB
M  V30 COUNTS 30 31 0 0 0
M  V30 BEGIN ATOM
M  V30 1 O -1.601049 -1.820836 2.242381 0
M  V30 2 C -0.987453 -0.810781 1.873555 0
M  V30 3 C 0.088878 -0.894840 0.892596 0
M  V30 4 C 0.410245 -2.073346 0.392175 0
M  V30 5 C 1.469743 -2.272047 -0.594297 0
M  V30 6 C 2.253496 -1.267644 -1.116963 0
M  V30 7 C 3.245263 -1.473648 -2.043993 0
M  V30 8 C 3.474778 -2.761527 -2.481581 0
M  V30 9 O 4.460470 -3.096564 -3.426336 0
M  V30 10 C 2.731381 -3.804196 -2.002005 0
M  V30 11 C 1.749140 -3.533222 -1.071844 0
M  V30 12 C -1.390124 0.462153 2.463987 0
M  V30 13 C -0.831039 1.692347 2.183667 0
M  V30 14 C -1.278240 2.846894 2.792730 0
M  V30 15 C -2.305179 2.828140 3.710874 0
M  V30 16 C -2.888438 1.616257 4.016183 0
M  V30 17 C -2.414174 0.465390 3.383501 0
M  V30 18 O -3.091833 -0.702409 3.781450 0
M  V30 19 H 0.619446 -0.007258 0.576200 0
M  V30 20 H -0.143845 -2.930347 0.735170 0
M  V30 21 H 2.092282 -0.254985 -0.790135 0
M  V30 22 H 3.850451 -0.670341 -2.442571 0
M  V30 23 H 4.902054 -2.420579 -4.028597 0
M  V30 24 H 2.886011 -4.837563 -2.326617 0
M  V30 25 H 1.147132 -4.365442 -0.681308 0
M  V30 26 H -0.024785 1.711247 1.463569 0
M  V30 27 H -0.770925 3.776662 2.504803 0
M  V30 28 H -2.649204 3.740239 4.183707 0
M  V30 29 H -3.691520 1.605164 4.734844 0
M  V30 30 H -4.110088 -0.764060 3.657755 0
M  V30 END ATOM
M  V30 BEGIN BOND
M  V30 1 2 1 2
M  V30 2 1 2 3
M  V30 3 2 3 4
M  V30 4 1 4 5
M  V30 5 2 5 6
M  V30 6 1 6 7
M  V30 7 2 7 8
M  V30 8 1 8 9
M  V30 9 1 8 10
M  V30 10 2 10 11
M  V30 11 1 2 12
M  V30 12 2 12 13
M  V30 13 1 13 14
M  V30 14 2 14 15
M  V30 15 1 15 16
M  V30 16 2 16 17
M  V30 17 1 17 18
M  V30 18 1 11 5
M  V30 19 1 17 12
M  V30 20 1 3 19
M  V30 21 1 4 20
M  V30 22 1 6 21
M  V30 23 1 7 22
M  V30 24 1 9 23
M  V30 25 1 10 24
M  V30 26 1 11 25
M  V30 27 1 13 26
M  V30 28 1 14 27
M  V30 29 1 15 28
M  V30 30 1 16 29
M  V30 31 1 18 30
M  V30 END BOND
M  V30 END CTAB
M  END
>  <Dataset>  (12) 
ChEMBL_Kinases

>  <Ligand_Instance>  (12) 
nan

>  <PDB_ID>  (12) 
nan

>  <Standardized_SMILES>  (12) 
O=C(/C=C/c1ccc(O)cc1)c1ccccc1O

>  <Name>  (12) 
nan

>  <Pocket>  (12) 
nan

>  <ATP_Site>  (12) 
nan

>  <Peripheral>  (12) 
nan

>  <Num_H_Atoms_ProtBoundConf>  (12) 
nan

>  <Num_Resolved_Atoms>  (12) 
nan

>  <Num_Not_Resolved_Atoms>  (12) 
nan

$$$$
CHEMBL1258151
     RDKit          3D

  0  0  0  0  0  0  0  0  0  0999 V3000
M  V30 BEGIN CTAB
M  V30 COUNTS 51 54 0 0 0
M  V30 BEGIN ATOM
M  V30 1 C -2.181687 -3.062232 5.063444 0
M  V30 2 O -1.125561 -3.630315 5.756866 0
M  V30 3 C 0.018266 -3.533013 4.977246 0
M  V30 4 C 0.314199 -2.123381 4.710860 0
M  V30 5 O -0.020685 -0.925192 4.881874 0
M  V30 6 N 1.496744 -2.045978 3.905906 0
M  V30 7 C 2.112543 -0.828890 3.431793 0
M  V30 8 C 3.061039 -0.220805 4.193630 0
M  V30 9 C 3.644042 0.943018 3.732982 0
M  V30 10 C 3.238928 1.443840 2.513372 0
M  V30 11 C 2.287098 0.874678 1.700531 0
M  V30 12 C 1.886562 1.435546 0.419056 0
M  V30 13 C 2.450380 2.592885 -0.059487 0
M  V30 14 N 2.083189 3.103113 -1.228000 0
M  V30 15 C 2.467711 4.206448 -1.922089 0
M  V30 16 C 1.778249 4.303470 -3.107811 0
M  V30 17 N 0.976911 3.225906 -3.092218 0
M  V30 18 C 1.151282 2.499837 -1.970824 0
M  V30 19 C 0.544889 1.334668 -1.549393 0
M  V30 20 N -0.442367 0.712095 -2.353877 0
M  V30 21 C -1.190988 -0.473359 -2.139310 0
M  V30 22 C -2.139313 -0.908364 -3.055344 0
M  V30 23 C -2.873736 -2.049755 -2.871299 0
M  V30 24 C -2.701273 -2.818998 -1.762626 0
M  V30 25 O -3.447886 -3.963836 -1.592917 0
M  V30 26 C -4.410571 -4.414088 -2.513948 0
M  V30 27 C -1.781896 -2.450781 -0.815127 0
M  V30 28 C -1.067381 -1.296295 -1.043052 0
M  V30 29 N 0.957431 0.868588 -0.362000 0
M  V30 30 C 1.747071 -0.281139 2.218679 0
M  V30 31 H -2.069940 -2.012759 4.804290 0
M  V30 32 H -2.316855 -3.611325 4.087790 0
M  V30 33 H -3.127553 -3.282016 5.617515 0
M  V30 34 H -0.189506 -4.114658 4.048519 0
M  V30 35 H 0.894831 -4.020761 5.445123 0
M  V30 36 H 2.195829 -2.715545 3.463495 0
M  V30 37 H 3.356277 -0.632040 5.136788 0
M  V30 38 H 4.394309 1.417472 4.343326 0
M  V30 39 H 3.745073 2.354110 2.231387 0
M  V30 40 H 3.206608 3.148414 0.465682 0
M  V30 41 H 3.221090 4.924374 -1.591043 0
M  V30 42 H 1.854479 5.064225 -3.880234 0
M  V30 43 H -0.671833 1.200025 -3.272734 0
M  V30 44 H -2.312608 -0.329632 -3.953887 0
M  V30 45 H -3.593819 -2.329297 -3.622941 0
M  V30 46 H -5.119510 -5.071996 -1.931371 0
M  V30 47 H -5.029348 -3.600168 -2.906047 0
M  V30 48 H -3.998127 -5.089880 -3.291354 0
M  V30 49 H -1.653720 -3.063481 0.054495 0
M  V30 50 H -0.360730 -1.053245 -0.271166 0
M  V30 51 H 0.989565 -0.826195 1.680109 0
M  V30 END ATOM
M  V30 BEGIN BOND
M  V30 1 1 1 2
M  V30 2 1 2 3
M  V30 3 1 3 4
M  V30 4 2 4 5
M  V30 5 1 4 6
M  V30 6 1 6 7
M  V30 7 2 7 8
M  V30 8 1 8 9
M  V30 9 2 9 10
M  V30 10 1 10 11
M  V30 11 1 11 12
M  V30 12 2 12 13
M  V30 13 1 13 14
M  V30 14 1 14 15
M  V30 15 2 15 16
M  V30 16 1 16 17
M  V30 17 2 17 18
M  V30 18 1 18 19
M  V30 19 1 19 20
M  V30 20 1 20 21
M  V30 21 2 21 22
M  V30 22 1 22 23
M  V30 23 2 23 24
M  V30 24 1 24 25
M  V30 25 1 25 26
M  V30 26 1 24 27
M  V30 27 2 27 28
M  V30 28 2 19 29
M  V30 29 2 11 30
M  V30 30 1 30 7
M  V30 31 1 29 12
M  V30 32 1 18 14
M  V30 33 1 28 21
M  V30 34 1 1 31
M  V30 35 1 1 32
M  V30 36 1 1 33
M  V30 37 1 3 34
M  V30 38 1 3 35
M  V30 39 1 6 36
M  V30 40 1 8 37
M  V30 41 1 9 38
M  V30 42 1 10 39
M  V30 43 1 13 40
M  V30 44 1 15 41
M  V30 45 1 16 42
M  V30 46 1 20 43
M  V30 47 1 22 44
M  V30 48 1 23 45
M  V30 49 1 26 46
M  V30 50 1 26 47
M  V30 51 1 26 48
M  V30 52 1 27 49
M  V30 53 1 28 50
M  V30 54 1 30 51
M  V30 END BOND
M  V30 END CTAB
M  END
>  <Dataset>  (13) 
ChEMBL_Kinases

>  <Ligand_Instance>  (13) 
nan

>  <PDB_ID>  (13) 
nan

>  <Standardized_SMILES>  (13) 
COCC(=O)Nc1cccc(-c2cn3ccnc3c(Nc3ccc(OC)cc3)n2)c1

>  <Name>  (13) 
nan

>  <Pocket>  (13) 
nan

>  <ATP_Site>  (13) 
nan

>  <Peripheral>  (13) 
nan

>  <Num_H_Atoms_ProtBoundConf>  (13) 
nan

>  <Num_Resolved_Atoms>  (13) 
nan

>  <Num_Not_Resolved_Atoms>  (13) 
nan

$$$$
CHEMBL1258266
     RDKit          3D

  0  0  0  0  0  0  0  0  0  0999 V3000
M  V30 BEGIN CTAB
M  V30 COUNTS 56 60 0 0 0
M  V30 BEGIN ATOM
M  V30 1 C 5.736271 -5.367643 6.400835 0
M  V30 2 O 6.227817 -4.106343 5.961390 0
M  V30 3 C 5.461559 -3.326269 5.127309 0
M  V30 4 C 5.959759 -2.110845 4.715812 0
M  V30 5 C 5.263519 -1.277373 3.887910 0
M  V30 6 C 3.994364 -1.611718 3.405303 0
M  V30 7 N 3.206679 -0.801929 2.570073 0
M  V30 8 C 2.378507 -1.012134 1.443256 0
M  V30 9 N 1.650835 0.007358 1.006924 0
M  V30 10 C 0.836831 -0.036985 -0.056766 0
M  V30 11 C 0.086466 1.159196 -0.428618 0
M  V30 12 C 0.236751 2.301143 0.327331 0
M  V30 13 C -0.461000 3.449839 0.003346 0
M  V30 14 C -1.328202 3.484798 -1.087276 0
M  V30 15 C -1.486445 2.346060 -1.852164 0
M  V30 16 N -2.352806 2.240923 -3.003971 0
M  V30 17 C -3.670979 1.797630 -2.707508 0
M  V30 18 O -3.918451 1.552658 -1.482819 0
M  V30 19 N -4.697808 1.617192 -3.673606 0
M  V30 20 C -5.999314 1.156879 -3.251115 0
M  V30 21 C -7.073810 1.938852 -2.861773 0
M  V30 22 C -8.239500 1.289811 -2.490475 0
M  V30 23 C -8.365925 -0.083412 -2.494591 0
M  V30 24 C -7.281798 -0.868561 -2.887389 0
M  V30 25 C -6.108503 -0.242475 -3.262035 0
M  V30 26 C -0.771373 1.199249 -1.504933 0
M  V30 27 C 0.766651 -1.235049 -0.729317 0
M  V30 28 N 1.473481 -2.311726 -0.348108 0
M  V30 29 C 1.565612 -3.555753 -0.848135 0
M  V30 30 C 2.457151 -4.231633 -0.044403 0
M  V30 31 N 2.852767 -3.380926 0.884127 0
M  V30 32 C 2.268476 -2.183971 0.731953 0
M  V30 33 C 3.517317 -2.838692 3.835488 0
M  V30 34 C 4.214370 -3.674785 4.665043 0
M  V30 35 H 5.393841 -5.917211 5.482571 0
M  V30 36 H 4.866624 -5.189910 7.075511 0
M  V30 37 H 6.466013 -5.933385 6.980660 0
M  V30 38 H 6.950529 -1.807498 5.069409 0
M  V30 39 H 5.645759 -0.317123 3.555950 0
M  V30 40 H 3.312157 0.170916 2.937348 0
M  V30 41 H 0.884743 2.366064 1.185796 0
M  V30 42 H -0.398275 4.391493 0.548324 0
M  V30 43 H -1.898349 4.354950 -1.385369 0
M  V30 44 H -2.160499 2.438197 -4.006201 0
M  V30 45 H -4.392853 1.849324 -4.659760 0
M  V30 46 H -6.897187 2.994551 -2.886715 0
M  V30 47 H -9.024415 1.982430 -2.202550 0
M  V30 48 H -9.331425 -0.499495 -2.182678 0
M  V30 49 H -7.425616 -1.941073 -2.875321 0
M  V30 50 H -5.278931 -0.894569 -3.564017 0
M  V30 51 H -0.896031 0.320553 -2.098759 0
M  V30 52 H 0.136597 -1.336360 -1.584020 0
M  V30 53 H 1.050915 -3.962587 -1.707418 0
M  V30 54 H 2.796655 -5.250287 -0.115664 0
M  V30 55 H 2.560266 -3.257732 3.583559 0
M  V30 56 H 3.863719 -4.650479 5.021085 0
M  V30 END ATOM
M  V30 BEGIN BOND
M  V30 1 1 1 2
M  V30 2 1 2 3
M  V30 3 2 3 4
M  V30 4 1 4 5
M  V30 5 2 5 6
M  V30 6 1 6 7
M  V30 7 1 7 8
M  V30 8 2 8 9
M  V30 9 1 9 10
M  V30 10 1 10 11
M  V30 11 2 11 12
M  V30 12 1 12 13
M  V30 13 2 13 14
M  V30 14 1 14 15
M  V30 15 1 15 16
M  V30 16 1 16 17
M  V30 17 2 17 18
M  V30 18 1 17 19
M  V30 19 1 19 20
M  V30 20 2 20 21
M  V30 21 1 21 22
M  V30 22 2 22 23
M  V30 23 1 23 24
M  V30 24 2 24 25
M  V30 25 2 15 26
M  V30 26 2 10 27
M  V30 27 1 27 28
M  V30 28 1 28 29
M  V30 29 2 29 30
M  V30 30 1 30 31
M  V30 31 2 31 32
M  V30 32 1 6 33
M  V30 33 2 33 34
M  V30 34 1 34 3
M  V30 35 1 32 8
M  V30 36 1 26 11
M  V30 37 1 32 28
M  V30 38 1 25 20
M  V30 39 1 1 35
M  V30 40 1 1 36
M  V30 41 1 1 37
M  V30 42 1 4 38
M  V30 43 1 5 39
M  V30 44 1 7 40
M  V30 45 1 12 41
M  V30 46 1 13 42
M  V30 47 1 14 43
M  V30 48 1 16 44
M  V30 49 1 19 45
M  V30 50 1 21 46
M  V30 51 1 22 47
M  V30 52 1 23 48
M  V30 53 1 24 49
M  V30 54 1 25 50
M  V30 55 1 26 51
M  V30 56 1 27 52
M  V30 57 1 29 53
M  V30 58 1 30 54
M  V30 59 1 33 55
M  V30 60 1 34 56
M  V30 END BOND
M  V30 END CTAB
M  END
>  <Dataset>  (14) 
ChEMBL_Kinases

>  <Ligand_Instance>  (14) 
nan

>  <PDB_ID>  (14) 
nan

>  <Standardized_SMILES>  (14) 
COc1ccc(Nc2nc(-c3cccc(NC(=O)Nc4ccccc4)c3)cn3ccnc23)cc1

>  <Name>  (14) 
nan

>  <Pocket>  (14) 
nan

>  <ATP_Site>  (14) 
nan

>  <Peripheral>  (14) 
nan

>  <Num_H_Atoms_ProtBoundConf>  (14) 
nan

>  <Num_Resolved_Atoms>  (14) 
nan

>  <Num_Not_Resolved_Atoms>  (14) 
nan

$$$$
CHEMBL1258267
     RDKit          3D

  0  0  0  0  0  0  0  0  0  0999 V3000
M  V30 BEGIN CTAB
M  V30 COUNTS 60 64 0 0 0
M  V30 BEGIN ATOM
M  V30 1 C 4.557374 -5.464883 4.858316 0
M  V30 2 O 4.788973 -4.831988 3.628112 0
M  V30 3 C 4.631740 -3.501235 3.349125 0
M  V30 4 C 4.214588 -2.495255 4.206505 0
M  V30 5 C 4.101263 -1.188244 3.785135 0
M  V30 6 C 4.406771 -0.844545 2.473413 0
M  V30 7 N 4.235031 0.545334 2.211728 0
M  V30 8 C 2.981397 1.018157 1.759033 0
M  V30 9 O 2.093283 0.161572 1.617802 0
M  V30 10 N 2.681560 2.349924 1.467280 0
M  V30 11 C 1.482615 2.953853 1.012097 0
M  V30 12 C 1.459229 4.312091 0.801347 0
M  V30 13 C 0.330951 4.965845 0.360827 0
M  V30 14 C -0.838737 4.281654 0.108276 0
M  V30 15 C -0.841416 2.918884 0.311785 0
M  V30 16 C -2.048384 2.139452 0.063380 0
M  V30 17 C -3.232088 2.666288 -0.372212 0
M  V30 18 N -4.359612 1.971476 -0.608338 0
M  V30 19 C -5.599198 2.292050 -1.029833 0
M  V30 20 C -6.370778 1.151092 -1.091914 0
M  V30 21 N -5.565433 0.143962 -0.698705 0
M  V30 22 C -4.331248 0.627723 -0.399014 0
M  V30 23 C -3.146142 0.049809 0.044609 0
M  V30 24 N -3.218065 -1.357828 0.233344 0
M  V30 25 C -2.906757 -2.218267 -0.853776 0
M  V30 26 C -2.967139 -3.591479 -0.730070 0
M  V30 27 C -2.666962 -4.432877 -1.781421 0
M  V30 28 C -2.291453 -3.925395 -3.007694 0
M  V30 29 O -1.954626 -4.575456 -4.170922 0
M  V30 30 C -1.964965 -5.988240 -4.218194 0
M  V30 31 C -2.222318 -2.537863 -3.159764 0
M  V30 32 C -2.531753 -1.707001 -2.078169 0
M  V30 33 N -2.042933 0.808287 0.263889 0
M  V30 34 C 0.295049 2.312820 0.747656 0
M  V30 35 C 4.823609 -1.833804 1.606603 0
M  V30 36 C 4.927544 -3.134937 2.057848 0
M  V30 37 H 5.506429 -5.953769 5.204052 0
M  V30 38 H 3.840909 -6.310985 4.738442 0
M  V30 39 H 4.215038 -4.794929 5.666610 0
M  V30 40 H 3.989760 -2.817439 5.215417 0
M  V30 41 H 3.766244 -0.484637 4.539359 0
M  V30 42 H 5.012424 1.232366 2.344636 0
M  V30 43 H 3.523059 2.975884 1.628501 0
M  V30 44 H 2.362595 4.907446 0.986325 0
M  V30 45 H 0.386431 6.026202 0.218682 0
M  V30 46 H -1.684781 4.848181 -0.233525 0
M  V30 47 H -3.322898 3.713813 -0.556052 0
M  V30 48 H -5.946636 3.303052 -1.285641 0
M  V30 49 H -7.409475 1.127723 -1.401457 0
M  V30 50 H -3.493375 -1.788995 1.148564 0
M  V30 51 H -3.256825 -4.065609 0.211830 0
M  V30 52 H -2.691246 -5.514041 -1.762239 0
M  V30 53 H -1.678881 -6.461457 -3.257303 0
M  V30 54 H -1.196570 -6.346108 -4.954618 0
M  V30 55 H -2.988811 -6.337784 -4.513831 0
M  V30 56 H -1.946829 -1.991313 -4.049233 0
M  V30 57 H -2.490065 -0.610918 -2.154914 0
M  V30 58 H 0.240071 1.253743 0.889683 0
M  V30 59 H 5.040502 -1.482375 0.607619 0
M  V30 60 H 5.268635 -3.813991 1.265879 0
M  V30 END ATOM
M  V30 BEGIN BOND
M  V30 1 1 1 2
M  V30 2 1 2 3
M  V30 3 2 3 4
M  V30 4 1 4 5
M  V30 5 2 5 6
M  V30 6 1 6 7
M  V30 7 1 7 8
M  V30 8 2 8 9
M  V30 9 1 8 10
M  V30 10 1 10 11
M  V30 11 2 11 12
M  V30 12 1 12 13
M  V30 13 2 13 14
M  V30 14 1 14 15
M  V30 15 1 15 16
M  V30 16 2 16 17
M  V30 17 1 17 18
M  V30 18 1 18 19
M  V30 19 2 19 20
M  V30 20 1 20 21
M  V30 21 2 21 22
M  V30 22 1 22 23
M  V30 23 1 23 24
M  V30 24 1 24 25
M  V30 25 2 25 26
M  V30 26 1 26 27
M  V30 27 2 27 28
M  V30 28 1 28 29
M  V30 29 1 29 30
M  V30 30 1 28 31
M  V30 31 2 31 32
M  V30 32 2 23 33
M  V30 33 2 15 34
M  V30 34 1 6 35
M  V30 35 2 35 36
M  V30 36 1 36 3
M  V30 37 1 34 11
M  V30 38 1 33 16
M  V30 39 1 22 18
M  V30 40 1 32 25
M  V30 41 1 1 37
M  V30 42 1 1 38
M  V30 43 1 1 39
M  V30 44 1 4 40
M  V30 45 1 5 41
M  V30 46 1 7 42
M  V30 47 1 10 43
M  V30 48 1 12 44
M  V30 49 1 13 45
M  V30 50 1 14 46
M  V30 51 1 17 47
M  V30 52 1 19 48
M  V30 53 1 20 49
M  V30 54 1 24 50
M  V30 55 1 26 51
M  V30 56 1 27 52
M  V30 57 1 30 53
M  V30 58 1 30 54
M  V30 59 1 30 55
M  V30 60 1 31 56
M  V30 61 1 32 57
M  V30 62 1 34 58
M  V30 63 1 35 59
M  V30 64 1 36 60
M  V30 END BOND
M  V30 END CTAB
M  END
>  <Dataset>  (15) 
ChEMBL_Kinases

>  <Ligand_Instance>  (15) 
nan

>  <PDB_ID>  (15) 
nan

>  <Standardized_SMILES>  (15) 
COc1ccc(NC(=O)Nc2cccc(-c3cn4ccnc4c(Nc4ccc(OC)cc4)n3)c2)cc1

>  <Name>  (15) 
nan

>  <Pocket>  (15) 
nan

>  <ATP_Site>  (15) 
nan

>  <Peripheral>  (15) 
nan

>  <Num_H_Atoms_ProtBoundConf>  (15) 
nan

>  <Num_Resolved_Atoms>  (15) 
nan

>  <Num_Not_Resolved_Atoms>  (15) 
nan

$$$$
CHEMBL1258348
     RDKit          3D

  0  0  0  0  0  0  0  0  0  0999 V3000
M  V30 BEGIN CTAB
M  V30 COUNTS 73 76 0 0 0
M  V30 BEGIN ATOM
M  V30 1 C 1.235245 -1.645340 3.056721 0
M  V30 2 C 2.036781 -1.089467 1.855063 0
M  V30 3 C 2.607048 -2.289065 1.196947 0
M  V30 4 C 3.093345 -0.291829 2.593593 0
M  V30 5 C 3.991699 0.512216 1.712943 0
M  V30 6 C 3.211687 0.654711 0.398630 0 CFG=2
M  V30 7 C 3.954714 1.603341 -0.461188 0
M  V30 8 C 3.349041 2.948861 -0.618150 0
M  V30 9 O 3.540848 4.088992 -0.126260 0
M  V30 10 O 2.333242 2.862595 -1.541241 0
M  V30 11 C 1.538753 3.926326 -1.954509 0 CFG=1
M  V30 12 C 1.530217 4.155579 -3.431832 0
M  V30 13 O 1.049955 3.046251 -4.132791 0
M  V30 14 C 0.143042 3.643042 -1.423780 0
M  V30 15 C -0.364397 2.331218 -1.856855 0
M  V30 16 O -1.095255 2.088643 -2.848899 0
M  V30 17 O 0.116896 1.411051 -0.959286 0
M  V30 18 C -0.183973 0.021843 -1.051042 0 CFG=2
M  V30 19 C -1.454153 -0.099236 -0.198423 0
M  V30 20 C -1.193368 0.256377 1.202427 0 CFG=1
M  V30 21 C -2.274414 -0.197390 2.105104 0
M  V30 22 C -2.620781 -1.591573 2.330143 0
M  V30 23 C -3.022492 -2.516784 1.260580 0
M  V30 24 C -3.425187 -3.904403 1.867508 0
M  V30 25 C -3.799945 -4.732308 0.693346 0
M  V30 26 C -2.770661 -5.480174 0.113137 0
M  V30 27 C -3.017342 -6.294588 -0.998782 0
M  V30 28 C -4.301056 -6.331072 -1.494875 0
M  V30 29 C -5.327908 -5.605295 -0.941155 0
M  V30 30 O -6.599433 -5.689977 -1.494461 0
M  V30 31 C -5.071410 -4.797328 0.166028 0
M  V30 32 O 0.041862 -0.013648 1.695487 0
M  V30 33 C 1.145399 -0.215354 0.974596 0 CFG=2
M  V30 34 C 0.853699 -0.819576 -0.348204 0
M  V30 35 O 1.911016 0.949564 0.701722 0
M  V30 36 H 1.979459 -2.174897 3.685681 0
M  V30 37 H 0.511653 -2.408374 2.746418 0
M  V30 38 H 0.849817 -0.809723 3.638024 0
M  V30 39 H 2.361762 -3.263839 1.719271 0
M  V30 40 H 3.731879 -2.258396 1.314965 0
M  V30 41 H 2.297629 -2.485126 0.160698 0
M  V30 42 H 3.685796 -1.045621 3.163489 0
M  V30 43 H 2.591436 0.359427 3.346440 0
M  V30 44 H 4.148600 1.502216 2.192922 0
M  V30 45 H 4.935907 -0.027903 1.582831 0
M  V30 46 H 3.340827 -0.350112 -0.070023 0
M  V30 47 H 4.993849 1.826345 -0.055864 0
M  V30 48 H 4.215837 1.162425 -1.474013 0
M  V30 49 H 1.950917 4.842975 -1.439773 0
M  V30 50 H 0.906283 5.037507 -3.687512 0
M  V30 51 H 2.551620 4.397626 -3.813549 0
M  V30 52 H 1.603910 2.841203 -4.918990 0
M  V30 53 H -0.496704 4.444168 -1.851230 0
M  V30 54 H 0.154024 3.825276 -0.342225 0
M  V30 55 H -0.401631 -0.280853 -2.060143 0
M  V30 56 H -2.122820 0.701712 -0.672408 0
M  V30 57 H -1.947222 -1.016971 -0.472486 0
M  V30 58 H -1.245983 1.402359 1.242878 0
M  V30 59 H -3.270983 0.323965 1.832124 0
M  V30 60 H -2.138204 0.258001 3.159324 0
M  V30 61 H -1.875643 -2.107297 3.041780 0
M  V30 62 H -3.531712 -1.560943 3.038542 0
M  V30 63 H -3.815180 -2.255807 0.588784 0
M  V30 64 H -2.141395 -2.873288 0.628348 0
M  V30 65 H -4.299184 -3.753553 2.509818 0
M  V30 66 H -2.526891 -4.299055 2.349807 0
M  V30 67 H -1.752571 -5.434745 0.526881 0
M  V30 68 H -2.162304 -6.851288 -1.400257 0
M  V30 69 H -4.398230 -6.977094 -2.342445 0
M  V30 70 H -6.765230 -5.149017 -2.353847 0
M  V30 71 H -5.852309 -4.219079 0.620361 0
M  V30 72 H 1.663304 -0.918230 -1.064440 0
M  V30 73 H 0.347710 -1.805823 -0.149296 0
M  V30 END ATOM
M  V30 BEGIN BOND
M  V30 1 1 1 2
M  V30 2 1 2 3
M  V30 3 1 2 4
M  V30 4 1 4 5
M  V30 5 1 5 6
M  V30 6 1 6 7
M  V30 7 1 7 8
M  V30 8 2 8 9
M  V30 9 1 8 10
M  V30 10 1 10 11
M  V30 11 1 11 12
M  V30 12 1 12 13
M  V30 13 1 11 14
M  V30 14 1 14 15
M  V30 15 2 15 16
M  V30 16 1 15 17
M  V30 17 1 17 18
M  V30 18 1 18 19
M  V30 19 1 19 20
M  V30 20 1 20 21
M  V30 21 1 21 22
M  V30 22 1 22 23
M  V30 23 1 23 24
M  V30 24 1 24 25
M  V30 25 2 25 26
M  V30 26 1 26 27
M  V30 27 2 27 28
M  V30 28 1 28 29
M  V30 29 1 29 30
M  V30 30 2 29 31
M  V30 31 1 20 32
M  V30 32 1 33 32 CFG=1
M  V30 33 1 33 34
M  V30 34 1 33 35
M  V30 35 1 33 2
M  V30 36 1 35 6
M  V30 37 1 34 18
M  V30 38 1 31 25
M  V30 39 1 1 36
M  V30 40 1 1 37
M  V30 41 1 1 38
M  V30 42 1 3 39
M  V30 43 1 3 40
M  V30 44 1 3 41
M  V30 45 1 4 42
M  V30 46 1 4 43
M  V30 47 1 5 44
M  V30 48 1 5 45
M  V30 49 1 6 46 CFG=3
M  V30 50 1 7 47
M  V30 51 1 7 48
M  V30 52 1 11 49 CFG=1
M  V30 53 1 12 50
M  V30 54 1 12 51
M  V30 55 1 13 52
M  V30 56 1 14 53
M  V30 57 1 14 54
M  V30 58 1 18 55 CFG=3
M  V30 59 1 19 56
M  V30 60 1 19 57
M  V30 61 1 20 58 CFG=3
M  V30 62 1 21 59
M  V30 63 1 21 60
M  V30 64 1 22 61
M  V30 65 1 22 62
M  V30 66 1 23 63
M  V30 67 1 23 64
M  V30 68 1 24 65
M  V30 69 1 24 66
M  V30 70 1 26 67
M  V30 71 1 27 68
M  V30 72 1 28 69
M  V30 73 1 30 70
M  V30 74 1 31 71
M  V30 75 1 34 72
M  V30 76 1 34 73
M  V30 END BOND
M  V30 END CTAB
M  END
>  <Dataset>  (16) 
ChEMBL_Kinases

>  <Ligand_Instance>  (16) 
nan

>  <PDB_ID>  (16) 
nan

>  <Standardized_SMILES>  (16) 
CC1(C)CC[C@@H]2CC(=O)O[C@@H](CO)CC(=O)O[C@@H]3C[C@@H](CCCCc4cccc(O)c4)O[C@@]1(C3)O2

>  <Name>  (16) 
nan

>  <Pocket>  (16) 
nan

>  <ATP_Site>  (16) 
nan

>  <Peripheral>  (16) 
nan

>  <Num_H_Atoms_ProtBoundConf>  (16) 
nan

>  <Num_Resolved_Atoms>  (16) 
nan

>  <Num_Not_Resolved_Atoms>  (16) 
nan

$$$$
CHEMBL1258378
     RDKit          3D

  0  0  0  0  0  0  0  0  0  0999 V3000
M  V30 BEGIN CTAB
M  V30 COUNTS 59 63 0 0 0
M  V30 BEGIN ATOM
M  V30 1 C 5.689873 1.617752 4.941234 0
M  V30 2 O 5.570613 0.856599 3.841365 0
M  V30 3 C 5.247707 0.519330 2.692391 0
M  V30 4 C 5.261727 -0.431827 1.676707 0
M  V30 5 C 4.639650 -0.239208 0.435799 0
M  V30 6 C 3.944338 0.878056 0.046657 0
M  V30 7 N 3.340504 0.926476 -1.266842 0
M  V30 8 C 2.117426 0.332562 -0.927956 0
M  V30 9 N 1.058103 1.123497 -0.560631 0
M  V30 10 C -0.156271 0.511255 -0.265890 0
M  V30 11 C -0.947269 1.689212 0.039912 0
M  V30 12 C -1.634391 2.661903 0.301832 0
M  V30 13 C -2.588353 3.487242 0.613382 0
M  V30 14 C -3.726555 2.663667 0.800527 0
M  V30 15 C -3.565498 1.272829 0.623098 0
M  V30 16 N -4.694418 0.433361 0.816823 0
M  V30 17 S -5.421399 -0.872694 -0.051802 0
M  V30 18 O -6.760778 -1.185751 0.520689 0
M  V30 19 O -5.724407 -0.327634 -1.464005 0
M  V30 20 C -4.376010 -2.248581 -0.238346 0
M  V30 21 C -3.601419 -2.803050 0.802247 0
M  V30 22 C -2.893647 -3.875417 0.334754 0
M  V30 23 C -2.757084 -4.516263 -0.853231 0
M  V30 24 O -1.944237 -5.592261 -1.091733 0
M  V30 25 C -1.123443 -6.127964 -0.098513 0
M  V30 26 C -3.547008 -3.930677 -1.842228 0
M  V30 27 C -4.342666 -2.805286 -1.519154 0
M  V30 28 C -2.228215 0.886542 0.266126 0
M  V30 29 C -0.209528 -0.790098 -0.358100 0
M  V30 30 N 0.719735 -1.613189 -0.690420 0
M  V30 31 C 1.016221 -2.866210 -0.887294 0
M  V30 32 C 2.236709 -3.218649 -1.259963 0
M  V30 33 N 2.793615 -1.997723 -1.314391 0
M  V30 34 C 1.933555 -1.032870 -0.987819 0
M  V30 35 C 3.912741 1.865038 1.055946 0
M  V30 36 C 4.540313 1.675106 2.306937 0
M  V30 37 H 5.124531 2.606844 4.865510 0
M  V30 38 H 5.284545 1.086467 5.876177 0
M  V30 39 H 6.747874 1.862523 5.268280 0
M  V30 40 H 5.824798 -1.240625 2.089207 0
M  V30 41 H 4.883251 -1.136852 -0.077506 0
M  V30 42 H 4.237340 1.361226 -1.510055 0
M  V30 43 H -0.649109 3.292451 0.120574 0
M  V30 44 H -2.522871 4.546375 0.704703 0
M  V30 45 H -4.658810 3.160493 1.068506 0
M  V30 46 H -5.158541 0.705035 1.710244 0
M  V30 47 H -3.634559 -2.384229 1.776224 0
M  V30 48 H -2.308171 -4.285414 1.170571 0
M  V30 49 H -0.185762 -6.472142 -0.632487 0
M  V30 50 H -1.491450 -7.004277 0.427634 0
M  V30 51 H -0.716770 -5.343818 0.609179 0
M  V30 52 H -3.564001 -4.323278 -2.852634 0
M  V30 53 H -4.922907 -2.416097 -2.360137 0
M  V30 54 H -2.509096 -0.222653 0.221582 0
M  V30 55 H -1.122024 -1.250629 -0.132488 0
M  V30 56 H 0.152959 -3.560125 -0.709782 0
M  V30 57 H 2.477537 -4.257082 -1.409384 0
M  V30 58 H 3.320926 2.682138 0.595248 0
M  V30 59 H 4.278944 2.653657 2.752273 0
M  V30 END ATOM
M  V30 BEGIN BOND
M  V30 1 1 1 2
M  V30 2 1 2 3
M  V30 3 2 3 4
M  V30 4 1 4 5
M  V30 5 2 5 6
M  V30 6 1 6 7
M  V30 7 1 7 8
M  V30 8 2 8 9
M  V30 9 1 9 10
M  V30 10 1 10 11
M  V30 11 2 11 12
M  V30 12 1 12 13
M  V30 13 2 13 14
M  V30 14 1 14 15
M  V30 15 1 15 16
M  V30 16 1 16 17
M  V30 17 2 17 18
M  V30 18 2 17 19
M  V30 19 1 17 20
M  V30 20 2 20 21
M  V30 21 1 21 22
M  V30 22 2 22 23
M  V30 23 1 23 24
M  V30 24 1 24 25
M  V30 25 1 23 26
M  V30 26 2 26 27
M  V30 27 2 15 28
M  V30 28 2 10 29
M  V30 29 1 29 30
M  V30 30 1 30 31
M  V30 31 2 31 32
M  V30 32 1 32 33
M  V30 33 2 33 34
M  V30 34 1 6 35
M  V30 35 2 35 36
M  V30 36 1 36 3
M  V30 37 1 34 8
M  V30 38 1 28 11
M  V30 39 1 34 30
M  V30 40 1 27 20
M  V30 41 1 1 37
M  V30 42 1 1 38
M  V30 43 1 1 39
M  V30 44 1 4 40
M  V30 45 1 5 41
M  V30 46 1 7 42
M  V30 47 1 12 43
M  V30 48 1 13 44
M  V30 49 1 14 45
M  V30 50 1 16 46
M  V30 51 1 21 47
M  V30 52 1 22 48
M  V30 53 1 25 49
M  V30 54 1 25 50
M  V30 55 1 25 51
M  V30 56 1 26 52
M  V30 57 1 27 53
M  V30 58 1 28 54
M  V30 59 1 29 55
M  V30 60 1 31 56
M  V30 61 1 32 57
M  V30 62 1 35 58
M  V30 63 1 36 59
M  V30 END BOND
M  V30 END CTAB
M  END
>  <Dataset>  (17) 
ChEMBL_Kinases

>  <Ligand_Instance>  (17) 
nan

>  <PDB_ID>  (17) 
nan

>  <Standardized_SMILES>  (17) 
COc1ccc(Nc2nc(-c3cccc(NS(=O)(=O)c4ccc(OC)cc4)c3)cn3ccnc23)cc1

>  <Name>  (17) 
nan

>  <Pocket>  (17) 
nan

>  <ATP_Site>  (17) 
nan

>  <Peripheral>  (17) 
nan

>  <Num_H_Atoms_ProtBoundConf>  (17) 
nan

>  <Num_Resolved_Atoms>  (17) 
nan

>  <Num_Not_Resolved_Atoms>  (17) 
nan

$$$$
CHEMBL1258379
     RDKit          3D

  0  0  0  0  0  0  0  0  0  0999 V3000
M  V30 BEGIN CTAB
M  V30 COUNTS 54 58 0 0 0
M  V30 BEGIN ATOM
M  V30 1 C 6.136539 -5.678531 4.530545 0
M  V30 2 O 5.740452 -4.451599 5.160540 0
M  V30 3 C 4.762367 -3.720488 4.507632 0
M  V30 4 C 4.435976 -2.548944 5.176673 0
M  V30 5 C 3.481251 -1.706074 4.662070 0
M  V30 6 C 2.794697 -1.938516 3.490265 0
M  V30 7 N 1.793118 -1.111281 2.934268 0
M  V30 8 C 1.490293 -0.661303 1.628371 0
M  V30 9 N 0.320656 0.011820 1.504039 0
M  V30 10 C -0.088796 0.511363 0.326902 0
M  V30 11 C -1.357284 1.236650 0.286261 0
M  V30 12 C -2.048828 1.364457 1.476952 0
M  V30 13 C -3.250954 2.038428 1.535894 0
M  V30 14 C -3.782721 2.598900 0.391105 0
M  V30 15 C -3.067071 2.455218 -0.793010 0
M  V30 16 N -3.657411 3.045714 -1.962125 0
M  V30 17 S -3.750591 2.091150 -3.396017 0
M  V30 18 O -2.415248 1.581537 -3.838669 0
M  V30 19 O -4.332356 2.884215 -4.529222 0
M  V30 20 C -4.749647 0.659504 -3.123753 0
M  V30 21 C -4.324296 -0.570397 -2.681767 0
M  V30 22 C -5.155969 -1.649944 -2.486960 0
M  V30 23 C -6.508812 -1.447028 -2.765386 0
M  V30 24 N -6.974920 -0.244901 -3.205604 0
M  V30 25 C -6.101379 0.792549 -3.380892 0
M  V30 26 C -1.847956 1.779586 -0.886084 0
M  V30 27 C 0.717524 0.321013 -0.764508 0
M  V30 28 N 1.900801 -0.342526 -0.709169 0
M  V30 29 C 2.873495 -0.665483 -1.576486 0
M  V30 30 C 3.890625 -1.370156 -0.921295 0
M  V30 31 N 3.438789 -1.422480 0.340084 0
M  V30 32 C 2.260343 -0.821845 0.499450 0
M  V30 33 C 3.148981 -3.118058 2.854218 0
M  V30 34 C 4.096598 -3.992133 3.328282 0
M  V30 35 H 6.771777 -5.479759 3.637099 0
M  V30 36 H 5.237399 -6.215414 4.192261 0
M  V30 37 H 6.746688 -6.259309 5.260198 0
M  V30 38 H 4.890522 -2.220257 6.120173 0
M  V30 39 H 3.216185 -0.774505 5.186504 0
M  V30 40 H 1.203637 -0.827651 3.747717 0
M  V30 41 H -1.714515 0.959418 2.425178 0
M  V30 42 H -3.865276 2.193859 2.425980 0
M  V30 43 H -4.722043 3.135158 0.393364 0
M  V30 44 H -4.011609 4.013723 -1.931332 0
M  V30 45 H -3.245838 -0.624463 -2.492268 0
M  V30 46 H -4.748790 -2.577679 -2.139140 0
M  V30 47 H -7.128519 -2.308875 -2.602209 0
M  V30 48 H -6.516396 1.747186 -3.737635 0
M  V30 49 H -1.319067 1.681999 -1.797468 0
M  V30 50 H 0.436201 0.697966 -1.723408 0
M  V30 51 H 2.863746 -0.409453 -2.642529 0
M  V30 52 H 4.803647 -1.765262 -1.342134 0
M  V30 53 H 2.720244 -3.488348 1.941208 0
M  V30 54 H 4.404695 -4.912204 2.874538 0
M  V30 END ATOM
M  V30 BEGIN BOND
M  V30 1 1 1 2
M  V30 2 1 2 3
M  V30 3 2 3 4
M  V30 4 1 4 5
M  V30 5 2 5 6
M  V30 6 1 6 7
M  V30 7 1 7 8
M  V30 8 2 8 9
M  V30 9 1 9 10
M  V30 10 1 10 11
M  V30 11 2 11 12
M  V30 12 1 12 13
M  V30 13 2 13 14
M  V30 14 1 14 15
M  V30 15 1 15 16
M  V30 16 1 16 17
M  V30 17 2 17 18
M  V30 18 2 17 19
M  V30 19 1 17 20
M  V30 20 2 20 21
M  V30 21 1 21 22
M  V30 22 2 22 23
M  V30 23 1 23 24
M  V30 24 2 24 25
M  V30 25 2 15 26
M  V30 26 2 10 27
M  V30 27 1 27 28
M  V30 28 1 28 29
M  V30 29 2 29 30
M  V30 30 1 30 31
M  V30 31 2 31 32
M  V30 32 1 6 33
M  V30 33 2 33 34
M  V30 34 1 34 3
M  V30 35 1 32 8
M  V30 36 1 26 11
M  V30 37 1 32 28
M  V30 38 1 25 20
M  V30 39 1 1 35
M  V30 40 1 1 36
M  V30 41 1 1 37
M  V30 42 1 4 38
M  V30 43 1 5 39
M  V30 44 1 7 40
M  V30 45 1 12 41
M  V30 46 1 13 42
M  V30 47 1 14 43
M  V30 48 1 16 44
M  V30 49 1 21 45
M  V30 50 1 22 46
M  V30 51 1 23 47
M  V30 52 1 25 48
M  V30 53 1 26 49
M  V30 54 1 27 50
M  V30 55 1 29 51
M  V30 56 1 30 52
M  V30 57 1 33 53
M  V30 58 1 34 54
M  V30 END BOND
M  V30 END CTAB
M  END
>  <Dataset>  (18) 
ChEMBL_Kinases

>  <Ligand_Instance>  (18) 
nan

>  <PDB_ID>  (18) 
nan

>  <Standardized_SMILES>  (18) 
COc1ccc(Nc2nc(-c3cccc(NS(=O)(=O)c4cccnc4)c3)cn3ccnc23)cc1

>  <Name>  (18) 
nan

>  <Pocket>  (18) 
nan

>  <ATP_Site>  (18) 
nan

>  <Peripheral>  (18) 
nan

>  <Num_H_Atoms_ProtBoundConf>  (18) 
nan

>  <Num_Resolved_Atoms>  (18) 
nan

>  <Num_Not_Resolved_Atoms>  (18) 
nan

$$$$
CHEMBL1258490
     RDKit          3D

  0  0  0  0  0  0  0  0  0  0999 V3000
M  V30 BEGIN CTAB
M  V30 COUNTS 51 55 0 0 0
M  V30 BEGIN ATOM
M  V30 1 C -2.864587 -2.293402 4.017859 0
M  V30 2 C -1.979803 -1.869895 2.879639 0
M  V30 3 C -1.398015 -0.634874 2.821676 0
M  V30 4 N -0.702822 -0.627461 1.678752 0
M  V30 5 C -0.839058 -1.817911 1.035939 0
M  V30 6 C -0.340890 -2.321836 -0.167269 0
M  V30 7 N 0.504498 -1.549995 -1.000429 0
M  V30 8 C 0.978587 -0.266941 -0.580397 0
M  V30 9 C 1.748330 -0.056348 0.572414 0
M  V30 10 C 2.137885 1.217101 0.929300 0
M  V30 11 C 1.789951 2.316842 0.176051 0
M  V30 12 N 2.170008 3.658078 0.490541 0
M  V30 13 C 1.537216 4.781844 -0.160699 0
M  V30 14 C 1.898408 5.984245 0.698140 0
M  V30 15 O 3.271791 6.225857 0.674647 0
M  V30 16 C 4.022444 5.083492 0.785233 0
M  V30 17 C 3.205371 3.969636 1.455541 0
M  V30 18 C 1.029730 2.123233 -0.966962 0
M  V30 19 C 0.634470 0.854743 -1.333148 0
M  V30 20 N -0.674951 -3.577102 -0.542920 0
M  V30 21 C -1.473960 -4.367600 0.199283 0
M  V30 22 C -1.826396 -5.716661 -0.210507 0
M  V30 23 C -2.630469 -6.582974 0.481986 0
M  V30 24 C -2.926575 -7.844090 0.044054 0
M  V30 25 C -2.403405 -8.309165 -1.162161 0
M  V30 26 N -1.621002 -7.460998 -1.831647 0
M  V30 27 C -1.323961 -6.216556 -1.408410 0
M  V30 28 C -1.950750 -3.844013 1.380017 0
M  V30 29 N -1.641988 -2.596655 1.792589 0
M  V30 30 H -2.598609 -1.736634 4.925423 0
M  V30 31 H -3.939662 -2.111283 3.739982 0
M  V30 32 H -2.784170 -3.371848 4.202708 0
M  V30 33 H -1.449726 0.191577 3.513969 0
M  V30 34 H 0.789990 -1.902692 -1.920330 0
M  V30 35 H 2.020728 -0.940828 1.167867 0
M  V30 36 H 2.738718 1.381001 1.828943 0
M  V30 37 H 1.789764 4.922182 -1.207071 0
M  V30 38 H 0.437669 4.623685 -0.016640 0
M  V30 39 H 1.420869 6.863659 0.239185 0
M  V30 40 H 1.510636 5.858494 1.716352 0
M  V30 41 H 4.982631 5.186709 1.288608 0
M  V30 42 H 4.203733 4.720456 -0.251148 0
M  V30 43 H 3.865406 3.103085 1.608770 0
M  V30 44 H 2.745365 4.307660 2.386069 0
M  V30 45 H 0.729829 2.956345 -1.592534 0
M  V30 46 H 0.033132 0.676592 -2.238893 0
M  V30 47 H -3.050777 -6.252843 1.416852 0
M  V30 48 H -3.576107 -8.505614 0.635033 0
M  V30 49 H -2.673434 -9.313387 -1.454706 0
M  V30 50 H -0.681457 -5.661829 -2.063730 0
M  V30 51 H -2.596880 -4.381789 2.050837 0
M  V30 END ATOM
M  V30 BEGIN BOND
M  V30 1 1 1 2
M  V30 2 2 2 3
M  V30 3 1 3 4
M  V30 4 2 4 5
M  V30 5 1 5 6
M  V30 6 1 6 7
M  V30 7 1 7 8
M  V30 8 2 8 9
M  V30 9 1 9 10
M  V30 10 2 10 11
M  V30 11 1 11 12
M  V30 12 1 12 13
M  V30 13 1 13 14
M  V30 14 1 14 15
M  V30 15 1 15 16
M  V30 16 1 16 17
M  V30 17 1 11 18
M  V30 18 2 18 19
M  V30 19 2 6 20
M  V30 20 1 20 21
M  V30 21 1 21 22
M  V30 22 2 22 23
M  V30 23 1 23 24
M  V30 24 2 24 25
M  V30 25 1 25 26
M  V30 26 2 26 27
M  V30 27 2 21 28
M  V30 28 1 28 29
M  V30 29 1 29 2
M  V30 30 1 29 5
M  V30 31 1 19 8
M  V30 32 1 27 22
M  V30 33 1 17 12
M  V30 34 1 1 30
M  V30 35 1 1 31
M  V30 36 1 1 32
M  V30 37 1 3 33
M  V30 38 1 7 34
M  V30 39 1 9 35
M  V30 40 1 10 36
M  V30 41 1 13 37
M  V30 42 1 13 38
M  V30 43 1 14 39
M  V30 44 1 14 40
M  V30 45 1 16 41
M  V30 46 1 16 42
M  V30 47 1 17 43
M  V30 48 1 17 44
M  V30 49 1 18 45
M  V30 50 1 19 46
M  V30 51 1 23 47
M  V30 52 1 24 48
M  V30 53 1 25 49
M  V30 54 1 27 50
M  V30 55 1 28 51
M  V30 END BOND
M  V30 END CTAB
M  END
>  <Dataset>  (19) 
ChEMBL_Kinases

>  <Ligand_Instance>  (19) 
nan

>  <PDB_ID>  (19) 
nan

>  <Standardized_SMILES>  (19) 
Cc1cnc2c(Nc3ccc(N4CCOCC4)cc3)nc(-c3cccnc3)cn12

>  <Name>  (19) 
nan

>  <Pocket>  (19) 
nan

>  <ATP_Site>  (19) 
nan

>  <Peripheral>  (19) 
nan

>  <Num_H_Atoms_ProtBoundConf>  (19) 
nan

>  <Num_Resolved_Atoms>  (19) 
nan

>  <Num_Not_Resolved_Atoms>  (19) 
nan

$$$$
CHEMBL1258491
     RDKit          3D

  0  0  0  0  0  0  0  0  0  0999 V3000
M  V30 BEGIN CTAB
M  V30 COUNTS 48 52 0 0 0
M  V30 BEGIN ATOM
M  V30 1 Br -0.634438 -6.975459 2.898113 0
M  V30 2 C -0.056005 -5.608779 1.696965 0
M  V30 3 C 1.279271 -5.561765 1.346349 0
M  V30 4 N 1.404259 -4.510839 0.496222 0
M  V30 5 C 0.192568 -3.955469 0.346818 0
M  V30 6 C -0.275104 -2.866953 -0.396893 0
M  V30 7 N 0.719159 -2.182596 -1.147136 0
M  V30 8 C 1.202416 -0.900739 -0.691815 0
M  V30 9 C 2.353491 -0.283217 -1.201281 0
M  V30 10 C 2.725427 0.975418 -0.709839 0
M  V30 11 C 1.986827 1.622664 0.262946 0
M  V30 12 N 2.373720 2.891959 0.764724 0
M  V30 13 C 3.655029 3.532553 0.554923 0
M  V30 14 C 4.276002 3.577155 1.954077 0
M  V30 15 O 3.519873 4.494955 2.681967 0
M  V30 16 C 2.222250 4.083105 2.892376 0
M  V30 17 C 1.523823 3.749832 1.566311 0
M  V30 18 C 0.867583 0.985151 0.735320 0
M  V30 19 C 0.467572 -0.251884 0.280002 0
M  V30 20 N -1.584598 -2.546031 -0.342291 0
M  V30 21 C -2.453544 -3.255811 0.417374 0
M  V30 22 C -3.830616 -2.809043 0.407927 0
M  V30 23 C -4.208056 -1.713853 -0.343043 0
M  V30 24 C -5.498594 -1.193793 -0.425580 0
M  V30 25 C -6.443289 -1.885899 0.340205 0
M  V30 26 N -6.106885 -2.956613 1.082039 0
M  V30 27 C -4.837378 -3.417323 1.124230 0
M  V30 28 C -2.045332 -4.328868 1.161871 0
M  V30 29 N -0.731196 -4.605704 1.071622 0
M  V30 30 H 2.128454 -6.176751 1.627546 0
M  V30 31 H 1.120733 -2.579606 -2.033733 0
M  V30 32 H 2.907767 -0.812132 -1.957953 0
M  V30 33 H 3.606786 1.383686 -1.141144 0
M  V30 34 H 3.508865 4.575168 0.228676 0
M  V30 35 H 4.312843 3.004071 -0.156198 0
M  V30 36 H 4.187308 2.603550 2.484057 0
M  V30 37 H 5.329883 3.879701 1.915971 0
M  V30 38 H 1.675902 4.973965 3.290234 0
M  V30 39 H 2.084906 3.288072 3.635635 0
M  V30 40 H 0.527974 3.371014 1.767862 0
M  V30 41 H 1.436784 4.748730 1.050768 0
M  V30 42 H 0.223551 1.396949 1.490244 0
M  V30 43 H -0.421725 -0.750107 0.664369 0
M  V30 44 H -3.457274 -1.177909 -0.940085 0
M  V30 45 H -5.709197 -0.328500 -1.038679 0
M  V30 46 H -7.457087 -1.489795 0.283335 0
M  V30 47 H -4.628514 -4.275191 1.733637 0
M  V30 48 H -2.698171 -4.904283 1.765678 0
M  V30 END ATOM
M  V30 BEGIN BOND
M  V30 1 1 1 2
M  V30 2 2 2 3
M  V30 3 1 3 4
M  V30 4 2 4 5
M  V30 5 1 5 6
M  V30 6 1 6 7
M  V30 7 1 7 8
M  V30 8 2 8 9
M  V30 9 1 9 10
M  V30 10 2 10 11
M  V30 11 1 11 12
M  V30 12 1 12 13
M  V30 13 1 13 14
M  V30 14 1 14 15
M  V30 15 1 15 16
M  V30 16 1 16 17
M  V30 17 1 11 18
M  V30 18 2 18 19
M  V30 19 2 6 20
M  V30 20 1 20 21
M  V30 21 1 21 22
M  V30 22 2 22 23
M  V30 23 1 23 24
M  V30 24 2 24 25
M  V30 25 1 25 26
M  V30 26 2 26 27
M  V30 27 2 21 28
M  V30 28 1 28 29
M  V30 29 1 29 2
M  V30 30 1 29 5
M  V30 31 1 19 8
M  V30 32 1 27 22
M  V30 33 1 17 12
M  V30 34 1 3 30
M  V30 35 1 7 31
M  V30 36 1 9 32
M  V30 37 1 10 33
M  V30 38 1 13 34
M  V30 39 1 13 35
M  V30 40 1 14 36
M  V30 41 1 14 37
M  V30 42 1 16 38
M  V30 43 1 16 39
M  V30 44 1 17 40
M  V30 45 1 17 41
M  V30 46 1 18 42
M  V30 47 1 19 43
M  V30 48 1 23 44
M  V30 49 1 24 45
M  V30 50 1 25 46
M  V30 51 1 27 47
M  V30 52 1 28 48
M  V30 END BOND
M  V30 END CTAB
M  END
>  <Dataset>  (20) 
ChEMBL_Kinases

>  <Ligand_Instance>  (20) 
nan

>  <PDB_ID>  (20) 
nan

>  <Standardized_SMILES>  (20) 
Brc1cnc2c(Nc3ccc(N4CCOCC4)cc3)nc(-c3cccnc3)cn12

>  <Name>  (20) 
nan

>  <Pocket>  (20) 
nan

>  <ATP_Site>  (20) 
nan

>  <Peripheral>  (20) 
nan

>  <Num_H_Atoms_ProtBoundConf>  (20) 
nan

>  <Num_Resolved_Atoms>  (20) 
nan

>  <Num_Not_Resolved_Atoms>  (20) 
nan

$$$$
CHEMBL126625
     RDKit          3D

  0  0  0  0  0  0  0  0  0  0999 V3000
M  V30 BEGIN CTAB
M  V30 COUNTS 31 33 0 0 0
M  V30 BEGIN ATOM
M  V30 1 O -1.835689 -2.700477 2.895609 0
M  V30 2 C -1.603411 -1.668542 2.256416 0
M  V30 3 C -0.416060 -1.313054 1.494247 0
M  V30 4 C 0.583824 -2.179233 1.295958 0
M  V30 5 C 1.794850 -1.881674 0.545538 0
M  V30 6 C 2.494064 -0.717191 0.778186 0
M  V30 7 C 3.627571 -0.406618 0.049048 0
M  V30 8 C 4.095781 -1.273427 -0.951495 0
M  V30 9 O 5.249968 -0.952288 -1.691161 0
M  V30 10 C 3.402551 -2.457273 -1.202854 0
M  V30 11 O 3.847522 -3.346976 -2.201556 0
M  V30 12 C 2.254172 -2.756498 -0.451711 0
M  V30 13 C -0.530096 0.068129 0.977364 0
M  V30 14 C -1.945154 0.409853 1.376082 0
M  V30 15 C -2.513904 1.632500 0.997693 0
M  V30 16 C -3.811591 1.884426 1.460486 0
M  V30 17 C -4.445546 0.951991 2.238249 0
M  V30 18 C -3.833674 -0.237430 2.578246 0
M  V30 19 C -2.558303 -0.547092 2.155680 0
M  V30 20 H 0.606276 -3.184064 1.668612 0
M  V30 21 H 2.278989 0.030250 1.502615 0
M  V30 22 H 4.227326 0.489210 0.175664 0
M  V30 23 H 5.333232 0.041757 -1.960563 0
M  V30 24 H 3.567152 -3.061151 -3.154507 0
M  V30 25 H 1.730116 -3.680826 -0.665006 0
M  V30 26 H -0.473191 0.134481 -0.115846 0
M  V30 27 H 0.098959 0.809430 1.518755 0
M  V30 28 H -2.046506 2.388770 0.387647 0
M  V30 29 H -4.259508 2.843879 1.161176 0
M  V30 30 H -5.435335 1.141329 2.596633 0
M  V30 31 H -4.329750 -0.986507 3.200258 0
M  V30 END ATOM
M  V30 BEGIN BOND
M  V30 1 2 1 2
M  V30 2 1 2 3
M  V30 3 2 3 4
M  V30 4 1 4 5
M  V30 5 2 5 6
M  V30 6 1 6 7
M  V30 7 2 7 8
M  V30 8 1 8 9
M  V30 9 1 8 10
M  V30 10 1 10 11
M  V30 11 2 10 12
M  V30 12 1 3 13
M  V30 13 1 13 14
M  V30 14 2 14 15
M  V30 15 1 15 16
M  V30 16 2 16 17
M  V30 17 1 17 18
M  V30 18 2 18 19
M  V30 19 1 19 2
M  V30 20 1 12 5
M  V30 21 1 19 14
M  V30 22 1 4 20
M  V30 23 1 6 21
M  V30 24 1 7 22
M  V30 25 1 9 23
M  V30 26 1 11 24
M  V30 27 1 12 25
M  V30 28 1 13 26
M  V30 29 1 13 27
M  V30 30 1 15 28
M  V30 31 1 16 29
M  V30 32 1 17 30
M  V30 33 1 18 31
M  V30 END BOND
M  V30 END CTAB
M  END
>  <Dataset>  (21) 
ChEMBL_Kinases

>  <Ligand_Instance>  (21) 
nan

>  <PDB_ID>  (21) 
nan

>  <Standardized_SMILES>  (21) 
O=C1/C(=C/c2ccc(O)c(O)c2)Cc2ccccc21

>  <Name>  (21) 
nan

>  <Pocket>  (21) 
nan

>  <ATP_Site>  (21) 
nan

>  <Peripheral>  (21) 
nan

>  <Num_H_Atoms_ProtBoundConf>  (21) 
nan

>  <Num_Resolved_Atoms>  (21) 
nan

>  <Num_Not_Resolved_Atoms>  (21) 
nan

$$$$
CHEMBL1258633
     RDKit          3D

  0  0  0  0  0  0  0  0  0  0999 V3000
M  V30 BEGIN CTAB
M  V30 COUNTS 46 49 0 0 0
M  V30 BEGIN ATOM
M  V30 1 C 1.704729 -6.121315 2.762152 0
M  V30 2 C 3.128189 -5.553805 2.906905 0
M  V30 3 C 3.011806 -4.327989 3.782919 0
M  V30 4 N 3.480136 -5.093679 1.564686 0
M  V30 5 C 2.505345 -4.073871 1.186168 0
M  V30 6 N 1.471890 -4.216357 0.734988 0
M  V30 7 C 0.540155 -3.374478 0.363263 0
M  V30 8 C 0.821957 -2.065034 0.531819 0
M  V30 9 C 0.191269 -0.733550 0.299213 0
M  V30 10 C 0.841474 0.403436 0.576596 0
M  V30 11 C 0.305005 1.640425 0.379587 0
M  V30 12 C 0.872441 2.943500 0.614084 0
M  V30 13 C 0.112956 4.052792 0.263973 0
M  V30 14 C 0.538384 5.341445 0.434466 0
M  V30 15 C 1.760413 5.628991 0.970591 0
M  V30 16 C 2.548666 4.565895 1.332979 0
M  V30 17 C 2.086270 3.289682 1.145662 0
M  V30 18 Cl 3.169428 2.036360 1.650626 0
M  V30 19 N -0.934939 1.605826 -0.117520 0
M  V30 20 C -1.647920 0.518991 -0.419013 0
M  V30 21 C -2.992116 0.527928 -0.957904 0
M  V30 22 C -3.617207 1.736188 -1.203100 0
M  V30 23 C -4.891193 1.705711 -1.718694 0
M  V30 24 C -5.545679 0.515838 -1.990938 0
M  V30 25 C -4.880565 -0.664310 -1.729355 0
M  V30 26 N -3.628981 -0.647282 -1.222839 0
M  V30 27 N -1.029824 -0.684005 -0.189057 0
M  V30 28 S 2.551878 -2.150115 1.275256 0
M  V30 29 H 1.465649 -6.818222 3.574429 0
M  V30 30 H 1.610897 -6.621852 1.763807 0
M  V30 31 H 0.958668 -5.300218 2.786711 0
M  V30 32 H 3.818837 -6.301037 3.310027 0
M  V30 33 H 2.038339 -3.792038 3.580831 0
M  V30 34 H 2.974334 -4.606092 4.855120 0
M  V30 35 H 3.793886 -3.578020 3.549312 0
M  V30 36 H 4.139765 -5.177677 0.739940 0
M  V30 37 H -0.450924 -3.501824 -0.068104 0
M  V30 38 H 1.820643 0.327582 0.964238 0
M  V30 39 H -0.888032 3.973684 -0.176536 0
M  V30 40 H -0.078105 6.177568 0.150859 0
M  V30 41 H 2.076513 6.645244 1.096142 0
M  V30 42 H 3.516462 4.784691 1.757260 0
M  V30 43 H -3.156312 2.690323 -1.010308 0
M  V30 44 H -5.476514 2.585056 -1.950705 0
M  V30 45 H -6.521712 0.341066 -2.386479 0
M  V30 46 H -5.228061 -1.681919 -1.876153 0
M  V30 END ATOM
M  V30 BEGIN BOND
M  V30 1 1 1 2
M  V30 2 1 2 3
M  V30 3 1 2 4
M  V30 4 1 4 5
M  V30 5 2 5 6
M  V30 6 1 6 7
M  V30 7 2 7 8
M  V30 8 1 8 9
M  V30 9 2 9 10
M  V30 10 1 10 11
M  V30 11 1 11 12
M  V30 12 2 12 13
M  V30 13 1 13 14
M  V30 14 2 14 15
M  V30 15 1 15 16
M  V30 16 2 16 17
M  V30 17 1 17 18
M  V30 18 2 11 19
M  V30 19 1 19 20
M  V30 20 1 20 21
M  V30 21 2 21 22
M  V30 22 1 22 23
M  V30 23 2 23 24
M  V30 24 1 24 25
M  V30 25 2 25 26
M  V30 26 2 20 27
M  V30 27 1 8 28
M  V30 28 1 28 5
M  V30 29 1 27 9
M  V30 30 1 17 12
M  V30 31 1 26 21
M  V30 32 1 1 29
M  V30 33 1 1 30
M  V30 34 1 1 31
M  V30 35 1 2 32
M  V30 36 1 3 33
M  V30 37 1 3 34
M  V30 38 1 3 35
M  V30 39 1 4 36
M  V30 40 1 7 37
M  V30 41 1 10 38
M  V30 42 1 13 39
M  V30 43 1 14 40
M  V30 44 1 15 41
M  V30 45 1 16 42
M  V30 46 1 22 43
M  V30 47 1 23 44
M  V30 48 1 24 45
M  V30 49 1 25 46
M  V30 END BOND
M  V30 END CTAB
M  END
>  <Dataset>  (22) 
ChEMBL_Kinases

>  <Ligand_Instance>  (22) 
nan

>  <PDB_ID>  (22) 
nan

>  <Standardized_SMILES>  (22) 
CC(C)Nc1ncc(-c2cc(-c3ccccc3Cl)nc(-c3ccccn3)n2)s1

>  <Name>  (22) 
nan

>  <Pocket>  (22) 
nan

>  <ATP_Site>  (22) 
nan

>  <Peripheral>  (22) 
nan

>  <Num_H_Atoms_ProtBoundConf>  (22) 
nan

>  <Num_Resolved_Atoms>  (22) 
nan

>  <Num_Not_Resolved_Atoms>  (22) 
nan

$$$$
CHEMBL1258910
     RDKit          3D

  0  0  0  0  0  0  0  0  0  0999 V3000
M  V30 BEGIN CTAB
M  V30 COUNTS 56 59 0 0 0
M  V30 BEGIN ATOM
M  V30 1 C 1.439830 -1.104398 7.391206 0
M  V30 2 C 1.457536 -0.830431 5.938557 0
M  V30 3 C 1.842271 0.423098 5.501457 0
M  V30 4 C 1.862679 0.691473 4.141149 0
M  V30 5 C 1.494822 -0.309422 3.250052 0
M  V30 6 C 1.500053 -0.075524 1.807889 0
M  V30 7 N 2.522717 0.549836 1.178324 0
M  V30 8 C 2.494338 0.750992 -0.166980 0
M  V30 9 C 3.523003 1.385548 -0.834684 0
M  V30 10 C 4.713192 1.876363 -0.089429 0
M  V30 11 N 3.444444 1.562143 -2.187245 0
M  V30 12 C 2.354098 1.113166 -2.874168 0
M  V30 13 N 2.303438 1.315587 -4.298775 0
M  V30 14 N 1.349174 0.490611 -2.205383 0
M  V30 15 C 1.396675 0.301384 -0.873342 0
M  V30 16 N 0.357087 -0.325240 -0.289994 0
M  V30 17 C -0.813816 -0.813566 -0.988986 0 CFG=1
M  V30 18 C -2.009545 0.068782 -0.807646 0
M  V30 19 C -3.068402 -0.326264 -1.815311 0
M  V30 20 C -3.013449 -1.796971 -2.171247 0 CFG=2
M  V30 21 O -3.239983 -2.521292 -1.012388 0
M  V30 22 C -4.401599 -3.250912 -1.037831 0
M  V30 23 C -4.531684 -3.995675 0.284730 0
M  V30 24 O -4.571292 -3.104115 1.354538 0
M  V30 25 C -1.700937 -2.125451 -2.824721 0
M  V30 26 C -0.593543 -1.149471 -2.424221 0
M  V30 27 C 0.414602 -0.512399 1.061164 0
M  V30 28 O -0.553289 -1.099599 1.627873 0
M  V30 29 C 1.117436 -1.547311 3.733844 0
M  V30 30 N 1.104900 -1.786131 5.059326 0
M  V30 31 H 1.350212 -2.179641 7.581375 0
M  V30 32 H 0.587660 -0.598725 7.915687 0
M  V30 33 H 2.346457 -0.701763 7.893956 0
M  V30 34 H 2.128595 1.200634 6.205189 0
M  V30 35 H 2.152508 1.647864 3.731911 0
M  V30 36 H 4.945266 2.935689 -0.376299 0
M  V30 37 H 4.467952 1.912607 0.991530 0
M  V30 38 H 5.595204 1.215807 -0.209592 0
M  V30 39 H 2.447749 0.665261 -5.106678 0
M  V30 40 H 2.080852 2.295339 -4.590895 0
M  V30 41 H -1.082564 -1.789550 -0.486944 0
M  V30 42 H -2.372458 -0.031255 0.245336 0
M  V30 43 H -1.812420 1.144261 -0.944880 0
M  V30 44 H -3.034043 0.310184 -2.721929 0
M  V30 45 H -4.055270 -0.159813 -1.291810 0
M  V30 46 H -3.837493 -1.959906 -2.898607 0
M  V30 47 H -4.551112 -3.902823 -1.897223 0
M  V30 48 H -5.254374 -2.512915 -1.047959 0
M  V30 49 H -3.648590 -4.673543 0.417580 0
M  V30 50 H -5.422483 -4.640245 0.209140 0
M  V30 51 H -3.894364 -3.365603 2.054353 0
M  V30 52 H -1.823886 -2.046583 -3.918787 0
M  V30 53 H -1.341097 -3.145997 -2.531872 0
M  V30 54 H 0.383539 -1.652763 -2.575752 0
M  V30 55 H -0.747261 -0.258829 -3.046353 0
M  V30 56 H 0.820172 -2.368367 3.094614 0
M  V30 END ATOM
M  V30 BEGIN BOND
M  V30 1 1 1 2
M  V30 2 2 2 3
M  V30 3 1 3 4
M  V30 4 2 4 5
M  V30 5 1 5 6
M  V30 6 2 6 7
M  V30 7 1 7 8
M  V30 8 2 8 9
M  V30 9 1 9 10
M  V30 10 1 9 11
M  V30 11 2 11 12
M  V30 12 1 12 13
M  V30 13 1 12 14
M  V30 14 2 14 15
M  V30 15 1 15 16
M  V30 16 1 16 17
M  V30 17 1 17 18
M  V30 18 1 18 19
M  V30 19 1 19 20
M  V30 20 1 20 21
M  V30 21 1 21 22
M  V30 22 1 22 23
M  V30 23 1 23 24
M  V30 24 1 20 25
M  V30 25 1 25 26
M  V30 26 1 16 27
M  V30 27 2 27 28
M  V30 28 1 5 29
M  V30 29 2 29 30
M  V30 30 1 30 2
M  V30 31 1 27 6
M  V30 32 1 15 8
M  V30 33 1 26 17
M  V30 34 1 1 31
M  V30 35 1 1 32
M  V30 36 1 1 33
M  V30 37 1 3 34
M  V30 38 1 4 35
M  V30 39 1 10 36
M  V30 40 1 10 37
M  V30 41 1 10 38
M  V30 42 1 13 39
M  V30 43 1 13 40
M  V30 44 1 17 41 CFG=1
M  V30 45 1 18 42
M  V30 46 1 18 43
M  V30 47 1 19 44
M  V30 48 1 19 45
M  V30 49 1 20 46 CFG=3
M  V30 50 1 22 47
M  V30 51 1 22 48
M  V30 52 1 23 49
M  V30 53 1 23 50
M  V30 54 1 24 51
M  V30 55 1 25 52
M  V30 56 1 25 53
M  V30 57 1 26 54
M  V30 58 1 26 55
M  V30 59 1 29 56
M  V30 END BOND
M  V30 END CTAB
M  END
>  <Dataset>  (23) 
ChEMBL_Kinases

>  <Ligand_Instance>  (23) 
nan

>  <PDB_ID>  (23) 
nan

>  <Standardized_SMILES>  (23) 
Cc1ccc(-c2nc3c(C)nc(N)nc3n([C@H]3CC[C@H](OCCO)CC3)c2=O)cn1

>  <Name>  (23) 
nan

>  <Pocket>  (23) 
nan

>  <ATP_Site>  (23) 
nan

>  <Peripheral>  (23) 
nan

>  <Num_H_Atoms_ProtBoundConf>  (23) 
nan

>  <Num_Resolved_Atoms>  (23) 
nan

>  <Num_Not_Resolved_Atoms>  (23) 
nan

$$$$
CHEMBL1258911
     RDKit          3D

  0  0  0  0  0  0  0  0  0  0999 V3000
M  V30 BEGIN CTAB
M  V30 COUNTS 41 44 0 0 0
M  V30 BEGIN ATOM
M  V30 1 C 2.278279 -3.592964 -1.944715 0
M  V30 2 C 1.863802 -3.206803 -0.571074 0
M  V30 3 N 2.064809 -4.026239 0.494507 0
M  V30 4 C 1.695787 -3.688309 1.733670 0
M  V30 5 N 1.887191 -4.511252 2.865188 0
M  V30 6 N 1.098813 -2.479722 1.925001 0
M  V30 7 C 0.868650 -1.618911 0.917121 0
M  V30 8 C 1.257036 -1.986396 -0.354672 0
M  V30 9 N 1.031673 -1.130551 -1.377104 0
M  V30 10 C 0.430383 0.058998 -1.108277 0
M  V30 11 C 0.143836 1.057228 -2.161742 0
M  V30 12 C -0.908175 1.858174 -2.521648 0
M  V30 13 C -0.487650 2.573932 -3.646580 0
M  V30 14 N 0.786356 2.190449 -3.929046 0
M  V30 15 N 1.166085 1.280117 -3.038254 0
M  V30 16 C 0.061043 0.377055 0.187207 0
M  V30 17 O -0.491500 1.478525 0.411329 0
M  V30 18 N 0.261617 -0.436755 1.239911 0
M  V30 19 C -0.096052 -0.166135 2.596884 0
M  V30 20 C 0.204719 1.256014 3.048995 0
M  V30 21 C 0.150031 1.164675 4.582071 0
M  V30 22 O -1.121915 0.818102 5.008620 0
M  V30 23 C -2.016237 0.569037 3.989005 0
M  V30 24 C -1.522743 -0.425143 2.960956 0
M  V30 25 H 1.442076 -4.213276 -2.366122 0
M  V30 26 H 2.544014 -2.726060 -2.561877 0
M  V30 27 H 3.135325 -4.305195 -1.840739 0
M  V30 28 H 2.880458 -4.699135 3.166430 0
M  V30 29 H 1.207895 -4.999632 3.500860 0
M  V30 30 H -1.796032 1.788976 -1.912712 0
M  V30 31 H -1.205052 3.267376 -4.072342 0
M  V30 32 H 1.271150 2.625764 -4.748445 0
M  V30 33 H 0.529387 -0.825786 3.259080 0
M  V30 34 H -0.550099 1.986005 2.692286 0
M  V30 35 H 1.234214 1.492889 2.760742 0
M  V30 36 H 0.585915 2.043164 5.054865 0
M  V30 37 H 0.808987 0.297685 4.827635 0
M  V30 38 H -2.383021 1.494781 3.503063 0
M  V30 39 H -2.910079 0.099924 4.472305 0
M  V30 40 H -1.632989 -1.449569 3.400080 0
M  V30 41 H -2.215153 -0.387085 2.112623 0
M  V30 END ATOM
M  V30 BEGIN BOND
M  V30 1 1 1 2
M  V30 2 2 2 3
M  V30 3 1 3 4
M  V30 4 1 4 5
M  V30 5 2 4 6
M  V30 6 1 6 7
M  V30 7 2 7 8
M  V30 8 1 8 9
M  V30 9 2 9 10
M  V30 10 1 10 11
M  V30 11 1 11 12
M  V30 12 2 12 13
M  V30 13 1 13 14
M  V30 14 1 14 15
M  V30 15 1 10 16
M  V30 16 2 16 17
M  V30 17 1 16 18
M  V30 18 1 18 19
M  V30 19 1 19 20
M  V30 20 1 20 21
M  V30 21 1 21 22
M  V30 22 1 22 23
M  V30 23 1 23 24
M  V30 24 1 8 2
M  V30 25 2 15 11
M  V30 26 1 24 19
M  V30 27 1 18 7
M  V30 28 1 1 25
M  V30 29 1 1 26
M  V30 30 1 1 27
M  V30 31 1 5 28
M  V30 32 1 5 29
M  V30 33 1 12 30
M  V30 34 1 13 31
M  V30 35 1 14 32
M  V30 36 1 19 33
M  V30 37 1 20 34
M  V30 38 1 20 35
M  V30 39 1 21 36
M  V30 40 1 21 37
M  V30 41 1 23 38
M  V30 42 1 23 39
M  V30 43 1 24 40
M  V30 44 1 24 41
M  V30 END BOND
M  V30 END CTAB
M  END
>  <Dataset>  (24) 
ChEMBL_Kinases

>  <Ligand_Instance>  (24) 
nan

>  <PDB_ID>  (24) 
nan

>  <Standardized_SMILES>  (24) 
Cc1nc(N)nc2c1nc(-c1cc[nH]n1)c(=O)n2C1CCOCC1

>  <Name>  (24) 
nan

>  <Pocket>  (24) 
nan

>  <ATP_Site>  (24) 
nan

>  <Peripheral>  (24) 
nan

>  <Num_H_Atoms_ProtBoundConf>  (24) 
nan

>  <Num_Resolved_Atoms>  (24) 
nan

>  <Num_Not_Resolved_Atoms>  (24) 
nan

$$$$
CHEMBL126079
     RDKit          3D

  0  0  0  0  0  0  0  0  0  0999 V3000
M  V30 BEGIN CTAB
M  V30 COUNTS 51 54 0 0 0
M  V30 BEGIN ATOM
M  V30 1 O -1.810375 -1.082219 2.446448 0
M  V30 2 C -1.228364 -1.795021 1.598307 0
M  V30 3 O 0.025650 -1.388408 1.237009 0
M  V30 4 C 0.708415 -0.252231 1.730776 0 CFG=1
M  V30 5 C 2.025335 -0.736698 2.251602 0
M  V30 6 C 3.195923 0.013668 1.795615 0
M  V30 7 C 4.423289 -0.554250 2.144882 0
M  V30 8 O 4.536905 -1.747451 2.873852 0
M  V30 9 C 5.607059 0.052111 1.776874 0
M  V30 10 C 5.604802 1.230405 1.057226 0
M  V30 11 O 6.762423 1.892759 0.654966 0
M  V30 12 C 4.398906 1.803916 0.704587 0
M  V30 13 C 3.199619 1.191206 1.076443 0
M  V30 14 O 1.920281 1.648628 0.794562 0
M  V30 15 C 0.928789 0.668641 0.542662 0 CFG=2
M  V30 16 C -0.328001 1.338209 0.133982 0
M  V30 17 C -0.614793 2.431072 0.960423 0
M  V30 18 C -1.737375 3.210517 0.772825 0
M  V30 19 O -2.053554 4.300503 1.571581 0
M  V30 20 C -2.597707 2.907299 -0.252009 0
M  V30 21 O -3.733400 3.677810 -0.459447 0
M  V30 22 C -2.310784 1.835210 -1.058015 0
M  V30 23 O -3.142458 1.471299 -2.117966 0
M  V30 24 C -1.207673 1.051690 -0.890883 0
M  V30 25 C -1.750967 -3.011662 0.958477 0
M  V30 26 C -1.062401 -3.770455 0.018859 0
M  V30 27 C -1.704020 -4.901874 -0.493216 0
M  V30 28 O -0.969143 -5.620105 -1.426897 0
M  V30 29 C -2.973709 -5.230623 -0.064793 0
M  V30 30 O -3.559353 -6.375896 -0.617149 0
M  V30 31 C -3.652356 -4.468299 0.872203 0
M  V30 32 O -4.928856 -4.921047 1.210662 0
M  V30 33 C -3.020539 -3.346232 1.382445 0
M  V30 34 H 0.098191 0.303627 2.475485 0
M  V30 35 H 1.943826 -0.689730 3.376449 0
M  V30 36 H 2.212845 -1.822492 2.052644 0
M  V30 37 H 4.649467 -2.580493 2.279644 0
M  V30 38 H 6.557096 -0.391123 2.049449 0
M  V30 39 H 7.049182 1.880242 -0.317199 0
M  V30 40 H 4.294586 2.722887 0.143123 0
M  V30 41 H 1.227481 0.000329 -0.292781 0
M  V30 42 H -0.005087 2.771008 1.809052 0
M  V30 43 H -2.379907 5.143935 1.093711 0
M  V30 44 H -4.515803 3.336519 -0.994442 0
M  V30 45 H -3.559420 0.571302 -2.236795 0
M  V30 46 H -0.887542 0.192091 -1.460899 0
M  V30 47 H -0.073841 -3.431772 -0.252266 0
M  V30 48 H -0.661736 -6.547477 -1.229871 0
M  V30 49 H -3.380926 -6.608328 -1.603069 0
M  V30 50 H -5.659863 -4.688152 0.544147 0
M  V30 51 H -3.612417 -2.811549 2.101384 0
M  V30 END ATOM
M  V30 BEGIN BOND
M  V30 1 2 1 2
M  V30 2 1 2 3
M  V30 3 1 3 4
M  V30 4 1 4 5
M  V30 5 1 5 6
M  V30 6 2 6 7
M  V30 7 1 7 8
M  V30 8 1 7 9
M  V30 9 2 9 10
M  V30 10 1 10 11
M  V30 11 1 10 12
M  V30 12 2 12 13
M  V30 13 1 13 14
M  V30 14 1 14 15
M  V30 15 1 15 16
M  V30 16 2 16 17
M  V30 17 1 17 18
M  V30 18 1 18 19
M  V30 19 2 18 20
M  V30 20 1 20 21
M  V30 21 1 20 22
M  V30 22 1 22 23
M  V30 23 2 22 24
M  V30 24 1 2 25
M  V30 25 2 25 26
M  V30 26 1 26 27
M  V30 27 1 27 28
M  V30 28 2 27 29
M  V30 29 1 29 30
M  V30 30 1 29 31
M  V30 31 1 31 32
M  V30 32 2 31 33
M  V30 33 1 15 4
M  V30 34 1 24 16
M  V30 35 1 33 25
M  V30 36 1 13 6
M  V30 37 1 4 34 CFG=1
M  V30 38 1 5 35
M  V30 39 1 5 36
M  V30 40 1 8 37
M  V30 41 1 9 38
M  V30 42 1 11 39
M  V30 43 1 12 40
M  V30 44 1 15 41 CFG=3
M  V30 45 1 17 42
M  V30 46 1 19 43
M  V30 47 1 21 44
M  V30 48 1 23 45
M  V30 49 1 24 46
M  V30 50 1 26 47
M  V30 51 1 28 48
M  V30 52 1 30 49
M  V30 53 1 32 50
M  V30 54 1 33 51
M  V30 END BOND
M  V30 END CTAB
M  END
>  <Dataset>  (25) 
ChEMBL_Kinases

>  <Ligand_Instance>  (25) 
nan

>  <PDB_ID>  (25) 
nan

>  <Standardized_SMILES>  (25) 
O=C(O[C@H]1Cc2c(O)cc(O)cc2O[C@@H]1c1cc(O)c(O)c(O)c1)c1cc(O)c(O)c(O)c1

>  <Name>  (25) 
nan

>  <Pocket>  (25) 
nan

>  <ATP_Site>  (25) 
nan

>  <Peripheral>  (25) 
nan

>  <Num_H_Atoms_ProtBoundConf>  (25) 
nan

>  <Num_Resolved_Atoms>  (25) 
nan

>  <Num_Not_Resolved_Atoms>  (25) 
nan

$$$$
CHEMBL126408
     RDKit          3D

  0  0  0  0  0  0  0  0  0  0999 V3000
M  V30 BEGIN CTAB
M  V30 COUNTS 33 35 0 0 0
M  V30 BEGIN ATOM
M  V30 1 C -2.607047 -5.598006 2.460592 0
M  V30 2 C -1.992064 -4.327623 1.973310 0
M  V30 3 C -0.662235 -4.175758 1.644021 0
M  V30 4 C -0.208173 -2.955297 1.205428 0
M  V30 5 C -1.019886 -1.822343 1.064341 0
M  V30 6 C -0.424787 -0.581672 0.589668 0
M  V30 7 O -1.435585 0.128892 0.609518 0
M  V30 8 C 0.976667 -0.577309 0.285988 0
M  V30 9 C 1.732371 0.370545 -0.141636 0
M  V30 10 C 3.157942 0.350300 -0.443658 0
M  V30 11 O 3.894426 -0.638276 -0.326689 0
M  V30 12 N 3.539614 1.641224 -0.886338 0
M  V30 13 C 2.344118 2.436155 -0.850191 0
M  V30 14 C 2.262789 3.750729 -1.199547 0
M  V30 15 C 1.037415 4.383829 -1.111786 0
M  V30 16 C -0.070673 3.645049 -0.666431 0
M  V30 17 Br -1.666806 4.706122 -0.618098 0
M  V30 18 C 0.102114 2.311513 -0.331522 0
M  V30 19 C 1.278935 1.689405 -0.411875 0
M  V30 20 C -2.318697 -2.084983 1.417855 0
M  V30 21 C -2.851937 -3.264112 1.861995 0
M  V30 22 H -1.975221 -6.456922 2.168589 0
M  V30 23 H -3.624287 -5.697071 2.056508 0
M  V30 24 H -2.666417 -5.593964 3.568190 0
M  V30 25 H -0.113181 -5.085666 1.779520 0
M  V30 26 H 0.835641 -3.081197 1.015370 0
M  V30 27 H 1.523768 -1.493694 0.423651 0
M  V30 28 H 4.514296 1.879135 -1.163104 0
M  V30 29 H 3.123337 4.307779 -1.540757 0
M  V30 30 H 1.014369 5.415477 -1.394763 0
M  V30 31 H -0.846729 2.030168 -0.048209 0
M  V30 32 H -3.018201 -1.255407 1.337230 0
M  V30 33 H -3.894898 -3.339090 2.107936 0
M  V30 END ATOM
M  V30 BEGIN BOND
M  V30 1 1 1 2
M  V30 2 2 2 3
M  V30 3 1 3 4
M  V30 4 2 4 5
M  V30 5 1 5 6
M  V30 6 2 6 7
M  V30 7 1 6 8
M  V30 8 2 8 9
M  V30 9 1 9 10
M  V30 10 2 10 11
M  V30 11 1 10 12
M  V30 12 1 12 13
M  V30 13 2 13 14
M  V30 14 1 14 15
M  V30 15 2 15 16
M  V30 16 1 16 17
M  V30 17 1 16 18
M  V30 18 2 18 19
M  V30 19 1 5 20
M  V30 20 2 20 21
M  V30 21 1 21 2
M  V30 22 1 19 9
M  V30 23 1 19 13
M  V30 24 1 1 22
M  V30 25 1 1 23
M  V30 26 1 1 24
M  V30 27 1 3 25
M  V30 28 1 4 26
M  V30 29 1 8 27
M  V30 30 1 12 28
M  V30 31 1 14 29
M  V30 32 1 15 30
M  V30 33 1 18 31
M  V30 34 1 20 32
M  V30 35 1 21 33
M  V30 END BOND
M  V30 END CTAB
M  END
>  <Dataset>  (26) 
ChEMBL_Kinases

>  <Ligand_Instance>  (26) 
nan

>  <PDB_ID>  (26) 
nan

>  <Standardized_SMILES>  (26) 
Cc1ccc(C(=O)/C=C2/C(=O)Nc3ccc(Br)cc32)cc1

>  <Name>  (26) 
nan

>  <Pocket>  (26) 
nan

>  <ATP_Site>  (26) 
nan

>  <Peripheral>  (26) 
nan

>  <Num_H_Atoms_ProtBoundConf>  (26) 
nan

>  <Num_Resolved_Atoms>  (26) 
nan

>  <Num_Not_Resolved_Atoms>  (26) 
nan

$$$$
CHEMBL126545
     RDKit          3D

  0  0  0  0  0  0  0  0  0  0999 V3000
M  V30 BEGIN CTAB
M  V30 COUNTS 35 40 0 0 0
M  V30 BEGIN ATOM
M  V30 1 O 2.996671 -2.878332 1.702740 0
M  V30 2 C 1.835580 -2.463469 1.767358 0
M  V30 3 N 1.018025 -3.161520 2.711523 0
M  V30 4 C -0.255382 -2.522633 2.615491 0
M  V30 5 O -1.134707 -2.990802 3.374485 0
M  V30 6 C -0.224809 -1.432659 1.614623 0
M  V30 7 C 1.046604 -1.422207 1.122078 0
M  V30 8 C 1.485987 -0.553747 0.166903 0
M  V30 9 C 2.623724 -0.267946 -0.524760 0
M  V30 10 C 3.883498 -0.769920 -0.547780 0
M  V30 11 C 4.895105 -0.305320 -1.353799 0
M  V30 12 C 4.651980 0.748271 -2.217695 0
M  V30 13 C 3.377602 1.284073 -2.219831 0
M  V30 14 C 2.393870 0.776749 -1.385623 0
M  V30 15 N 1.118230 1.170962 -1.258757 0
M  V30 16 C 0.591178 0.363806 -0.325920 0
M  V30 17 C -0.674151 0.286650 0.224858 0
M  V30 18 S -2.073974 1.400512 -0.254272 0
M  V30 19 C -3.214828 0.636458 0.872656 0
M  V30 20 C -4.500762 1.030598 1.003500 0
M  V30 21 C -5.280280 0.355975 1.911978 0
M  V30 22 C -4.647348 -0.657956 2.591777 0
M  V30 23 C -3.334976 -0.969944 2.376324 0
M  V30 24 C -2.497350 -0.352921 1.498047 0
M  V30 25 C -1.194069 -0.554581 1.185917 0
M  V30 26 H 1.283298 -3.972422 3.346699 0
M  V30 27 H 4.124107 -1.575388 0.091877 0
M  V30 28 H 5.874131 -0.746006 -1.325766 0
M  V30 29 H 5.469789 1.088704 -2.837390 0
M  V30 30 H 3.181263 2.103526 -2.888997 0
M  V30 31 H 0.673837 1.945832 -1.793213 0
M  V30 32 H -4.925724 1.824501 0.444383 0
M  V30 33 H -6.304414 0.663407 2.022056 0
M  V30 34 H -5.299698 -1.179253 3.312784 0
M  V30 35 H -3.067843 -1.774453 3.005037 0
M  V30 END ATOM
M  V30 BEGIN BOND
M  V30 1 2 1 2
M  V30 2 1 2 3
M  V30 3 1 3 4
M  V30 4 2 4 5
M  V30 5 1 4 6
M  V30 6 2 6 7
M  V30 7 1 7 8
M  V30 8 1 8 9
M  V30 9 2 9 10
M  V30 10 1 10 11
M  V30 11 2 11 12
M  V30 12 1 12 13
M  V30 13 2 13 14
M  V30 14 1 14 15
M  V30 15 1 15 16
M  V30 16 1 16 17
M  V30 17 1 17 18
M  V30 18 1 18 19
M  V30 19 2 19 20
M  V30 20 1 20 21
M  V30 21 2 21 22
M  V30 22 1 22 23
M  V30 23 2 23 24
M  V30 24 1 24 25
M  V30 25 1 7 2
M  V30 26 2 16 8
M  V30 27 2 25 17
M  V30 28 1 25 6
M  V30 29 1 14 9
M  V30 30 1 24 19
M  V30 31 1 3 26
M  V30 32 1 10 27
M  V30 33 1 11 28
M  V30 34 1 12 29
M  V30 35 1 13 30
M  V30 36 1 15 31
M  V30 37 1 20 32
M  V30 38 1 21 33
M  V30 39 1 22 34
M  V30 40 1 23 35
M  V30 END BOND
M  V30 END CTAB
M  END
>  <Dataset>  (27) 
ChEMBL_Kinases

>  <Ligand_Instance>  (27) 
nan

>  <PDB_ID>  (27) 
nan

>  <Standardized_SMILES>  (27) 
O=C1NC(=O)c2c1c1c3ccccc3[nH]c1c1sc3ccccc3c21

>  <Name>  (27) 
nan

>  <Pocket>  (27) 
nan

>  <ATP_Site>  (27) 
nan

>  <Peripheral>  (27) 
nan

>  <Num_H_Atoms_ProtBoundConf>  (27) 
nan

>  <Num_Resolved_Atoms>  (27) 
nan

>  <Num_Not_Resolved_Atoms>  (27) 
nan

$$$$
CHEMBL126602
     RDKit          3D

  0  0  0  0  0  0  0  0  0  0999 V3000
M  V30 BEGIN CTAB
M  V30 COUNTS 30 32 0 0 0
M  V30 BEGIN ATOM
M  V30 1 O 1.077350 -4.069351 1.940537 0
M  V30 2 C 1.554574 -3.325056 1.062307 0
M  V30 3 N 2.648526 -3.613183 0.205039 0
M  V30 4 C 2.801303 -2.450225 -0.612073 0
M  V30 5 C 3.751371 -2.289117 -1.594988 0
M  V30 6 C 3.778628 -1.109163 -2.304411 0
M  V30 7 C 2.835453 -0.118201 -1.995691 0
M  V30 8 C 1.912145 -0.348539 -0.997703 0
M  V30 9 C 1.871138 -1.492251 -0.296412 0
M  V30 10 C 1.048465 -1.994565 0.765009 0
M  V30 11 C 0.072150 -1.326000 1.291702 0
M  V30 12 C -0.417114 -0.011815 0.988071 0
M  V30 13 O -0.252561 0.960857 0.270087 0
M  V30 14 C -1.547633 0.469526 1.767817 0
M  V30 15 C -2.111416 -0.336468 2.763239 0
M  V30 16 C -3.164930 0.017509 3.544683 0
M  V30 17 C -3.751002 1.251873 3.377794 0
M  V30 18 C -3.266426 2.111531 2.425436 0
M  V30 19 C -2.203797 1.670568 1.685900 0
M  V30 20 H 3.185969 -4.507609 0.220247 0
M  V30 21 H 4.471058 -3.061311 -1.821264 0
M  V30 22 H 4.537559 -1.021068 -3.066052 0
M  V30 23 H 3.001822 0.749190 -2.654204 0
M  V30 24 H 1.357590 0.523280 -0.983778 0
M  V30 25 H -0.397630 -1.899181 2.063838 0
M  V30 26 H -1.820848 -1.326871 3.065432 0
M  V30 27 H -3.644691 -0.554766 4.325885 0
M  V30 28 H -4.594117 1.629171 3.948653 0
M  V30 29 H -3.693341 3.079677 2.263864 0
M  V30 30 H -1.836720 2.374416 0.933940 0
M  V30 END ATOM
M  V30 BEGIN BOND
M  V30 1 2 1 2
M  V30 2 1 2 3
M  V30 3 1 3 4
M  V30 4 2 4 5
M  V30 5 1 5 6
M  V30 6 2 6 7
M  V30 7 1 7 8
M  V30 8 2 8 9
M  V30 9 1 9 10
M  V30 10 2 10 11
M  V30 11 1 11 12
M  V30 12 2 12 13
M  V30 13 1 12 14
M  V30 14 2 14 15
M  V30 15 1 15 16
M  V30 16 2 16 17
M  V30 17 1 17 18
M  V30 18 2 18 19
M  V30 19 1 10 2
M  V30 20 1 19 14
M  V30 21 1 9 4
M  V30 22 1 3 20
M  V30 23 1 5 21
M  V30 24 1 6 22
M  V30 25 1 7 23
M  V30 26 1 8 24
M  V30 27 1 11 25
M  V30 28 1 15 26
M  V30 29 1 16 27
M  V30 30 1 17 28
M  V30 31 1 18 29
M  V30 32 1 19 30
M  V30 END BOND
M  V30 END CTAB
M  END
>  <Dataset>  (28) 
ChEMBL_Kinases

>  <Ligand_Instance>  (28) 
nan

>  <PDB_ID>  (28) 
nan

>  <Standardized_SMILES>  (28) 
O=C1Nc2ccccc2/C1=C\C(=O)c1ccccc1

>  <Name>  (28) 
nan

>  <Pocket>  (28) 
nan

>  <ATP_Site>  (28) 
nan

>  <Peripheral>  (28) 
nan

>  <Num_H_Atoms_ProtBoundConf>  (28) 
nan

>  <Num_Resolved_Atoms>  (28) 
nan

>  <Num_Not_Resolved_Atoms>  (28) 
nan

$$$$
CHEMBL126615
     RDKit          3D

  0  0  0  0  0  0  0  0  0  0999 V3000
M  V30 BEGIN CTAB
M  V30 COUNTS 23 24 0 0 0
M  V30 BEGIN ATOM
M  V30 1 N 0.759336 -3.914972 2.190799 0
M  V30 2 C 0.798308 -2.770716 2.017854 0
M  V30 3 C 0.860759 -1.337339 1.822755 0
M  V30 4 C 1.564935 -0.483457 2.762486 0
M  V30 5 N 2.115049 -1.305567 3.802218 0
M  V30 6 O 2.116137 0.391965 3.455593 0
M  V30 7 C 0.236369 -0.919054 0.748424 0
M  V30 8 C -0.489973 -1.685675 -0.244306 0
M  V30 9 O -0.586656 -2.917543 -0.144928 0
M  V30 10 N -1.018117 -0.837920 -1.254096 0
M  V30 11 C -0.609861 0.478413 -0.877555 0
M  V30 12 C -0.876114 1.658596 -1.540803 0
M  V30 13 C -0.399797 2.839827 -1.028764 0
M  V30 14 C 0.336512 2.822550 0.140356 0
M  V30 15 C 0.600639 1.624495 0.803900 0
M  V30 16 C 0.123664 0.451573 0.289131 0
M  V30 17 H 3.046906 -1.811548 3.907608 0
M  V30 18 H 1.756910 -1.646802 4.726404 0
M  V30 19 H -1.580167 -1.142395 -2.081448 0
M  V30 20 H -1.453082 1.667810 -2.456040 0
M  V30 21 H -0.620622 3.733147 -1.561280 0
M  V30 22 H 0.670297 3.807557 0.466955 0
M  V30 23 H 1.163214 1.773895 1.663851 0
M  V30 END ATOM
M  V30 BEGIN BOND
M  V30 1 3 1 2
M  V30 2 1 2 3
M  V30 3 1 3 4
M  V30 4 1 4 5
M  V30 5 2 4 6
M  V30 6 2 3 7
M  V30 7 1 7 8
M  V30 8 2 8 9
M  V30 9 1 8 10
M  V30 10 1 10 11
M  V30 11 2 11 12
M  V30 12 1 12 13
M  V30 13 2 13 14
M  V30 14 1 14 15
M  V30 15 2 15 16
M  V30 16 1 16 7
M  V30 17 1 16 11
M  V30 18 1 5 17
M  V30 19 1 5 18
M  V30 20 1 10 19
M  V30 21 1 12 20
M  V30 22 1 13 21
M  V30 23 1 14 22
M  V30 24 1 15 23
M  V30 END BOND
M  V30 END CTAB
M  END
>  <Dataset>  (29) 
ChEMBL_Kinases

>  <Ligand_Instance>  (29) 
nan

>  <PDB_ID>  (29) 
nan

>  <Standardized_SMILES>  (29) 
N#C/C(C(N)=O)=C1\C(=O)Nc2ccccc21

>  <Name>  (29) 
nan

>  <Pocket>  (29) 
nan

>  <ATP_Site>  (29) 
nan

>  <Peripheral>  (29) 
nan

>  <Num_H_Atoms_ProtBoundConf>  (29) 
nan

>  <Num_Resolved_Atoms>  (29) 
nan

>  <Num_Not_Resolved_Atoms>  (29) 
nan

$$$$
CHEMBL1258604
     RDKit          3D

  0  0  0  0  0  0  0  0  0  0999 V3000
M  V30 BEGIN CTAB
M  V30 COUNTS 57 62 0 0 0
M  V30 BEGIN ATOM
M  V30 1 C 5.471238 -0.758774 -0.176472 0
M  V30 2 C 5.285837 -2.091511 -0.509171 0
M  V30 3 N 4.035307 -2.540993 -0.526312 0
M  V30 4 C 2.986741 -1.738207 -0.233071 0
M  V30 5 C 3.093236 -0.408206 0.104873 0
M  V30 6 C 1.951265 0.421507 0.411088 0
M  V30 7 C 2.078997 1.747529 0.751021 0
M  V30 8 N 1.011035 2.488091 1.031249 0
M  V30 9 C 0.888859 3.773781 1.381055 0
M  V30 10 C 1.891387 4.810898 1.577393 0
M  V30 11 C 1.690954 6.075507 1.047830 0
M  V30 12 C 2.658462 7.035632 1.253913 0
M  V30 13 C 3.801112 6.780985 1.959065 0
M  V30 14 N 4.006502 5.556670 2.477966 0
M  V30 15 C 3.067638 4.622166 2.279088 0
M  V30 16 C -0.446353 4.058173 1.561510 0
M  V30 17 N -1.099445 2.914733 1.310949 0
M  V30 18 C -0.219495 1.956798 0.988018 0
M  V30 19 C -0.409438 0.630513 0.652798 0
M  V30 20 N -1.726632 0.107187 0.623477 0
M  V30 21 C -2.186073 -1.195410 0.292438 0
M  V30 22 C -3.509482 -1.569114 0.423264 0
M  V30 23 C -3.961545 -2.827015 0.102330 0
M  V30 24 C -3.102011 -3.794290 -0.373742 0
M  V30 25 N -3.559794 -5.100044 -0.700240 0
M  V30 26 C -2.816844 -6.164650 -1.349294 0
M  V30 27 C -2.763280 -7.409021 -0.486164 0
M  V30 28 O -3.693432 -7.345771 0.552070 0
M  V30 29 C -4.952132 -7.005980 0.038596 0
M  V30 30 C -4.911214 -5.576138 -0.404858 0
M  V30 31 C -1.769874 -3.477981 -0.524925 0
M  V30 32 C -1.367680 -2.200501 -0.188342 0
M  V30 33 N 0.705571 -0.060919 0.382180 0
M  V30 34 C 4.388898 0.056095 0.122362 0
M  V30 35 H 6.499673 -0.390135 -0.163559 0
M  V30 36 H 6.152495 -2.696446 -0.736013 0
M  V30 37 H 2.047786 -2.230803 -0.285515 0
M  V30 38 H 3.031213 2.230826 0.802561 0
M  V30 39 H 0.774558 6.288213 0.480368 0
M  V30 40 H 2.515539 8.038732 0.842734 0
M  V30 41 H 4.587139 7.521894 2.138020 0
M  V30 42 H 3.272747 3.657402 2.712303 0
M  V30 43 H -0.993834 4.938773 1.837473 0
M  V30 44 H -2.511639 0.764944 0.883512 0
M  V30 45 H -4.210856 -0.822841 0.798741 0
M  V30 46 H -5.013201 -2.995046 0.244278 0
M  V30 47 H -3.413465 -6.431403 -2.271751 0
M  V30 48 H -1.821742 -5.881783 -1.687931 0
M  V30 49 H -3.021529 -8.302984 -1.099968 0
M  V30 50 H -1.755423 -7.576201 -0.057755 0
M  V30 51 H -5.668821 -7.123423 0.884472 0
M  V30 52 H -5.276339 -7.723926 -0.749874 0
M  V30 53 H -5.574412 -5.444382 -1.292572 0
M  V30 54 H -5.324966 -4.962954 0.415907 0
M  V30 55 H -1.053973 -4.202819 -0.894318 0
M  V30 56 H -0.319293 -2.019553 -0.331873 0
M  V30 57 H 4.622038 1.078422 0.369909 0
M  V30 END ATOM
M  V30 BEGIN BOND
M  V30 1 2 1 2
M  V30 2 1 2 3
M  V30 3 2 3 4
M  V30 4 1 4 5
M  V30 5 1 5 6
M  V30 6 2 6 7
M  V30 7 1 7 8
M  V30 8 1 8 9
M  V30 9 1 9 10
M  V30 10 2 10 11
M  V30 11 1 11 12
M  V30 12 2 12 13
M  V30 13 1 13 14
M  V30 14 2 14 15
M  V30 15 2 9 16
M  V30 16 1 16 17
M  V30 17 2 17 18
M  V30 18 1 18 19
M  V30 19 1 19 20
M  V30 20 1 20 21
M  V30 21 2 21 22
M  V30 22 1 22 23
M  V30 23 2 23 24
M  V30 24 1 24 25
M  V30 25 1 25 26
M  V30 26 1 26 27
M  V30 27 1 27 28
M  V30 28 1 28 29
M  V30 29 1 29 30
M  V30 30 1 24 31
M  V30 31 2 31 32
M  V30 32 2 19 33
M  V30 33 2 5 34
M  V30 34 1 34 1
M  V30 35 1 33 6
M  V30 36 1 18 8
M  V30 37 1 32 21
M  V30 38 1 15 10
M  V30 39 1 30 25
M  V30 40 1 1 35
M  V30 41 1 2 36
M  V30 42 1 4 37
M  V30 43 1 7 38
M  V30 44 1 11 39
M  V30 45 1 12 40
M  V30 46 1 13 41
M  V30 47 1 15 42
M  V30 48 1 16 43
M  V30 49 1 20 44
M  V30 50 1 22 45
M  V30 51 1 23 46
M  V30 52 1 26 47
M  V30 53 1 26 48
M  V30 54 1 27 49
M  V30 55 1 27 50
M  V30 56 1 29 51
M  V30 57 1 29 52
M  V30 58 1 30 53
M  V30 59 1 30 54
M  V30 60 1 31 55
M  V30 61 1 32 56
M  V30 62 1 34 57
M  V30 END BOND
M  V30 END CTAB
M  END
>  <Dataset>  (30) 
ChEMBL_Kinases

>  <Ligand_Instance>  (30) 
nan

>  <PDB_ID>  (30) 
nan

>  <Standardized_SMILES>  (30) 
c1cncc(-c2cn3c(-c4cccnc4)cnc3c(Nc3ccc(N4CCOCC4)cc3)n2)c1

>  <Name>  (30) 
nan

>  <Pocket>  (30) 
nan

>  <ATP_Site>  (30) 
nan

>  <Peripheral>  (30) 
nan

>  <Num_H_Atoms_ProtBoundConf>  (30) 
nan

>  <Num_Resolved_Atoms>  (30) 
nan

>  <Num_Not_Resolved_Atoms>  (30) 
nan

$$$$
CHEMBL1230610
     RDKit          3D

  0  0  0  0  0  0  0  0  0  0999 V3000
M  V30 BEGIN CTAB
M  V30 COUNTS 47 49 0 0 0
M  V30 BEGIN ATOM
M  V30 1 C 1.756586 -0.496885 4.839924 0
M  V30 2 C 2.955391 -0.600191 3.919992 0 CFG=1
M  V30 3 C 3.234202 -1.994632 3.478810 0
M  V30 4 S 4.651783 -2.028461 2.405637 0
M  V30 5 C 6.085085 -1.413128 3.225155 0
M  V30 6 O 4.932151 -3.422149 1.923179 0
M  V30 7 O 4.359840 -1.196441 1.176170 0
M  V30 8 N 2.866303 0.369299 2.855631 0
M  V30 9 C 1.770580 0.365224 1.936782 0
M  V30 10 N 1.667018 1.263346 0.933070 0
M  V30 11 C 0.646789 1.284784 0.051770 0
M  V30 12 C -0.311813 0.309395 0.239579 0
M  V30 13 C -1.372262 0.308499 -0.652804 0
M  V30 14 C -2.391745 -0.621743 -0.562337 0
M  V30 15 O -3.496953 -0.762574 -1.349625 0
M  V30 16 C -3.881709 -0.025110 -2.426238 0
M  V30 17 C -4.064989 -0.533288 -3.695612 0
M  V30 18 C -4.460181 0.306543 -4.728930 0
M  V30 19 C -4.682959 1.654203 -4.541919 0
M  V30 20 F -5.067996 2.414423 -5.599766 0
M  V30 21 C -4.496216 2.159147 -3.259854 0
M  V30 22 C -4.099173 1.322694 -2.215262 0
M  V30 23 F -3.966228 1.982943 -1.037794 0
M  V30 24 C -2.283935 -1.552611 0.478370 0
M  V30 25 O -3.158198 -2.451606 0.659281 0
M  V30 26 N -1.246098 -1.541708 1.341491 0
M  V30 27 C -1.161795 -2.522753 2.413598 0
M  V30 28 C -0.255843 -0.633316 1.248701 0
M  V30 29 N 0.804535 -0.562957 2.070149 0
M  V30 30 H 1.172653 0.394958 4.541787 0
M  V30 31 H 1.118739 -1.384466 4.651872 0
M  V30 32 H 2.011203 -0.356555 5.893925 0
M  V30 33 H 3.835621 -0.298713 4.560372 0
M  V30 34 H 3.520312 -2.568396 4.386788 0
M  V30 35 H 2.392670 -2.527230 3.041084 0
M  V30 36 H 6.320557 -0.365717 2.943726 0
M  V30 37 H 5.879391 -1.417446 4.322072 0
M  V30 38 H 6.963531 -2.025799 2.960185 0
M  V30 39 H 3.602265 1.121937 2.707558 0
M  V30 40 H 0.562288 1.995562 -0.744716 0
M  V30 41 H -1.481681 1.007744 -1.458508 0
M  V30 42 H -3.890832 -1.604725 -3.857570 0
M  V30 43 H -4.605589 -0.096744 -5.736110 0
M  V30 44 H -4.683495 3.224301 -3.162297 0
M  V30 45 H -0.125794 -2.840466 2.600783 0
M  V30 46 H -1.684961 -3.435191 2.008751 0
M  V30 47 H -1.648960 -2.148270 3.334744 0
M  V30 END ATOM
M  V30 BEGIN BOND
M  V30 1 1 1 2
M  V30 2 1 2 3
M  V30 3 1 3 4
M  V30 4 1 4 5
M  V30 5 2 4 6
M  V30 6 2 4 7
M  V30 7 1 2 8
M  V30 8 1 8 9
M  V30 9 2 9 10
M  V30 10 1 10 11
M  V30 11 2 11 12
M  V30 12 1 12 13
M  V30 13 2 13 14
M  V30 14 1 14 15
M  V30 15 1 15 16
M  V30 16 2 16 17
M  V30 17 1 17 18
M  V30 18 2 18 19
M  V30 19 1 19 20
M  V30 20 1 19 21
M  V30 21 2 21 22
M  V30 22 1 22 23
M  V30 23 1 14 24
M  V30 24 2 24 25
M  V30 25 1 24 26
M  V30 26 1 26 27
M  V30 27 1 26 28
M  V30 28 2 28 29
M  V30 29 1 29 9
M  V30 30 1 28 12
M  V30 31 1 22 16
M  V30 32 1 1 30
M  V30 33 1 1 31
M  V30 34 1 1 32
M  V30 35 1 2 33 CFG=1
M  V30 36 1 3 34
M  V30 37 1 3 35
M  V30 38 1 5 36
M  V30 39 1 5 37
M  V30 40 1 5 38
M  V30 41 1 8 39
M  V30 42 1 11 40
M  V30 43 1 13 41
M  V30 44 1 17 42
M  V30 45 1 18 43
M  V30 46 1 21 44
M  V30 47 1 27 45
M  V30 48 1 27 46
M  V30 49 1 27 47
M  V30 END BOND
M  V30 END CTAB
M  END
>  <Dataset>  (31) 
ChEMBL_Kinases

>  <Ligand_Instance>  (31) 
nan

>  <PDB_ID>  (31) 
nan

>  <Standardized_SMILES>  (31) 
C[C@@H](CS(C)(=O)=O)Nc1ncc2cc(Oc3ccc(F)cc3F)c(=O)n(C)c2n1

>  <Name>  (31) 
nan

>  <Pocket>  (31) 
nan

>  <ATP_Site>  (31) 
nan

>  <Peripheral>  (31) 
nan

>  <Num_H_Atoms_ProtBoundConf>  (31) 
nan

>  <Num_Resolved_Atoms>  (31) 
nan

>  <Num_Not_Resolved_Atoms>  (31) 
nan

$$$$
CHEMBL1230351
     RDKit          3D

  0  0  0  0  0  0  0  0  0  0999 V3000
M  V30 BEGIN CTAB
M  V30 COUNTS 46 49 0 0 0
M  V30 BEGIN ATOM
M  V30 1 C 3.827492 0.817547 -4.232249 0
M  V30 2 C 3.506376 0.838867 -2.717861 0 CFG=2
M  V30 3 C 4.602862 0.016318 -2.111268 0
M  V30 4 N 4.579347 -0.168280 -0.706766 0
M  V30 5 N 5.082566 0.533645 0.299627 0
M  V30 6 C 4.820786 -0.063327 1.473227 0
M  V30 7 N 4.120542 -1.184558 1.130374 0
M  V30 8 N 3.981283 -1.240777 -0.158812 0
M  V30 9 N 2.177276 0.358576 -2.501927 0
M  V30 10 C 1.432548 0.433867 -1.291203 0
M  V30 11 N 1.871726 1.060551 -0.186493 0
M  V30 12 C 1.195142 1.147309 0.970015 0
M  V30 13 C -0.046160 0.552919 1.044336 0
M  V30 14 C -0.774398 0.618135 2.214524 0
M  V30 15 C -2.037090 0.014204 2.294078 0
M  V30 16 O -2.826279 0.038378 3.434317 0
M  V30 17 C -3.242197 -1.078942 4.140072 0
M  V30 18 C -2.987397 -2.416456 3.924308 0
M  V30 19 C -3.499950 -3.394995 4.749175 0
M  V30 20 C -4.303348 -3.047259 5.842178 0
M  V30 21 F -4.766230 -4.071859 6.601852 0
M  V30 22 C -4.565140 -1.706433 6.067903 0
M  V30 23 C -4.045217 -0.727174 5.232535 0
M  V30 24 F -4.423693 0.525466 5.631053 0
M  V30 25 C -2.462013 -0.627776 1.126576 0
M  V30 26 O -3.584339 -1.209133 1.071824 0
M  V30 27 N -1.733623 -0.681970 -0.013340 0
M  V30 28 C -2.230813 -1.364933 -1.190595 0
M  V30 29 C -0.523004 -0.097654 -0.074247 0
M  V30 30 N 0.220145 -0.136868 -1.192052 0
M  V30 31 H 3.682398 -0.265503 -4.503290 0
M  V30 32 H 4.892395 1.026999 -4.357069 0
M  V30 33 H 3.140831 1.445994 -4.805507 0
M  V30 34 H 3.580288 1.895249 -2.430856 0
M  V30 35 H 4.684928 -0.981368 -2.638871 0
M  V30 36 H 5.564057 0.532165 -2.383783 0
M  V30 37 H 4.996098 0.087336 2.513823 0
M  V30 38 H 1.687804 -0.103095 -3.325115 0
M  V30 39 H 1.602620 1.665157 1.822691 0
M  V30 40 H -0.402061 1.133048 3.107663 0
M  V30 41 H -2.358429 -2.600164 3.066026 0
M  V30 42 H -3.257125 -4.423576 4.517280 0
M  V30 43 H -5.187787 -1.573065 6.928007 0
M  V30 44 H -1.660009 -2.275848 -1.452052 0
M  V30 45 H -3.273233 -1.690001 -0.993268 0
M  V30 46 H -2.171677 -0.657186 -2.048939 0
M  V30 END ATOM
M  V30 BEGIN BOND
M  V30 1 1 1 2
M  V30 2 1 2 3
M  V30 3 1 3 4
M  V30 4 1 4 5
M  V30 5 2 5 6
M  V30 6 1 6 7
M  V30 7 2 7 8
M  V30 8 1 2 9
M  V30 9 1 9 10
M  V30 10 2 10 11
M  V30 11 1 11 12
M  V30 12 2 12 13
M  V30 13 1 13 14
M  V30 14 2 14 15
M  V30 15 1 15 16
M  V30 16 1 16 17
M  V30 17 2 17 18
M  V30 18 1 18 19
M  V30 19 2 19 20
M  V30 20 1 20 21
M  V30 21 1 20 22
M  V30 22 2 22 23
M  V30 23 1 23 24
M  V30 24 1 15 25
M  V30 25 2 25 26
M  V30 26 1 25 27
M  V30 27 1 27 28
M  V30 28 1 27 29
M  V30 29 2 29 30
M  V30 30 1 8 4
M  V30 31 1 30 10
M  V30 32 1 29 13
M  V30 33 1 23 17
M  V30 34 1 1 31
M  V30 35 1 1 32
M  V30 36 1 1 33
M  V30 37 1 2 34 CFG=1
M  V30 38 1 3 35
M  V30 39 1 3 36
M  V30 40 1 6 37
M  V30 41 1 9 38
M  V30 42 1 12 39
M  V30 43 1 14 40
M  V30 44 1 18 41
M  V30 45 1 19 42
M  V30 46 1 22 43
M  V30 47 1 28 44
M  V30 48 1 28 45
M  V30 49 1 28 46
M  V30 END BOND
M  V30 END CTAB
M  END
>  <Dataset>  (32) 
ChEMBL_Kinases

>  <Ligand_Instance>  (32) 
nan

>  <PDB_ID>  (32) 
nan

>  <Standardized_SMILES>  (32) 
C[C@H](Cn1ncnn1)Nc1ncc2cc(Oc3ccc(F)cc3F)c(=O)n(C)c2n1

>  <Name>  (32) 
nan

>  <Pocket>  (32) 
nan

>  <ATP_Site>  (32) 
nan

>  <Peripheral>  (32) 
nan

>  <Num_H_Atoms_ProtBoundConf>  (32) 
nan

>  <Num_Resolved_Atoms>  (32) 
nan

>  <Num_Not_Resolved_Atoms>  (32) 
nan

$$$$
CHEMBL1230276
     RDKit          3D

  0  0  0  0  0  0  0  0  0  0999 V3000
M  V30 BEGIN CTAB
M  V30 COUNTS 25 26 0 0 0
M  V30 BEGIN ATOM
M  V30 1 O 1.364664 -2.997373 4.410203 0
M  V30 2 C 0.982235 -2.891493 3.235261 0
M  V30 3 O 0.709852 -4.119767 2.662836 0
M  V30 4 C 0.810648 -1.670679 2.470002 0
M  V30 5 N 0.385995 -1.609253 1.175336 0
M  V30 6 C 0.342232 -0.327786 0.783810 0
M  V30 7 C -0.073625 0.109573 -0.560436 0
M  V30 8 C -0.453744 -0.802046 -1.524022 0
M  V30 9 C -0.850728 -0.440747 -2.795959 0
M  V30 10 C -0.839388 0.920186 -3.036935 0
M  V30 11 C -0.474173 1.894318 -2.130996 0
M  V30 12 C -0.082848 1.468241 -0.863040 0
M  V30 13 N 0.727930 0.480948 1.784739 0
M  V30 14 C 1.015216 -0.358629 2.822131 0
M  V30 15 C 1.477450 0.113604 4.122127 0
M  V30 16 O 1.778260 -0.529125 5.159197 0
M  V30 17 O 1.657348 1.461333 4.393844 0
M  V30 18 H 0.372590 -4.899698 3.207610 0
M  V30 19 H -0.454211 -1.875945 -1.308264 0
M  V30 20 H -1.149522 -1.150692 -3.554734 0
M  V30 21 H -1.146915 1.243519 -4.031094 0
M  V30 22 H -0.509849 2.935320 -2.449221 0
M  V30 23 H 0.205837 2.224844 -0.144199 0
M  V30 24 H 0.773654 1.508686 1.714791 0
M  V30 25 H 1.516539 1.908025 5.286975 0
M  V30 END ATOM
M  V30 BEGIN BOND
M  V30 1 2 1 2
M  V30 2 1 2 3
M  V30 3 1 2 4
M  V30 4 1 4 5
M  V30 5 2 5 6
M  V30 6 1 6 7
M  V30 7 2 7 8
M  V30 8 1 8 9
M  V30 9 2 9 10
M  V30 10 1 10 11
M  V30 11 2 11 12
M  V30 12 1 6 13
M  V30 13 1 13 14
M  V30 14 1 14 15
M  V30 15 2 15 16
M  V30 16 1 15 17
M  V30 17 2 14 4
M  V30 18 1 12 7
M  V30 19 1 3 18
M  V30 20 1 8 19
M  V30 21 1 9 20
M  V30 22 1 10 21
M  V30 23 1 11 22
M  V30 24 1 12 23
M  V30 25 1 13 24
M  V30 26 1 17 25
M  V30 END BOND
M  V30 END CTAB
M  END
>  <Dataset>  (33) 
ChEMBL_Kinases

>  <Ligand_Instance>  (33) 
nan

>  <PDB_ID>  (33) 
nan

>  <Standardized_SMILES>  (33) 
O=C(O)c1nc(-c2ccccc2)[nH]c1C(=O)O

>  <Name>  (33) 
nan

>  <Pocket>  (33) 
nan

>  <ATP_Site>  (33) 
nan

>  <Peripheral>  (33) 
nan

>  <Num_H_Atoms_ProtBoundConf>  (33) 
nan

>  <Num_Resolved_Atoms>  (33) 
nan

>  <Num_Not_Resolved_Atoms>  (33) 
nan

$$$$
CHEMBL1230170
     RDKit          3D

  0  0  0  0  0  0  0  0  0  0999 V3000
M  V30 BEGIN CTAB
M  V30 COUNTS 51 54 0 0 0
M  V30 BEGIN ATOM
M  V30 1 C 2.662387 -1.222302 -1.463647 0
M  V30 2 C 3.728323 -0.128934 -1.476475 0
M  V30 3 C 4.318499 -0.076902 -2.883408 0
M  V30 4 C 4.751604 -0.497688 -0.475140 0
M  V30 5 N 5.878184 -1.212838 -0.560996 0
M  V30 6 N 6.475954 -1.267091 0.636510 0
M  V30 7 C 5.725494 -0.571445 1.532064 0
M  V30 8 Cl 6.193108 -0.413786 3.231894 0
M  V30 9 C 4.632698 -0.082339 0.833502 0
M  V30 10 C 3.669555 0.707235 1.589591 0
M  V30 11 C 3.735691 2.072976 1.748715 0
M  V30 12 C 2.752294 2.690586 2.496661 0
M  V30 13 N 1.754169 1.966753 3.054823 0
M  V30 14 C 1.685104 0.622458 2.900747 0
M  V30 15 N 0.677015 -0.212400 3.453475 0
M  V30 16 C -0.552198 -0.492710 2.798577 0
M  V30 17 C -0.875016 0.029808 1.565109 0
M  V30 18 C -2.100112 -0.289645 0.986891 0
M  V30 19 C -3.033979 -1.128320 1.606472 0
M  V30 20 N -4.285308 -1.428678 0.977391 0
M  V30 21 C -4.472917 -0.735384 -0.306998 0
M  V30 22 C -5.887312 -1.044058 -0.749622 0
M  V30 23 N -6.139692 -2.450525 -0.516180 0
M  V30 24 C -6.281044 -2.757195 0.885698 0
M  V30 25 C -5.124505 -2.365446 1.740173 0
M  V30 26 C -2.633757 -1.610920 2.841117 0
M  V30 27 N -1.446059 -1.289599 3.381312 0
M  V30 28 N 2.657997 0.016105 2.161422 0
M  V30 29 H 2.879394 -2.000113 -0.699061 0
M  V30 30 H 1.656325 -0.822182 -1.212783 0
M  V30 31 H 2.593176 -1.729187 -2.437812 0
M  V30 32 H 3.232367 0.819585 -1.248693 0
M  V30 33 H 4.857605 0.877682 -3.058965 0
M  V30 34 H 3.505127 -0.190141 -3.635253 0
M  V30 35 H 5.018576 -0.909149 -3.056534 0
M  V30 36 H 7.372894 -1.785737 0.762260 0
M  V30 37 H 4.560714 2.591866 1.275372 0
M  V30 38 H 2.794075 3.764065 2.628305 0
M  V30 39 H 0.888607 -0.611619 4.371412 0
M  V30 40 H -0.183407 0.683664 1.047089 0
M  V30 41 H -2.293348 0.145973 0.028969 0
M  V30 42 H -3.788655 -1.223503 -1.017620 0
M  V30 43 H -4.311694 0.355704 -0.183372 0
M  V30 44 H -6.018992 -0.861818 -1.836137 0
M  V30 45 H -6.552445 -0.416004 -0.123832 0
M  V30 46 H -5.461451 -3.027969 -1.021273 0
M  V30 47 H -6.418063 -3.869558 0.949243 0
M  V30 48 H -7.212727 -2.291627 1.264826 0
M  V30 49 H -5.489982 -1.919088 2.678676 0
M  V30 50 H -4.482150 -3.263730 1.926094 0
M  V30 51 H -3.364421 -2.271536 3.334073 0
M  V30 END ATOM
M  V30 BEGIN BOND
M  V30 1 1 1 2
M  V30 2 1 2 3
M  V30 3 1 2 4
M  V30 4 2 4 5
M  V30 5 1 5 6
M  V30 6 1 6 7
M  V30 7 1 7 8
M  V30 8 2 7 9
M  V30 9 1 9 10
M  V30 10 2 10 11
M  V30 11 1 11 12
M  V30 12 2 12 13
M  V30 13 1 13 14
M  V30 14 1 14 15
M  V30 15 1 15 16
M  V30 16 2 16 17
M  V30 17 1 17 18
M  V30 18 2 18 19
M  V30 19 1 19 20
M  V30 20 1 20 21
M  V30 21 1 21 22
M  V30 22 1 22 23
M  V30 23 1 23 24
M  V30 24 1 24 25
M  V30 25 1 19 26
M  V30 26 2 26 27
M  V30 27 2 14 28
M  V30 28 1 9 4
M  V30 29 1 28 10
M  V30 30 1 27 16
M  V30 31 1 25 20
M  V30 32 1 1 29
M  V30 33 1 1 30
M  V30 34 1 1 31
M  V30 35 1 2 32
M  V30 36 1 3 33
M  V30 37 1 3 34
M  V30 38 1 3 35
M  V30 39 1 6 36
M  V30 40 1 11 37
M  V30 41 1 12 38
M  V30 42 1 15 39
M  V30 43 1 17 40
M  V30 44 1 18 41
M  V30 45 1 21 42
M  V30 46 1 21 43
M  V30 47 1 22 44
M  V30 48 1 22 45
M  V30 49 1 23 46
M  V30 50 1 24 47
M  V30 51 1 24 48
M  V30 52 1 25 49
M  V30 53 1 25 50
M  V30 54 1 26 51
M  V30 END BOND
M  V30 END CTAB
M  END
>  <Dataset>  (34) 
ChEMBL_Kinases

>  <Ligand_Instance>  (34) 
nan

>  <PDB_ID>  (34) 
nan

>  <Standardized_SMILES>  (34) 
CC(C)c1n[nH]c(Cl)c1-c1ccnc(Nc2ccc(N3CCNCC3)cn2)n1

>  <Name>  (34) 
nan

>  <Pocket>  (34) 
nan

>  <ATP_Site>  (34) 
nan

>  <Peripheral>  (34) 
nan

>  <Num_H_Atoms_ProtBoundConf>  (34) 
nan

>  <Num_Resolved_Atoms>  (34) 
nan

>  <Num_Not_Resolved_Atoms>  (34) 
nan

$$$$
CHEMBL1230134
     RDKit          3D

  0  0  0  0  0  0  0  0  0  0999 V3000
M  V30 BEGIN CTAB
M  V30 COUNTS 35 38 0 0 0
M  V30 BEGIN ATOM
M  V30 1 C 0.026546 -5.063966 3.494286 0
M  V30 2 O 0.711261 -5.041694 2.242563 0
M  V30 3 C 1.077894 -3.863519 1.622516 0
M  V30 4 C 1.743900 -3.930350 0.401107 0
M  V30 5 C 2.098716 -2.737824 -0.196714 0
M  V30 6 C 1.803013 -1.528848 0.396376 0
M  V30 7 N 2.117510 -0.237400 -0.123458 0
M  V30 8 C 3.334412 0.187829 -0.506574 0
M  V30 9 N 3.180659 1.457153 -0.929364 0
M  V30 10 C 1.895531 1.819931 -0.813908 0
M  V30 11 C 1.289002 3.018836 -1.125422 0
M  V30 12 C -0.069167 3.153422 -0.914791 0
M  V30 13 C -0.797038 2.096521 -0.399812 0
M  V30 14 C -2.236575 2.197060 -0.161574 0
M  V30 15 N -2.963115 3.320919 -0.423774 0
M  V30 16 N -4.224245 3.118201 -0.111435 0
M  V30 17 C -4.307395 1.858278 0.353405 0
M  V30 18 S -5.627881 1.032324 0.899159 0
M  V30 19 O -3.104462 1.336970 0.310174 0
M  V30 20 C -0.167949 0.892620 -0.090815 0
M  V30 21 C 1.209177 0.746707 -0.301020 0
M  V30 22 C 1.132794 -1.481334 1.624667 0
M  V30 23 C 0.767916 -2.665369 2.241258 0
M  V30 24 H -0.028527 -6.103902 3.853744 0
M  V30 25 H 0.608788 -4.407274 4.189600 0
M  V30 26 H -0.966213 -4.618023 3.383660 0
M  V30 27 H 1.983837 -4.865992 -0.078190 0
M  V30 28 H 2.615871 -2.696368 -1.141168 0
M  V30 29 H 4.252478 -0.378542 -0.479642 0
M  V30 30 H 1.792533 3.893434 -1.532769 0
M  V30 31 H -0.635587 4.046581 -1.125048 0
M  V30 32 H -5.052184 3.768092 -0.185417 0
M  V30 33 H -0.684165 0.022003 0.317510 0
M  V30 34 H 0.873091 -0.569575 2.139117 0
M  V30 35 H 0.243735 -2.648356 3.201041 0
M  V30 END ATOM
M  V30 BEGIN BOND
M  V30 1 1 1 2
M  V30 2 1 2 3
M  V30 3 2 3 4
M  V30 4 1 4 5
M  V30 5 2 5 6
M  V30 6 1 6 7
M  V30 7 1 7 8
M  V30 8 2 8 9
M  V30 9 1 9 10
M  V30 10 2 10 11
M  V30 11 1 11 12
M  V30 12 2 12 13
M  V30 13 1 13 14
M  V30 14 2 14 15
M  V30 15 1 15 16
M  V30 16 1 16 17
M  V30 17 2 17 18
M  V30 18 1 17 19
M  V30 19 1 13 20
M  V30 20 2 20 21
M  V30 21 1 6 22
M  V30 22 2 22 23
M  V30 23 1 23 3
M  V30 24 1 21 7
M  V30 25 1 21 10
M  V30 26 1 19 14
M  V30 27 1 1 24
M  V30 28 1 1 25
M  V30 29 1 1 26
M  V30 30 1 4 27
M  V30 31 1 5 28
M  V30 32 1 8 29
M  V30 33 1 11 30
M  V30 34 1 12 31
M  V30 35 1 16 32
M  V30 36 1 20 33
M  V30 37 1 22 34
M  V30 38 1 23 35
M  V30 END BOND
M  V30 END CTAB
M  END
>  <Dataset>  (35) 
ChEMBL_Kinases

>  <Ligand_Instance>  (35) 
nan

>  <PDB_ID>  (35) 
nan

>  <Standardized_SMILES>  (35) 
COc1ccc(-n2cnc3ccc(-c4n[nH]c(=S)o4)cc32)cc1

>  <Name>  (35) 
nan

>  <Pocket>  (35) 
nan

>  <ATP_Site>  (35) 
nan

>  <Peripheral>  (35) 
nan

>  <Num_H_Atoms_ProtBoundConf>  (35) 
nan

>  <Num_Resolved_Atoms>  (35) 
nan

>  <Num_Not_Resolved_Atoms>  (35) 
nan

$$$$
CHEMBL1230122
     RDKit          3D

  0  0  0  0  0  0  0  0  0  0999 V3000
M  V30 BEGIN CTAB
M  V30 COUNTS 46 49 0 0 0
M  V30 BEGIN ATOM
M  V30 1 C -0.063876 -0.049502 2.987250 0
M  V30 2 N 0.878082 -0.327265 1.912824 0
M  V30 3 C 2.016805 0.388605 1.961124 0
M  V30 4 O 2.303767 1.243729 2.838205 0
M  V30 5 C 2.985451 0.210125 0.993612 0
M  V30 6 O 4.213250 0.842457 0.867352 0
M  V30 7 C 4.403922 2.191402 0.706188 0
M  V30 8 C 3.534208 3.237151 0.619018 0
M  V30 9 C 3.986678 4.530163 0.455094 0
M  V30 10 C 5.335894 4.831276 0.371100 0
M  V30 11 F 5.702025 6.126867 0.210020 0
M  V30 12 C 6.237426 3.780108 0.457609 0
M  V30 13 C 5.771677 2.476235 0.623315 0
M  V30 14 F 6.795970 1.571202 0.688659 0
M  V30 15 C 2.738344 -0.715986 -0.003758 0
M  V30 16 C 1.568767 -1.449259 -0.050690 0
M  V30 17 C 1.257876 -2.387573 -1.014736 0
M  V30 18 N 0.084292 -3.050794 -0.968627 0
M  V30 19 C -0.838429 -2.832832 0.014132 0
M  V30 20 N -2.064266 -3.556449 0.023436 0
M  V30 21 C -2.999171 -3.291897 1.073602 0
M  V30 22 C -3.489343 -1.871949 1.141435 0
M  V30 23 C -4.233470 -1.464046 -0.112346 0
M  V30 24 O -4.523045 -2.640012 -0.817132 0
M  V30 25 C -5.216931 -3.469390 0.088252 0
M  V30 26 C -4.220843 -4.171261 0.997352 0
M  V30 27 N -0.537765 -1.917542 0.956461 0
M  V30 28 C 0.621997 -1.231871 0.949694 0
M  V30 29 H -0.322279 1.009472 3.091215 0
M  V30 30 H -0.926423 -0.719222 2.973741 0
M  V30 31 H 0.501260 -0.312301 3.928272 0
M  V30 32 H 2.504298 2.926818 0.690276 0
M  V30 33 H 3.228848 5.305993 0.394693 0
M  V30 34 H 7.265995 4.056246 0.388238 0
M  V30 35 H 3.407941 -0.970904 -0.840958 0
M  V30 36 H 1.984614 -2.553127 -1.780940 0
M  V30 37 H -2.245742 -4.243421 -0.715974 0
M  V30 38 H -2.492584 -3.488023 2.054753 0
M  V30 39 H -2.735701 -1.138454 1.428476 0
M  V30 40 H -4.248731 -1.855832 1.963159 0
M  V30 41 H -3.649256 -0.757161 -0.732407 0
M  V30 42 H -5.208890 -0.982193 0.105646 0
M  V30 43 H -5.881845 -2.782285 0.664350 0
M  V30 44 H -5.865461 -4.183637 -0.426234 0
M  V30 45 H -3.997004 -5.196885 0.706265 0
M  V30 46 H -4.680036 -4.163245 2.026883 0
M  V30 END ATOM
M  V30 BEGIN BOND
M  V30 1 1 1 2
M  V30 2 1 2 3
M  V30 3 2 3 4
M  V30 4 1 3 5
M  V30 5 1 5 6
M  V30 6 1 6 7
M  V30 7 2 7 8
M  V30 8 1 8 9
M  V30 9 2 9 10
M  V30 10 1 10 11
M  V30 11 1 10 12
M  V30 12 2 12 13
M  V30 13 1 13 14
M  V30 14 2 5 15
M  V30 15 1 15 16
M  V30 16 2 16 17
M  V30 17 1 17 18
M  V30 18 2 18 19
M  V30 19 1 19 20
M  V30 20 1 20 21
M  V30 21 1 21 22
M  V30 22 1 22 23
M  V30 23 1 23 24
M  V30 24 1 24 25
M  V30 25 1 25 26
M  V30 26 1 19 27
M  V30 27 2 27 28
M  V30 28 1 28 2
M  V30 29 1 13 7
M  V30 30 1 28 16
M  V30 31 1 26 21
M  V30 32 1 1 29
M  V30 33 1 1 30
M  V30 34 1 1 31
M  V30 35 1 8 32
M  V30 36 1 9 33
M  V30 37 1 12 34
M  V30 38 1 15 35
M  V30 39 1 17 36
M  V30 40 1 20 37
M  V30 41 1 21 38
M  V30 42 1 22 39
M  V30 43 1 22 40
M  V30 44 1 23 41
M  V30 45 1 23 42
M  V30 46 1 25 43
M  V30 47 1 25 44
M  V30 48 1 26 45
M  V30 49 1 26 46
M  V30 END BOND
M  V30 END CTAB
M  END
>  <Dataset>  (36) 
ChEMBL_Kinases

>  <Ligand_Instance>  (36) 
nan

>  <PDB_ID>  (36) 
nan

>  <Standardized_SMILES>  (36) 
Cn1c(=O)c(Oc2ccc(F)cc2F)cc2cnc(NC3CCOCC3)nc21

>  <Name>  (36) 
R-1487

>  <Pocket>  (36) 
nan

>  <ATP_Site>  (36) 
nan

>  <Peripheral>  (36) 
nan

>  <Num_H_Atoms_ProtBoundConf>  (36) 
nan

>  <Num_Resolved_Atoms>  (36) 
nan

>  <Num_Not_Resolved_Atoms>  (36) 
nan

$$$$
CHEMBL1230070
     RDKit          3D

  0  0  0  0  0  0  0  0  0  0999 V3000
M  V30 BEGIN CTAB
M  V30 COUNTS 55 58 0 0 0
M  V30 BEGIN ATOM
M  V30 1 C 6.886006 -0.884731 2.118823 0
M  V30 2 C 6.479695 -2.269985 1.599321 0
M  V30 3 C 5.946904 -2.163992 0.184851 0
M  V30 4 N 4.794923 -1.285057 0.223543 0
M  V30 5 C 4.010906 -0.939455 -0.941203 0
M  V30 6 O 4.340744 -1.430884 -2.069036 0
M  V30 7 C 2.853050 -0.030502 -0.798632 0
M  V30 8 C 2.533438 1.116775 -1.500569 0
M  V30 9 N 1.375675 1.626165 -1.016808 0
M  V30 10 N 0.689571 2.714901 -1.372543 0
M  V30 11 C -0.454239 3.063444 -0.754919 0
M  V30 12 N -0.937434 2.307916 0.251523 0
M  V30 13 C -0.271873 1.184258 0.651460 0
M  V30 14 N -0.685803 0.324713 1.707808 0
M  V30 15 C -1.849419 -0.463312 1.763507 0
M  V30 16 C -2.748516 -0.435541 0.725020 0
M  V30 17 C -3.877828 -1.211827 0.819333 0
M  V30 18 C -4.943228 -1.304024 -0.190636 0
M  V30 19 O -5.992075 -2.017107 -0.036514 0
M  V30 20 N -4.927975 -0.619654 -1.435530 0
M  V30 21 C -6.090411 -0.904117 -2.187629 0
M  V30 22 C -7.156090 -0.038855 -1.988626 0
M  V30 23 C -8.201439 -0.457486 -2.794005 0
M  V30 24 O -7.764286 -1.525405 -3.437507 0
M  V30 25 N -6.541944 -1.785773 -3.088051 0
M  V30 26 C -4.060277 -1.982569 1.946131 0
M  V30 27 C -3.165702 -2.018129 2.992514 0
M  V30 28 C -2.030097 -1.233257 2.890171 0
M  V30 29 C -1.039668 -1.239819 3.980257 0
M  V30 30 C 0.913676 0.856075 -0.016412 0
M  V30 31 C 1.820087 -0.180556 0.134024 0
M  V30 32 C 1.728261 -1.285053 1.121793 0
M  V30 33 H 6.011972 -0.244604 2.288352 0
M  V30 34 H 7.386315 -1.027275 3.094420 0
M  V30 35 H 7.617557 -0.491055 1.380171 0
M  V30 36 H 7.290523 -2.991098 1.705133 0
M  V30 37 H 5.608034 -2.562627 2.238737 0
M  V30 38 H 5.687209 -3.191022 -0.123178 0
M  V30 39 H 6.717178 -1.825094 -0.528866 0
M  V30 40 H 4.452828 -0.839093 1.120848 0
M  V30 41 H 3.172301 1.486561 -2.309783 0
M  V30 42 H -1.000972 3.947865 -1.054219 0
M  V30 43 H 0.027200 0.372783 2.452556 0
M  V30 44 H -2.636215 0.152863 -0.167715 0
M  V30 45 H -4.098327 -0.015372 -1.638780 0
M  V30 46 H -7.426447 0.856327 -1.405879 0
M  V30 47 H -9.232198 -0.255077 -3.102240 0
M  V30 48 H -4.941340 -2.613281 2.061656 0
M  V30 49 H -3.341641 -2.635567 3.860113 0
M  V30 50 H -0.693552 -0.237221 4.270720 0
M  V30 51 H -0.131131 -1.758316 3.560719 0
M  V30 52 H -1.448070 -1.785582 4.855436 0
M  V30 53 H 0.730527 -1.732444 1.182070 0
M  V30 54 H 2.139430 -0.925790 2.087568 0
M  V30 55 H 2.419270 -2.113972 0.797952 0
M  V30 END ATOM
M  V30 BEGIN BOND
M  V30 1 1 1 2
M  V30 2 1 2 3
M  V30 3 1 3 4
M  V30 4 1 4 5
M  V30 5 2 5 6
M  V30 6 1 5 7
M  V30 7 2 7 8
M  V30 8 1 8 9
M  V30 9 1 9 10
M  V30 10 2 10 11
M  V30 11 1 11 12
M  V30 12 2 12 13
M  V30 13 1 13 14
M  V30 14 1 14 15
M  V30 15 2 15 16
M  V30 16 1 16 17
M  V30 17 1 17 18
M  V30 18 2 18 19
M  V30 19 1 18 20
M  V30 20 1 20 21
M  V30 21 1 21 22
M  V30 22 2 22 23
M  V30 23 1 23 24
M  V30 24 1 24 25
M  V30 25 2 17 26
M  V30 26 1 26 27
M  V30 27 2 27 28
M  V30 28 1 28 29
M  V30 29 1 13 30
M  V30 30 2 30 31
M  V30 31 1 31 32
M  V30 32 1 31 7
M  V30 33 1 30 9
M  V30 34 1 28 15
M  V30 35 2 25 21
M  V30 36 1 1 33
M  V30 37 1 1 34
M  V30 38 1 1 35
M  V30 39 1 2 36
M  V30 40 1 2 37
M  V30 41 1 3 38
M  V30 42 1 3 39
M  V30 43 1 4 40
M  V30 44 1 8 41
M  V30 45 1 11 42
M  V30 46 1 14 43
M  V30 47 1 16 44
M  V30 48 1 20 45
M  V30 49 1 22 46
M  V30 50 1 23 47
M  V30 51 1 26 48
M  V30 52 1 27 49
M  V30 53 1 29 50
M  V30 54 1 29 51
M  V30 55 1 29 52
M  V30 56 1 32 53
M  V30 57 1 32 54
M  V30 58 1 32 55
M  V30 END BOND
M  V30 END CTAB
M  END
>  <Dataset>  (37) 
ChEMBL_Kinases

>  <Ligand_Instance>  (37) 
nan

>  <PDB_ID>  (37) 
nan

>  <Standardized_SMILES>  (37) 
CCCNC(=O)c1cn2ncnc(Nc3cc(C(=O)Nc4ccon4)ccc3C)c2c1C

>  <Name>  (37) 
nan

>  <Pocket>  (37) 
nan

>  <ATP_Site>  (37) 
nan

>  <Peripheral>  (37) 
nan

>  <Num_H_Atoms_ProtBoundConf>  (37) 
nan

>  <Num_Resolved_Atoms>  (37) 
nan

>  <Num_Not_Resolved_Atoms>  (37) 
nan

$$$$
CHEMBL123
     RDKit          3D

  0  0  0  0  0  0  0  0  0  0999 V3000
M  V30 BEGIN CTAB
M  V30 COUNTS 33 36 0 0 0
M  V30 BEGIN ATOM
M  V30 1 C 0.785592 0.317248 3.519661 0
M  V30 2 C 0.653753 -0.382967 2.217183 0
M  V30 3 C 1.336758 -1.560251 1.994040 0
M  V30 4 C 2.127751 -2.058350 2.995663 0
M  V30 5 C 2.809666 -3.234360 2.776805 0
M  V30 6 N 2.683023 -3.868751 1.581245 0
M  V30 7 C 1.898295 -3.341865 0.634891 0
M  V30 8 C 1.182480 -2.173156 0.768862 0
M  V30 9 C 0.406423 -1.730527 -0.277038 0
M  V30 10 C 0.263503 -2.397102 -1.572550 0
M  V30 11 C -0.257897 -0.555084 -0.014908 0
M  V30 12 C -0.141320 0.111046 1.205388 0
M  V30 13 N -0.876658 1.213233 1.209934 0
M  V30 14 C -1.517966 1.363460 0.037029 0
M  V30 15 C -2.385327 2.310383 -0.466611 0
M  V30 16 C -2.903960 2.205057 -1.740334 0
M  V30 17 C -2.516373 1.101432 -2.500690 0
M  V30 18 C -1.646895 0.169048 -1.971543 0
M  V30 19 C -1.124475 0.267072 -0.700690 0
M  V30 20 H 0.218960 -0.185368 4.333828 0
M  V30 21 H 1.865777 0.448236 3.741779 0
M  V30 22 H 0.354060 1.332707 3.421915 0
M  V30 23 H 2.222503 -1.551692 3.936675 0
M  V30 24 H 3.437340 -3.631914 3.568222 0
M  V30 25 H 1.892990 -3.950482 -0.253833 0
M  V30 26 H -0.780807 -2.712528 -1.773956 0
M  V30 27 H 0.646383 -1.649163 -2.335541 0
M  V30 28 H 0.915368 -3.268617 -1.747280 0
M  V30 29 H -0.982563 1.911495 1.993507 0
M  V30 30 H -2.667477 3.158588 0.151858 0
M  V30 31 H -3.585234 2.934156 -2.157262 0
M  V30 32 H -2.941164 1.044999 -3.500540 0
M  V30 33 H -1.431529 -0.618057 -2.640600 0
M  V30 END ATOM
M  V30 BEGIN BOND
M  V30 1 1 1 2
M  V30 2 2 2 3
M  V30 3 1 3 4
M  V30 4 2 4 5
M  V30 5 1 5 6
M  V30 6 2 6 7
M  V30 7 1 7 8
M  V30 8 2 8 9
M  V30 9 1 9 10
M  V30 10 1 9 11
M  V30 11 2 11 12
M  V30 12 1 12 13
M  V30 13 1 13 14
M  V30 14 2 14 15
M  V30 15 1 15 16
M  V30 16 2 16 17
M  V30 17 1 17 18
M  V30 18 2 18 19
M  V30 19 1 12 2
M  V30 20 1 19 14
M  V30 21 1 8 3
M  V30 22 1 19 11
M  V30 23 1 1 20
M  V30 24 1 1 21
M  V30 25 1 1 22
M  V30 26 1 4 23
M  V30 27 1 5 24
M  V30 28 1 7 25
M  V30 29 1 10 26
M  V30 30 1 10 27
M  V30 31 1 10 28
M  V30 32 1 13 29
M  V30 33 1 15 30
M  V30 34 1 16 31
M  V30 35 1 17 32
M  V30 36 1 18 33
M  V30 END BOND
M  V30 END CTAB
M  END
>  <Dataset>  (38) 
ChEMBL_Kinases

>  <Ligand_Instance>  (38) 
nan

>  <PDB_ID>  (38) 
nan

>  <Standardized_SMILES>  (38) 
Cc1c2ccncc2c(C)c2c1[nH]c1ccccc12

>  <Name>  (38) 
ELLIPTECINE

>  <Pocket>  (38) 
nan

>  <ATP_Site>  (38) 
nan

>  <Peripheral>  (38) 
nan

>  <Num_H_Atoms_ProtBoundConf>  (38) 
nan

>  <Num_Resolved_Atoms>  (38) 
nan

>  <Num_Not_Resolved_Atoms>  (38) 
nan

$$$$
CHEMBL1229592
     RDKit          3D

  0  0  0  0  0  0  0  0  0  0999 V3000
M  V30 BEGIN CTAB
M  V30 COUNTS 62 65 0 0 0
M  V30 BEGIN ATOM
M  V30 1 C 5.064985 -1.692430 5.541654 0
M  V30 2 C 5.574012 -0.961064 4.565799 0
M  V30 3 C 4.758020 -0.525730 3.441195 0
M  V30 4 O 3.541563 -0.762054 3.244600 0
M  V30 5 N 5.284891 0.258388 2.385821 0
M  V30 6 C 4.568077 0.728480 1.250822 0
M  V30 7 C 4.531583 -0.072894 0.130431 0
M  V30 8 C 3.838377 0.383050 -0.967383 0
M  V30 9 C 3.213247 1.607185 -0.910801 0
M  V30 10 C 3.269820 2.387228 0.230936 0
M  V30 11 O 2.580053 3.581593 0.092083 0
M  V30 12 C 1.227628 3.674616 0.429827 0
M  V30 13 N 0.559886 2.614817 0.899406 0
M  V30 14 C -0.761867 2.705372 1.229130 0
M  V30 15 N -1.313909 1.486618 1.713454 0
M  V30 16 C -1.915155 0.427170 0.975830 0
M  V30 17 C -2.015068 0.501462 -0.397515 0
M  V30 18 C -2.589942 -0.511861 -1.133106 0
M  V30 19 C -3.093094 -1.647975 -0.538701 0
M  V30 20 N -3.685254 -2.702220 -1.285848 0
M  V30 21 C -4.300428 -3.903902 -0.766086 0
M  V30 22 C -3.431338 -5.106849 -1.112950 0
M  V30 23 N -2.943103 -5.000717 -2.484415 0
M  V30 24 C -1.554654 -4.581361 -2.474263 0
M  V30 25 C -3.778117 -4.095778 -3.228335 0
M  V30 26 C -3.724576 -2.665013 -2.719868 0
M  V30 27 C -2.975477 -1.685956 0.834819 0
M  V30 28 C -2.410712 -0.703497 1.623750 0
M  V30 29 O -2.308110 -0.770320 2.991398 0
M  V30 30 C -2.726901 -1.786567 3.838484 0
M  V30 31 N -1.410605 3.866857 1.084810 0
M  V30 32 C -0.792185 4.987158 0.611957 0
M  V30 33 C 0.551339 4.861863 0.285941 0
M  V30 34 Cl 1.351741 6.300389 -0.322471 0
M  V30 35 C 3.962427 1.944940 1.344799 0
M  V30 36 H 4.250689 -1.517376 4.853062 0
M  V30 37 H 5.735197 -1.986604 6.359602 0
M  V30 38 H 6.610879 -0.658214 4.563122 0
M  V30 39 H 6.299981 0.559382 2.376147 0
M  V30 40 H 5.028148 -1.036758 0.096591 0
M  V30 41 H 3.808088 -0.239803 -1.842032 0
M  V30 42 H 2.689746 1.883783 -1.827067 0
M  V30 43 H -1.223776 1.452013 2.738573 0
M  V30 44 H -1.627483 1.383435 -0.889478 0
M  V30 45 H -2.624234 -0.365358 -2.197166 0
M  V30 46 H -4.372661 -3.882877 0.328580 0
M  V30 47 H -5.321312 -3.990286 -1.239466 0
M  V30 48 H -4.038634 -6.011557 -1.001020 0
M  V30 49 H -2.572320 -5.118015 -0.440379 0
M  V30 50 H -1.444894 -3.574121 -2.913067 0
M  V30 51 H -1.196507 -4.526608 -1.405832 0
M  V30 52 H -0.951565 -5.292664 -3.058889 0
M  V30 53 H -4.818516 -4.443515 -3.157868 0
M  V30 54 H -3.496688 -4.122289 -4.302754 0
M  V30 55 H -4.653748 -2.160488 -3.036546 0
M  V30 56 H -2.866269 -2.117825 -3.178010 0
M  V30 57 H -3.334172 -2.527282 1.408607 0
M  V30 58 H -1.835492 -2.402188 4.087608 0
M  V30 59 H -3.489842 -2.462787 3.439448 0
M  V30 60 H -3.069370 -1.302823 4.800782 0
M  V30 61 H -1.390585 5.885824 0.525979 0
M  V30 62 H 3.957005 2.611763 2.189973 0
M  V30 END ATOM
M  V30 BEGIN BOND
M  V30 1 2 1 2
M  V30 2 1 2 3
M  V30 3 2 3 4
M  V30 4 1 3 5
M  V30 5 1 5 6
M  V30 6 2 6 7
M  V30 7 1 7 8
M  V30 8 2 8 9
M  V30 9 1 9 10
M  V30 10 1 10 11
M  V30 11 1 11 12
M  V30 12 2 12 13
M  V30 13 1 13 14
M  V30 14 1 14 15
M  V30 15 1 15 16
M  V30 16 2 16 17
M  V30 17 1 17 18
M  V30 18 2 18 19
M  V30 19 1 19 20
M  V30 20 1 20 21
M  V30 21 1 21 22
M  V30 22 1 22 23
M  V30 23 1 23 24
M  V30 24 1 23 25
M  V30 25 1 25 26
M  V30 26 1 19 27
M  V30 27 2 27 28
M  V30 28 1 28 29
M  V30 29 1 29 30
M  V30 30 2 14 31
M  V30 31 1 31 32
M  V30 32 2 32 33
M  V30 33 1 33 34
M  V30 34 2 10 35
M  V30 35 1 35 6
M  V30 36 1 33 12
M  V30 37 1 28 16
M  V30 38 1 26 20
M  V30 39 1 1 36
M  V30 40 1 1 37
M  V30 41 1 2 38
M  V30 42 1 5 39
M  V30 43 1 7 40
M  V30 44 1 8 41
M  V30 45 1 9 42
M  V30 46 1 15 43
M  V30 47 1 17 44
M  V30 48 1 18 45
M  V30 49 1 21 46
M  V30 50 1 21 47
M  V30 51 1 22 48
M  V30 52 1 22 49
M  V30 53 1 24 50
M  V30 54 1 24 51
M  V30 55 1 24 52
M  V30 56 1 25 53
M  V30 57 1 25 54
M  V30 58 1 26 55
M  V30 59 1 26 56
M  V30 60 1 27 57
M  V30 61 1 30 58
M  V30 62 1 30 59
M  V30 63 1 30 60
M  V30 64 1 32 61
M  V30 65 1 35 62
M  V30 END BOND
M  V30 END CTAB
M  END
>  <Dataset>  (39) 
ChEMBL_Kinases

>  <Ligand_Instance>  (39) 
nan

>  <PDB_ID>  (39) 
nan

>  <Standardized_SMILES>  (39) 
C=CC(=O)Nc1cccc(Oc2nc(Nc3ccc(N4CCN(C)CC4)cc3OC)ncc2Cl)c1

>  <Name>  (39) 
nan

>  <Pocket>  (39) 
nan

>  <ATP_Site>  (39) 
nan

>  <Peripheral>  (39) 
nan

>  <Num_H_Atoms_ProtBoundConf>  (39) 
nan

>  <Num_Resolved_Atoms>  (39) 
nan

>  <Num_Not_Resolved_Atoms>  (39) 
nan

$$$$
CHEMBL1229585
     RDKit          3D

  0  0  0  0  0  0  0  0  0  0999 V3000
M  V30 BEGIN CTAB
M  V30 COUNTS 42 43 0 0 0
M  V30 BEGIN ATOM
M  V30 1 C 0.933770 -1.718985 3.303793 0
M  V30 2 C -0.241743 -2.557259 3.665052 0
M  V30 3 C -1.125913 -2.919353 2.500402 0
M  V30 4 C -0.422839 -3.709041 1.431554 0
M  V30 5 O 0.596735 -3.014183 0.862567 0
M  V30 6 C 0.705932 -1.881030 0.134271 0
M  V30 7 C -0.216954 -0.974147 -0.336866 0
M  V30 8 C 0.044814 0.154409 -1.076478 0
M  V30 9 C -1.096014 1.009728 -1.493337 0
M  V30 10 C -1.438155 2.083122 -0.489817 0 CFG=2
M  V30 11 C -0.295800 3.016865 -0.246344 0
M  V30 12 N 0.384927 2.507167 0.944935 0
M  V30 13 C -0.674993 1.863710 1.667668 0
M  V30 14 O -0.710276 1.602562 2.909182 0
M  V30 15 N -1.778653 1.511114 0.808315 0
M  V30 16 C 1.364931 0.401451 -1.376288 0
M  V30 17 C 2.366685 -0.470425 -0.936322 0
M  V30 18 C 2.047292 -1.609234 -0.183683 0
M  V30 19 O 3.109564 -2.413703 0.207148 0
M  V30 20 C 4.407002 -2.015092 -0.186106 0
M  V30 21 H 1.720771 -2.276699 2.774083 0
M  V30 22 H 1.401560 -1.323329 4.260343 0
M  V30 23 H 0.625389 -0.796950 2.771444 0
M  V30 24 H 0.170724 -3.528560 4.076572 0
M  V30 25 H -0.820423 -2.129487 4.511028 0
M  V30 26 H -1.512549 -1.960123 2.079809 0
M  V30 27 H -1.995479 -3.505100 2.913221 0
M  V30 28 H 0.008610 -4.607980 1.983544 0
M  V30 29 H -1.147290 -4.155891 0.709213 0
M  V30 30 H -1.223169 -1.201814 -0.096037 0
M  V30 31 H -1.983101 0.415029 -1.789214 0
M  V30 32 H -0.830986 1.574742 -2.435705 0
M  V30 33 H -2.293292 2.643589 -0.919038 0
M  V30 34 H -0.654198 4.048592 0.031584 0
M  V30 35 H 0.393443 3.143370 -1.102311 0
M  V30 36 H 1.383142 2.564980 1.247588 0
M  V30 37 H -2.624398 0.967106 1.074582 0
M  V30 38 H 1.606793 1.263405 -1.947109 0
M  V30 39 H 3.370728 -0.192644 -1.221145 0
M  V30 40 H 4.652098 -0.978723 0.175513 0
M  V30 41 H 4.468005 -1.920814 -1.309563 0
M  V30 42 H 5.188202 -2.702922 0.133664 0
M  V30 END ATOM
M  V30 BEGIN BOND
M  V30 1 1 1 2
M  V30 2 1 2 3
M  V30 3 1 3 4
M  V30 4 1 4 5
M  V30 5 1 5 6
M  V30 6 2 6 7
M  V30 7 1 7 8
M  V30 8 1 8 9
M  V30 9 1 9 10
M  V30 10 1 10 11
M  V30 11 1 11 12
M  V30 12 1 12 13
M  V30 13 2 13 14
M  V30 14 1 13 15
M  V30 15 2 8 16
M  V30 16 1 16 17
M  V30 17 2 17 18
M  V30 18 1 18 19
M  V30 19 1 19 20
M  V30 20 1 18 6
M  V30 21 1 15 10
M  V30 22 1 1 21
M  V30 23 1 1 22
M  V30 24 1 1 23
M  V30 25 1 2 24
M  V30 26 1 2 25
M  V30 27 1 3 26
M  V30 28 1 3 27
M  V30 29 1 4 28
M  V30 30 1 4 29
M  V30 31 1 7 30
M  V30 32 1 9 31
M  V30 33 1 9 32
M  V30 34 1 10 33 CFG=3
M  V30 35 1 11 34
M  V30 36 1 11 35
M  V30 37 1 12 36
M  V30 38 1 15 37
M  V30 39 1 16 38
M  V30 40 1 17 39
M  V30 41 1 20 40
M  V30 42 1 20 41
M  V30 43 1 20 42
M  V30 END BOND
M  V30 END CTAB
M  END
>  <Dataset>  (40) 
ChEMBL_Kinases

>  <Ligand_Instance>  (40) 
nan

>  <PDB_ID>  (40) 
nan

>  <Standardized_SMILES>  (40) 
CCCCOc1cc(C[C@@H]2CNC(=O)N2)ccc1OC

>  <Name>  (40) 
nan

>  <Pocket>  (40) 
nan

>  <ATP_Site>  (40) 
nan

>  <Peripheral>  (40) 
nan

>  <Num_H_Atoms_ProtBoundConf>  (40) 
nan

>  <Num_Resolved_Atoms>  (40) 
nan

>  <Num_Not_Resolved_Atoms>  (40) 
nan

$$$$
CHEMBL122899
     RDKit          3D

  0  0  0  0  0  0  0  0  0  0999 V3000
M  V30 BEGIN CTAB
M  V30 COUNTS 16 17 0 0 0
M  V30 BEGIN ATOM
M  V30 1 O -0.152575 -2.963253 0.847447 0
M  V30 2 C 0.442269 -1.864525 0.970170 0
M  V30 3 N 1.228647 -1.640820 2.058334 0
M  V30 4 C 1.895408 -0.501417 2.265352 0
M  V30 5 O 2.609531 -0.323332 3.272417 0
M  V30 6 C 1.788453 0.524766 1.321189 0
M  V30 7 C 2.304329 1.797237 1.186812 0
M  V30 8 C 1.780050 2.278791 -0.013911 0
M  V30 9 N 0.994890 1.334832 -0.557419 0
M  V30 10 C 0.976814 0.233717 0.243396 0
M  V30 11 N 0.303210 -0.911077 0.029507 0
M  V30 12 H 1.330379 -2.400419 2.793254 0
M  V30 13 H 2.973652 2.253784 1.912478 0
M  V30 14 H 2.026841 3.281371 -0.374943 0
M  V30 15 H 0.493955 1.472150 -1.461454 0
M  V30 16 H -0.287941 -1.036024 -0.821079 0
M  V30 END ATOM
M  V30 BEGIN BOND
M  V30 1 2 1 2
M  V30 2 1 2 3
M  V30 3 1 3 4
M  V30 4 2 4 5
M  V30 5 1 4 6
M  V30 6 1 6 7
M  V30 7 2 7 8
M  V30 8 1 8 9
M  V30 9 1 9 10
M  V30 10 1 10 11
M  V30 11 1 11 2
M  V30 12 2 10 6
M  V30 13 1 3 12
M  V30 14 1 7 13
M  V30 15 1 8 14
M  V30 16 1 9 15
M  V30 17 1 11 16
M  V30 END BOND
M  V30 END CTAB
M  END
>  <Dataset>  (41) 
ChEMBL_Kinases

>  <Ligand_Instance>  (41) 
nan

>  <PDB_ID>  (41) 
nan

>  <Standardized_SMILES>  (41) 
O=c1[nH]c(=O)c2cc[nH]c2[nH]1

>  <Name>  (41) 
7-DEAZAXANTHINE

>  <Pocket>  (41) 
nan

>  <ATP_Site>  (41) 
nan

>  <Peripheral>  (41) 
nan

>  <Num_H_Atoms_ProtBoundConf>  (41) 
nan

>  <Num_Resolved_Atoms>  (41) 
nan

>  <Num_Not_Resolved_Atoms>  (41) 
nan

$$$$
CHEMBL1223552
     RDKit          3D

  0  0  0  0  0  0  0  0  0  0999 V3000
M  V30 BEGIN CTAB
M  V30 COUNTS 59 63 0 0 0
M  V30 BEGIN ATOM
M  V30 1 C -0.693279 -6.447490 0.449364 0
M  V30 2 C -0.095988 -5.082342 0.615570 0
M  V30 3 Se -1.142517 -3.784874 1.759183 0 VAL=2
M  V30 4 C 0.212630 -2.397116 1.462695 0
M  V30 5 C -0.061231 -1.170558 2.137392 0
M  V30 6 C -0.021075 0.066975 1.684786 0
M  V30 7 C 0.319785 0.462175 0.353915 0
M  V30 8 O 0.631406 -0.329269 -0.545897 0
M  V30 9 N 0.244032 1.865970 0.235121 0
M  V30 10 C -0.154329 2.355649 1.522564 0
M  V30 11 C -0.387269 3.636412 1.981595 0
M  V30 12 C -0.777557 3.882663 3.296053 0
M  V30 13 C -1.049373 5.190824 3.878955 0
M  V30 14 C -0.410707 6.370939 3.505893 0
M  V30 15 C -0.756697 7.557916 4.143778 0
M  V30 16 C -1.715375 7.619533 5.141112 0
M  V30 17 C -2.356462 6.445755 5.518245 0
M  V30 18 O -3.301297 6.585795 6.521132 0
M  V30 19 C -1.998403 5.283157 4.873729 0
M  V30 20 C -0.931088 2.788061 4.155400 0
M  V30 21 C -0.703622 1.499692 3.715335 0
M  V30 22 C -0.319014 1.302367 2.405834 0
M  V30 23 C 1.081388 -3.006886 0.695010 0
M  V30 24 C 0.998327 -4.284581 0.252666 0
M  V30 25 C 1.794881 -5.165555 -0.567666 0
M  V30 26 O 2.897981 -5.729465 -0.233529 0
M  V30 27 N 1.452443 -5.548528 -1.918507 0
M  V30 28 C 2.062167 -6.397669 -2.892038 0
M  V30 29 C 1.303249 -6.381523 -4.188012 0
M  V30 30 C 1.358955 -5.103024 -4.918866 0
M  V30 31 N 0.903474 -3.908504 -4.287943 0
M  V30 32 C -0.311712 -3.311163 -4.218188 0
M  V30 33 C -0.153370 -2.133486 -3.503169 0
M  V30 34 N 1.138345 -2.002884 -3.135649 0
M  V30 35 C 1.764012 -3.084972 -3.617972 0
M  V30 36 H -0.799677 -6.653374 -0.655011 0
M  V30 37 H 0.004369 -7.187552 0.934350 0
M  V30 38 H -1.653851 -6.528938 0.950356 0
M  V30 39 H -0.343888 -1.221111 3.198216 0
M  V30 40 H 0.446532 2.384647 -0.637678 0
M  V30 41 H -0.277170 4.495908 1.343294 0
M  V30 42 H 0.332046 6.317517 2.730897 0
M  V30 43 H -0.267952 8.476454 3.863257 0
M  V30 44 H -1.962368 8.576144 5.621156 0
M  V30 45 H -4.248028 6.304399 6.309653 0
M  V30 46 H -2.565365 4.431537 5.253014 0
M  V30 47 H -1.229439 2.851346 5.193932 0
M  V30 48 H -0.818754 0.624554 4.375305 0
M  V30 49 H 1.966181 -2.482295 0.367476 0
M  V30 50 H 0.522204 -5.093317 -2.171295 0
M  V30 51 H 2.057727 -7.480719 -2.564214 0
M  V30 52 H 3.136702 -6.165951 -3.064392 0
M  V30 53 H 1.532525 -7.272281 -4.821220 0
M  V30 54 H 0.195175 -6.542262 -3.933134 0
M  V30 55 H 2.409135 -4.930379 -5.290898 0
M  V30 56 H 0.756097 -5.193067 -5.877821 0
M  V30 57 H -1.201271 -3.736869 -4.665095 0
M  V30 58 H -0.982451 -1.439673 -3.292186 0
M  V30 59 H 2.837684 -3.193648 -3.436305 0
M  V30 END ATOM
M  V30 BEGIN BOND
M  V30 1 1 1 2
M  V30 2 1 2 3
M  V30 3 1 3 4
M  V30 4 1 4 5
M  V30 5 2 5 6
M  V30 6 1 6 7
M  V30 7 2 7 8
M  V30 8 1 7 9
M  V30 9 1 9 10
M  V30 10 2 10 11
M  V30 11 1 11 12
M  V30 12 1 12 13
M  V30 13 2 13 14
M  V30 14 1 14 15
M  V30 15 2 15 16
M  V30 16 1 16 17
M  V30 17 1 17 18
M  V30 18 2 17 19
M  V30 19 2 12 20
M  V30 20 1 20 21
M  V30 21 2 21 22
M  V30 22 2 4 23
M  V30 23 1 23 24
M  V30 24 1 24 25
M  V30 25 2 25 26
M  V30 26 1 25 27
M  V30 27 1 27 28
M  V30 28 1 28 29
M  V30 29 1 29 30
M  V30 30 1 30 31
M  V30 31 1 31 32
M  V30 32 2 32 33
M  V30 33 1 33 34
M  V30 34 2 34 35
M  V30 35 2 24 2
M  V30 36 1 35 31
M  V30 37 1 22 6
M  V30 38 1 22 10
M  V30 39 1 19 13
M  V30 40 1 1 36
M  V30 41 1 1 37
M  V30 42 1 1 38
M  V30 43 1 5 39
M  V30 44 1 9 40
M  V30 45 1 11 41
M  V30 46 1 14 42
M  V30 47 1 15 43
M  V30 48 1 16 44
M  V30 49 1 18 45
M  V30 50 1 19 46
M  V30 51 1 20 47
M  V30 52 1 21 48
M  V30 53 1 23 49
M  V30 54 1 27 50
M  V30 55 1 28 51
M  V30 56 1 28 52
M  V30 57 1 29 53
M  V30 58 1 29 54
M  V30 59 1 30 55
M  V30 60 1 30 56
M  V30 61 1 32 57
M  V30 62 1 33 58
M  V30 63 1 35 59
M  V30 END BOND
M  V30 END CTAB
M  END
>  <Dataset>  (42) 
ChEMBL_Kinases

>  <Ligand_Instance>  (42) 
nan

>  <PDB_ID>  (42) 
nan

>  <Standardized_SMILES>  (42) 
Cc1[se]c(/C=C2\C(=O)Nc3cc(-c4cccc(O)c4)ccc32)cc1C(=O)NCCCn1ccnc1

>  <Name>  (42) 
nan

>  <Pocket>  (42) 
nan

>  <ATP_Site>  (42) 
nan

>  <Peripheral>  (42) 
nan

>  <Num_H_Atoms_ProtBoundConf>  (42) 
nan

>  <Num_Resolved_Atoms>  (42) 
nan

>  <Num_Not_Resolved_Atoms>  (42) 
nan

$$$$
CHEMBL1223550
     RDKit          3D

  0  0  0  0  0  0  0  0  0  0999 V3000
M  V30 BEGIN CTAB
M  V30 COUNTS 61 65 0 0 0
M  V30 BEGIN ATOM
M  V30 1 C 0.921138 -6.659135 3.550304 0
M  V30 2 C 0.684217 -5.257495 3.274412 0
M  V30 3 Se 1.202186 -3.673532 4.470366 0 VAL=2
M  V30 4 C 0.489042 -2.446594 3.281110 0
M  V30 5 C 0.411237 -1.004790 3.404050 0
M  V30 6 C 0.883082 -0.254154 2.424246 0
M  V30 7 C 1.519753 -0.557770 1.151253 0
M  V30 8 O 1.780663 -1.704033 0.765814 0
M  V30 9 N 1.800306 0.628666 0.422272 0
M  V30 10 C 1.337170 1.709954 1.242004 0
M  V30 11 C 1.417811 3.038640 0.899231 0
M  V30 12 C 0.918588 3.940903 1.808897 0
M  V30 13 C 0.909053 5.382107 1.601463 0
M  V30 14 C 1.008642 6.405514 2.518926 0
M  V30 15 C 0.963781 7.737990 2.094282 0
M  V30 16 C 0.820462 8.035171 0.755868 0
M  V30 17 C 0.717446 7.023875 -0.197801 0
M  V30 18 O 0.577331 7.413855 -1.509437 0
M  V30 19 C 0.764836 5.729994 0.257434 0
M  V30 20 C 0.366016 3.519882 3.005889 0
M  V30 21 C 0.311424 2.173561 3.296370 0
M  V30 22 C 0.794543 1.222784 2.424112 0
M  V30 23 C 0.010016 -3.212045 2.274636 0
M  V30 24 C 0.076206 -4.577703 2.214624 0
M  V30 25 C -0.433419 -5.401792 1.121540 0
M  V30 26 O -1.377939 -6.216927 1.245539 0
M  V30 27 N 0.271245 -5.168962 -0.106259 0
M  V30 28 C -0.079664 -5.873609 -1.308529 0
M  V30 29 C -1.508726 -5.610872 -1.738392 0
M  V30 30 N -1.734041 -4.190110 -1.979712 0
M  V30 31 C -1.029962 -3.672474 -3.109120 0
M  V30 32 C -2.023640 -3.135717 -4.106510 0
M  V30 33 C -3.353019 -3.239714 -3.434746 0
M  V30 34 C -3.142446 -4.001241 -2.161051 0
M  V30 35 H -0.008708 -7.207754 3.309835 0
M  V30 36 H 1.758405 -7.139580 3.007173 0
M  V30 37 H 1.093820 -6.869157 4.639096 0
M  V30 38 H -0.031641 -0.579711 4.298386 0
M  V30 39 H 2.256593 0.642356 -0.521774 0
M  V30 40 H 1.830443 3.430850 -0.000514 0
M  V30 41 H 1.116251 6.046835 3.528351 0
M  V30 42 H 1.053387 8.425441 2.921332 0
M  V30 43 H 0.793447 9.089015 0.502064 0
M  V30 44 H 0.865107 6.857218 -2.307920 0
M  V30 45 H 0.678540 5.013912 -0.551313 0
M  V30 46 H -0.043521 4.172658 3.765364 0
M  V30 47 H -0.114960 1.779191 4.226900 0
M  V30 48 H -0.510044 -2.717947 1.429323 0
M  V30 49 H 1.074126 -4.467882 -0.164344 0
M  V30 50 H 0.072476 -6.969487 -1.216713 0
M  V30 51 H 0.571318 -5.536872 -2.136234 0
M  V30 52 H -1.753591 -6.211417 -2.612929 0
M  V30 53 H -2.193651 -5.876868 -0.909073 0
M  V30 54 H -0.440532 -4.500909 -3.572708 0
M  V30 55 H -0.345860 -2.854794 -2.768008 0
M  V30 56 H -1.793511 -2.073379 -4.343188 0
M  V30 57 H -2.016809 -3.788914 -5.020949 0
M  V30 58 H -3.796938 -2.241101 -3.191322 0
M  V30 59 H -4.085130 -3.716713 -4.132282 0
M  V30 60 H -3.656770 -3.497130 -1.311390 0
M  V30 61 H -3.673401 -4.972706 -2.284818 0
M  V30 END ATOM
M  V30 BEGIN BOND
M  V30 1 1 1 2
M  V30 2 1 2 3
M  V30 3 1 3 4
M  V30 4 1 4 5
M  V30 5 2 5 6
M  V30 6 1 6 7
M  V30 7 2 7 8
M  V30 8 1 7 9
M  V30 9 1 9 10
M  V30 10 2 10 11
M  V30 11 1 11 12
M  V30 12 1 12 13
M  V30 13 2 13 14
M  V30 14 1 14 15
M  V30 15 2 15 16
M  V30 16 1 16 17
M  V30 17 1 17 18
M  V30 18 2 17 19
M  V30 19 2 12 20
M  V30 20 1 20 21
M  V30 21 2 21 22
M  V30 22 2 4 23
M  V30 23 1 23 24
M  V30 24 1 24 25
M  V30 25 2 25 26
M  V30 26 1 25 27
M  V30 27 1 27 28
M  V30 28 1 28 29
M  V30 29 1 29 30
M  V30 30 1 30 31
M  V30 31 1 31 32
M  V30 32 1 32 33
M  V30 33 1 33 34
M  V30 34 2 24 2
M  V30 35 1 34 30
M  V30 36 1 22 6
M  V30 37 1 22 10
M  V30 38 1 19 13
M  V30 39 1 1 35
M  V30 40 1 1 36
M  V30 41 1 1 37
M  V30 42 1 5 38
M  V30 43 1 9 39
M  V30 44 1 11 40
M  V30 45 1 14 41
M  V30 46 1 15 42
M  V30 47 1 16 43
M  V30 48 1 18 44
M  V30 49 1 19 45
M  V30 50 1 20 46
M  V30 51 1 21 47
M  V30 52 1 23 48
M  V30 53 1 27 49
M  V30 54 1 28 50
M  V30 55 1 28 51
M  V30 56 1 29 52
M  V30 57 1 29 53
M  V30 58 1 31 54
M  V30 59 1 31 55
M  V30 60 1 32 56
M  V30 61 1 32 57
M  V30 62 1 33 58
M  V30 63 1 33 59
M  V30 64 1 34 60
M  V30 65 1 34 61
M  V30 END BOND
M  V30 END CTAB
M  END
>  <Dataset>  (43) 
ChEMBL_Kinases

>  <Ligand_Instance>  (43) 
nan

>  <PDB_ID>  (43) 
nan

>  <Standardized_SMILES>  (43) 
Cc1[se]c(/C=C2\C(=O)Nc3cc(-c4cccc(O)c4)ccc32)cc1C(=O)NCCN1CCCC1

>  <Name>  (43) 
nan

>  <Pocket>  (43) 
nan

>  <ATP_Site>  (43) 
nan

>  <Peripheral>  (43) 
nan

>  <Num_H_Atoms_ProtBoundConf>  (43) 
nan

>  <Num_Resolved_Atoms>  (43) 
nan

>  <Num_Not_Resolved_Atoms>  (43) 
nan

$$$$
CHEMBL1223549
     RDKit          3D

  0  0  0  0  0  0  0  0  0  0999 V3000
M  V30 BEGIN CTAB
M  V30 COUNTS 63 66 0 0 0
M  V30 BEGIN ATOM
M  V30 1 C 4.727753 -2.140511 -0.601208 0
M  V30 2 C 3.951452 -0.946019 -1.195798 0
M  V30 3 N 4.644352 -0.509333 -2.358311 0
M  V30 4 C 5.924810 0.074713 -2.096991 0
M  V30 5 C 5.863239 1.380717 -1.367146 0
M  V30 6 C 3.903612 0.009078 -3.433034 0
M  V30 7 C 3.228371 1.323902 -3.291301 0
M  V30 8 N 2.258194 1.434742 -2.260665 0
M  V30 9 C 1.574614 2.661694 -2.077934 0
M  V30 10 O 1.782652 3.679385 -2.780737 0
M  V30 11 C 0.561545 2.865200 -1.059223 0
M  V30 12 C 0.039184 1.849473 -0.325608 0
M  V30 13 C -0.986756 2.068958 0.667370 0
M  V30 14 C -1.672465 1.082450 1.483562 0
M  V30 15 C -2.280369 0.012627 1.007317 0
M  V30 16 C -2.409746 -0.410738 -0.377659 0
M  V30 17 O -1.974594 0.205257 -1.370914 0
M  V30 18 N -3.122762 -1.636987 -0.309676 0
M  V30 19 C -3.416156 -1.949162 1.047688 0
M  V30 20 C -4.085752 -3.034399 1.604374 0
M  V30 21 C -4.247892 -3.123684 2.978017 0
M  V30 22 C -4.944998 -4.234349 3.620925 0
M  V30 23 C -4.906502 -5.511553 3.042732 0
M  V30 24 C -5.541923 -6.583280 3.627009 0
M  V30 25 C -6.221309 -6.349011 4.811062 0
M  V30 26 C -6.257789 -5.092931 5.378302 0
M  V30 27 O -6.995863 -5.093686 6.562564 0
M  V30 28 C -5.625320 -4.019657 4.798137 0
M  V30 29 C -3.741887 -2.129934 3.791682 0
M  V30 30 C -3.071605 -1.037184 3.272450 0
M  V30 31 C -2.913576 -0.956782 1.889477 0
M  V30 32 Se -1.273184 3.799102 0.611056 0 VAL=2
M  V30 33 C 0.067418 4.185085 -0.822889 0
M  V30 34 C 0.345732 5.503696 -1.366261 0
M  V30 35 H 5.521012 -1.816486 0.070240 0
M  V30 36 H 4.037037 -2.837545 -0.066007 0
M  V30 37 H 5.192999 -2.748842 -1.418153 0
M  V30 38 H 2.956272 -1.394534 -1.505179 0
M  V30 39 H 3.815181 -0.221337 -0.394797 0
M  V30 40 H 6.467255 0.145988 -3.063808 0
M  V30 41 H 6.518743 -0.638430 -1.489752 0
M  V30 42 H 6.360670 1.295190 -0.354206 0
M  V30 43 H 4.820425 1.645074 -1.167218 0
M  V30 44 H 6.423222 2.204379 -1.880888 0
M  V30 45 H 3.092314 -0.746828 -3.673008 0
M  V30 46 H 4.550206 -0.011584 -4.350209 0
M  V30 47 H 2.647834 1.465115 -4.264617 0
M  V30 48 H 3.904473 2.205168 -3.287475 0
M  V30 49 H 1.963383 0.708846 -1.588670 0
M  V30 50 H 0.368392 0.826004 -0.413752 0
M  V30 51 H -1.640157 1.310294 2.556604 0
M  V30 52 H -3.355472 -2.166668 -1.177463 0
M  V30 53 H -4.499147 -3.838514 0.988326 0
M  V30 54 H -4.354812 -5.644255 2.104623 0
M  V30 55 H -5.453893 -7.537440 3.096371 0
M  V30 56 H -6.695359 -7.244402 5.206230 0
M  V30 57 H -6.555577 -5.463666 7.399824 0
M  V30 58 H -5.702753 -3.071011 5.307205 0
M  V30 59 H -3.849167 -2.167592 4.858899 0
M  V30 60 H -2.669983 -0.247376 3.910143 0
M  V30 61 H 0.179158 5.615325 -2.457888 0
M  V30 62 H -0.275013 6.296723 -0.898894 0
M  V30 63 H 1.394814 5.768961 -1.124560 0
M  V30 END ATOM
M  V30 BEGIN BOND
M  V30 1 1 1 2
M  V30 2 1 2 3
M  V30 3 1 3 4
M  V30 4 1 4 5
M  V30 5 1 3 6
M  V30 6 1 6 7
M  V30 7 1 7 8
M  V30 8 1 8 9
M  V30 9 2 9 10
M  V30 10 1 9 11
M  V30 11 1 11 12
M  V30 12 2 12 13
M  V30 13 1 13 14
M  V30 14 2 14 15
M  V30 15 1 15 16
M  V30 16 2 16 17
M  V30 17 1 16 18
M  V30 18 1 18 19
M  V30 19 2 19 20
M  V30 20 1 20 21
M  V30 21 1 21 22
M  V30 22 2 22 23
M  V30 23 1 23 24
M  V30 24 2 24 25
M  V30 25 1 25 26
M  V30 26 1 26 27
M  V30 27 2 26 28
M  V30 28 2 21 29
M  V30 29 1 29 30
M  V30 30 2 30 31
M  V30 31 1 13 32
M  V30 32 1 32 33
M  V30 33 1 33 34
M  V30 34 2 33 11
M  V30 35 1 31 15
M  V30 36 1 31 19
M  V30 37 1 28 22
M  V30 38 1 1 35
M  V30 39 1 1 36
M  V30 40 1 1 37
M  V30 41 1 2 38
M  V30 42 1 2 39
M  V30 43 1 4 40
M  V30 44 1 4 41
M  V30 45 1 5 42
M  V30 46 1 5 43
M  V30 47 1 5 44
M  V30 48 1 6 45
M  V30 49 1 6 46
M  V30 50 1 7 47
M  V30 51 1 7 48
M  V30 52 1 8 49
M  V30 53 1 12 50
M  V30 54 1 14 51
M  V30 55 1 18 52
M  V30 56 1 20 53
M  V30 57 1 23 54
M  V30 58 1 24 55
M  V30 59 1 25 56
M  V30 60 1 27 57
M  V30 61 1 28 58
M  V30 62 1 29 59
M  V30 63 1 30 60
M  V30 64 1 34 61
M  V30 65 1 34 62
M  V30 66 1 34 63
M  V30 END BOND
M  V30 END CTAB
M  END
>  <Dataset>  (44) 
ChEMBL_Kinases

>  <Ligand_Instance>  (44) 
nan

>  <PDB_ID>  (44) 
nan

>  <Standardized_SMILES>  (44) 
CCN(CC)CCNC(=O)c1cc(/C=C2\C(=O)Nc3cc(-c4cccc(O)c4)ccc32)[se]c1C

>  <Name>  (44) 
nan

>  <Pocket>  (44) 
nan

>  <ATP_Site>  (44) 
nan

>  <Peripheral>  (44) 
nan

>  <Num_H_Atoms_ProtBoundConf>  (44) 
nan

>  <Num_Resolved_Atoms>  (44) 
nan

>  <Num_Not_Resolved_Atoms>  (44) 
nan

$$$$
CHEMBL1223480
     RDKit          3D

  0  0  0  0  0  0  0  0  0  0999 V3000
M  V30 BEGIN CTAB
M  V30 COUNTS 57 60 0 0 0
M  V30 BEGIN ATOM
M  V30 1 C 1.381304 -6.478846 -0.522970 0
M  V30 2 C 1.105776 -5.037146 -0.492292 0
M  V30 3 Se 2.364989 -3.812759 0.550591 0 VAL=2
M  V30 4 C 1.323470 -2.299216 0.087191 0
M  V30 5 C 1.420395 -0.874001 0.397707 0
M  V30 6 C 1.690082 -0.403951 1.580175 0
M  V30 7 C 1.952368 -1.058979 2.838794 0
M  V30 8 O 1.942258 -2.292890 2.921187 0
M  V30 9 N 2.183528 -0.049099 3.783000 0
M  V30 10 C 2.078287 1.230744 3.171955 0
M  V30 11 C 2.227371 2.492985 3.719502 0
M  V30 12 C 2.078445 3.619602 2.930362 0
M  V30 13 C 2.211380 4.998454 3.386503 0
M  V30 14 C 2.667338 5.998600 2.551982 0
M  V30 15 C 2.810204 7.321734 2.937980 0
M  V30 16 C 2.486421 7.702190 4.228295 0
M  V30 17 C 2.027288 6.721446 5.084919 0
M  V30 18 O 1.711399 7.133233 6.370012 0
M  V30 19 C 1.892165 5.413199 4.684647 0
M  V30 20 C 1.778465 3.450112 1.589227 0
M  V30 21 C 1.629082 2.193394 1.037854 0
M  V30 22 C 1.779327 1.051509 1.834358 0
M  V30 23 C 0.317775 -2.794364 -0.670730 0
M  V30 24 C 0.165161 -4.117017 -0.982530 0
M  V30 25 C -0.852137 -4.804917 -1.771465 0
M  V30 26 O -0.551388 -5.451730 -2.804162 0
M  V30 27 N -2.187362 -4.673084 -1.265785 0
M  V30 28 C -3.293472 -5.288180 -1.930812 0
M  V30 29 C -3.423362 -4.758006 -3.364855 0
M  V30 30 N -4.573058 -5.406591 -4.009184 0
M  V30 31 C -5.762531 -4.888376 -3.315339 0
M  V30 32 C -4.647781 -4.975117 -5.391745 0
M  V30 33 H 0.465179 -7.086867 -0.349405 0
M  V30 34 H 1.868903 -6.716679 -1.488873 0
M  V30 35 H 2.133459 -6.761355 0.273149 0
M  V30 36 H 1.252402 -0.191319 -0.450589 0
M  V30 37 H 2.396616 -0.300534 4.779680 0
M  V30 38 H 2.463450 2.668123 4.766471 0
M  V30 39 H 2.921432 5.700833 1.540344 0
M  V30 40 H 3.178067 8.005456 2.188809 0
M  V30 41 H 2.613144 8.734894 4.481459 0
M  V30 42 H 0.955844 7.830871 6.429144 0
M  V30 43 H 1.525711 4.638335 5.377731 0
M  V30 44 H 1.641607 4.239665 0.892365 0
M  V30 45 H 1.393917 2.023437 -0.010029 0
M  V30 46 H -0.480621 -2.161691 -1.109203 0
M  V30 47 H -2.378401 -4.112713 -0.380607 0
M  V30 48 H -4.242845 -5.006221 -1.432754 0
M  V30 49 H -3.262324 -6.389692 -1.926759 0
M  V30 50 H -2.528113 -5.010444 -3.969188 0
M  V30 51 H -3.517865 -3.658124 -3.369190 0
M  V30 52 H -6.089014 -5.609297 -2.547926 0
M  V30 53 H -5.525911 -3.901664 -2.858099 0
M  V30 54 H -6.576284 -4.731433 -4.060133 0
M  V30 55 H -5.674237 -5.131593 -5.787602 0
M  V30 56 H -4.462329 -3.873921 -5.484370 0
M  V30 57 H -3.942959 -5.574750 -5.977707 0
M  V30 END ATOM
M  V30 BEGIN BOND
M  V30 1 1 1 2
M  V30 2 1 2 3
M  V30 3 1 3 4
M  V30 4 1 4 5
M  V30 5 2 5 6
M  V30 6 1 6 7
M  V30 7 2 7 8
M  V30 8 1 7 9
M  V30 9 1 9 10
M  V30 10 2 10 11
M  V30 11 1 11 12
M  V30 12 1 12 13
M  V30 13 2 13 14
M  V30 14 1 14 15
M  V30 15 2 15 16
M  V30 16 1 16 17
M  V30 17 1 17 18
M  V30 18 2 17 19
M  V30 19 2 12 20
M  V30 20 1 20 21
M  V30 21 2 21 22
M  V30 22 2 4 23
M  V30 23 1 23 24
M  V30 24 1 24 25
M  V30 25 2 25 26
M  V30 26 1 25 27
M  V30 27 1 27 28
M  V30 28 1 28 29
M  V30 29 1 29 30
M  V30 30 1 30 31
M  V30 31 1 30 32
M  V30 32 2 24 2
M  V30 33 1 22 6
M  V30 34 1 22 10
M  V30 35 1 19 13
M  V30 36 1 1 33
M  V30 37 1 1 34
M  V30 38 1 1 35
M  V30 39 1 5 36
M  V30 40 1 9 37
M  V30 41 1 11 38
M  V30 42 1 14 39
M  V30 43 1 15 40
M  V30 44 1 16 41
M  V30 45 1 18 42
M  V30 46 1 19 43
M  V30 47 1 20 44
M  V30 48 1 21 45
M  V30 49 1 23 46
M  V30 50 1 27 47
M  V30 51 1 28 48
M  V30 52 1 28 49
M  V30 53 1 29 50
M  V30 54 1 29 51
M  V30 55 1 31 52
M  V30 56 1 31 53
M  V30 57 1 31 54
M  V30 58 1 32 55
M  V30 59 1 32 56
M  V30 60 1 32 57
M  V30 END BOND
M  V30 END CTAB
M  END
>  <Dataset>  (45) 
ChEMBL_Kinases

>  <Ligand_Instance>  (45) 
nan

>  <PDB_ID>  (45) 
nan

>  <Standardized_SMILES>  (45) 
Cc1[se]c(/C=C2\C(=O)Nc3cc(-c4cccc(O)c4)ccc32)cc1C(=O)NCCN(C)C

>  <Name>  (45) 
nan

>  <Pocket>  (45) 
nan

>  <ATP_Site>  (45) 
nan

>  <Peripheral>  (45) 
nan

>  <Num_H_Atoms_ProtBoundConf>  (45) 
nan

>  <Num_Resolved_Atoms>  (45) 
nan

>  <Num_Not_Resolved_Atoms>  (45) 
nan

$$$$
CHEMBL1242297
     RDKit          3D

  0  0  0  0  0  0  0  0  0  0999 V3000
M  V30 BEGIN CTAB
M  V30 COUNTS 50 53 0 0 0
M  V30 BEGIN ATOM
M  V30 1 C -4.466381 -0.254905 -4.086941 0
M  V30 2 C -3.651566 0.277456 -2.959295 0
M  V30 3 C -2.291254 0.229305 -3.152931 0
M  V30 4 C -1.435558 0.709021 -2.153283 0
M  V30 5 C 0.024839 0.708818 -2.270802 0
M  V30 6 C 0.618892 0.259562 -3.440929 0
M  V30 7 C 1.990390 0.347669 -3.334004 0
M  V30 8 C 2.188034 0.851764 -2.092198 0
M  V30 9 C 3.418586 1.194160 -1.343842 0
M  V30 10 C 3.512545 0.839573 -0.101789 0
M  V30 11 S 2.124224 -0.061768 0.643532 0
M  V30 12 C 3.104724 -0.633565 2.061817 0
M  V30 13 N 2.337392 -1.584835 2.465497 0
M  V30 14 C 1.098029 -1.869333 1.759278 0
M  V30 15 C -0.131506 -1.251260 1.783892 0
M  V30 16 C -1.112813 -1.762467 0.971821 0
M  V30 17 C -0.914344 -2.848857 0.150697 0
M  V30 18 Cl -2.231171 -3.420237 -0.850677 0
M  V30 19 C 0.317353 -3.488418 0.109091 0
M  V30 20 C 0.538763 -4.640363 -0.761352 0
M  V30 21 O 1.652862 -5.218680 -0.793271 0
M  V30 22 O -0.497473 -5.097482 -1.561940 0
M  V30 23 C 1.326979 -2.976103 0.933696 0
M  V30 24 N 4.255430 0.191722 2.090756 0
M  V30 25 C 4.480177 0.967890 0.962690 0
M  V30 26 O 5.458702 1.743983 0.849796 0
M  V30 27 O 1.012345 1.045751 -1.511208 0
M  V30 28 C -2.041891 1.207115 -1.018356 0
M  V30 29 N -1.329708 1.733039 0.076078 0 CHG=1 VAL=4
M  V30 30 O -1.716732 1.747919 1.241655 0
M  V30 31 O -0.164290 2.350318 0.441645 0 CHG=-1 VAL=1
M  V30 32 C -3.411189 1.253535 -0.826786 0
M  V30 33 C -4.244839 0.773717 -1.829479 0
M  V30 34 C -5.721753 0.810596 -1.666555 0
M  V30 35 H -4.536160 -1.371012 -3.932749 0
M  V30 36 H -3.966170 -0.050647 -5.062058 0
M  V30 37 H -5.481234 0.150672 -4.107970 0
M  V30 38 H -1.830864 -0.165819 -4.046379 0
M  V30 39 H 0.170762 -0.127700 -4.371963 0
M  V30 40 H 2.827503 0.112681 -3.987280 0
M  V30 41 H 4.285202 1.728056 -1.723106 0
M  V30 42 H -0.125576 -0.431253 2.465643 0
M  V30 43 H -2.061868 -1.219175 1.047194 0
M  V30 44 H -0.353950 -5.810610 -2.282384 0
M  V30 45 H 2.251157 -3.543888 0.829927 0
M  V30 46 H 4.712837 0.023966 3.008817 0
M  V30 47 H -3.907514 1.638173 0.053365 0
M  V30 48 H -6.250052 1.222357 -2.549770 0
M  V30 49 H -6.173747 -0.169946 -1.437018 0
M  V30 50 H -5.973438 1.533250 -0.839084 0
M  V30 END ATOM
M  V30 BEGIN BOND
M  V30 1 1 1 2
M  V30 2 2 2 3
M  V30 3 1 3 4
M  V30 4 1 4 5
M  V30 5 2 5 6
M  V30 6 1 6 7
M  V30 7 2 7 8
M  V30 8 1 8 9
M  V30 9 2 9 10
M  V30 10 1 10 11
M  V30 11 1 11 12
M  V30 12 2 12 13
M  V30 13 1 13 14
M  V30 14 2 14 15
M  V30 15 1 15 16
M  V30 16 2 16 17
M  V30 17 1 17 18
M  V30 18 1 17 19
M  V30 19 1 19 20
M  V30 20 2 20 21
M  V30 21 1 20 22
M  V30 22 2 19 23
M  V30 23 1 12 24
M  V30 24 1 24 25
M  V30 25 2 25 26
M  V30 26 1 8 27
M  V30 27 2 4 28
M  V30 28 1 28 29
M  V30 29 2 29 30
M  V30 30 1 29 31
M  V30 31 1 28 32
M  V30 32 2 32 33
M  V30 33 1 33 34
M  V30 34 1 33 2
M  V30 35 1 27 5
M  V30 36 1 25 10
M  V30 37 1 23 14
M  V30 38 1 1 35
M  V30 39 1 1 36
M  V30 40 1 1 37
M  V30 41 1 3 38
M  V30 42 1 6 39
M  V30 43 1 7 40
M  V30 44 1 9 41
M  V30 45 1 15 42
M  V30 46 1 16 43
M  V30 47 1 22 44
M  V30 48 1 23 45
M  V30 49 1 24 46
M  V30 50 1 32 47
M  V30 51 1 34 48
M  V30 52 1 34 49
M  V30 53 1 34 50
M  V30 END BOND
M  V30 END CTAB
M  END
>  <Dataset>  (46) 
ChEMBL_Kinases

>  <Ligand_Instance>  (46) 
nan

>  <PDB_ID>  (46) 
nan

>  <Standardized_SMILES>  (46) 
Cc1cc(-c2ccc(/C=C3\S/C(=N\c4ccc(Cl)c(C(=O)O)c4)NC3=O)o2)c([N+](=O)[O-])cc1C

>  <Name>  (46) 
nan

>  <Pocket>  (46) 
nan

>  <ATP_Site>  (46) 
nan

>  <Peripheral>  (46) 
nan

>  <Num_H_Atoms_ProtBoundConf>  (46) 
nan

>  <Num_Resolved_Atoms>  (46) 
nan

>  <Num_Not_Resolved_Atoms>  (46) 
nan

$$$$
CHEMBL1223183
     RDKit          3D

  0  0  0  0  0  0  0  0  0  0999 V3000
M  V30 BEGIN CTAB
M  V30 COUNTS 67 70 0 0 0
M  V30 BEGIN ATOM
M  V30 1 C 4.358556 -1.138196 5.208036 0
M  V30 2 C 5.463476 -1.386554 4.235581 0
M  V30 3 N 5.129456 -1.351472 2.868307 0
M  V30 4 C 4.325972 -2.387322 2.398521 0
M  V30 5 C 2.886224 -2.379890 2.909164 0
M  V30 6 C 6.203605 -0.953716 2.040791 0
M  V30 7 C 5.904185 -0.956075 0.560586 0
M  V30 8 N 4.808017 -0.077149 0.284445 0
M  V30 9 C 4.708359 1.324828 0.508062 0
M  V30 10 O 5.672537 1.923369 1.003238 0
M  V30 11 C 3.471771 2.001718 0.143016 0
M  V30 12 C 2.189409 1.547385 0.209278 0
M  V30 13 C 1.126776 2.228476 -0.141906 0
M  V30 14 C -0.324455 1.847957 -0.162236 0
M  V30 15 C -0.771341 0.767344 -0.767643 0
M  V30 16 C -0.009272 -0.226432 -1.507710 0
M  V30 17 O 1.222708 -0.227977 -1.729854 0
M  V30 18 N -0.852789 -1.239287 -1.974723 0
M  V30 19 C -2.163432 -0.896986 -1.535065 0
M  V30 20 C -3.336253 -1.604566 -1.758054 0
M  V30 21 C -4.525381 -1.083347 -1.230367 0
M  V30 22 C -5.719691 -1.873991 -1.499391 0
M  V30 23 C -5.879181 -2.623488 -2.657128 0
M  V30 24 C -7.019877 -3.379318 -2.913806 0
M  V30 25 C -8.027553 -3.378357 -1.974783 0
M  V30 26 O -9.143610 -4.159788 -2.299503 0
M  V30 27 C -7.883453 -2.629219 -0.803112 0
M  V30 28 O -9.003546 -2.762290 0.006488 0
M  V30 29 C -9.128052 -2.108678 1.255077 0
M  V30 30 C -6.741774 -1.898801 -0.591974 0
M  V30 31 C -4.531218 0.094184 -0.512312 0
M  V30 32 C -3.331422 0.778148 -0.308458 0
M  V30 33 C -2.150640 0.283874 -0.818865 0
M  V30 34 Se 1.715974 3.882998 -0.723987 0 VAL=2
M  V30 35 C 3.642929 3.356205 -0.360612 0
M  V30 36 C 4.799717 4.247771 -0.597006 0
M  V30 37 H 4.148998 -2.087929 5.744454 0
M  V30 38 H 3.436329 -0.723751 4.810601 0
M  V30 39 H 4.688878 -0.428225 6.025706 0
M  V30 40 H 6.020080 -2.343218 4.474774 0
M  V30 41 H 6.258162 -0.601963 4.446748 0
M  V30 42 H 4.227633 -2.438817 1.290955 0
M  V30 43 H 4.737824 -3.381539 2.689265 0
M  V30 44 H 2.315117 -3.056984 2.222344 0
M  V30 45 H 2.429869 -1.385856 2.767937 0
M  V30 46 H 2.790826 -2.815973 3.905313 0
M  V30 47 H 7.152762 -1.522380 2.256200 0
M  V30 48 H 6.399168 0.137827 2.285336 0
M  V30 49 H 5.774067 -1.943979 0.132116 0
M  V30 50 H 6.781973 -0.516259 -0.009244 0
M  V30 51 H 3.952653 -0.544239 -0.147157 0
M  V30 52 H 2.068894 0.544113 0.615589 0
M  V30 53 H -0.997433 2.528391 0.363602 0
M  V30 54 H -0.579645 -2.083653 -2.537754 0
M  V30 55 H -3.337763 -2.546617 -2.332131 0
M  V30 56 H -5.078451 -2.619811 -3.392028 0
M  V30 57 H -7.062844 -3.926554 -3.826882 0
M  V30 58 H -9.412718 -4.965612 -1.766567 0
M  V30 59 H -8.792116 -2.743208 2.100157 0
M  V30 60 H -10.172080 -1.814209 1.483277 0
M  V30 61 H -8.518491 -1.183184 1.285703 0
M  V30 62 H -6.728575 -1.366109 0.325481 0
M  V30 63 H -5.470499 0.462975 -0.120545 0
M  V30 64 H -3.300717 1.692941 0.243091 0
M  V30 65 H 5.236960 4.040729 -1.589377 0
M  V30 66 H 4.445197 5.323471 -0.647711 0
M  V30 67 H 5.509975 4.248055 0.243427 0
M  V30 END ATOM
M  V30 BEGIN BOND
M  V30 1 1 1 2
M  V30 2 1 2 3
M  V30 3 1 3 4
M  V30 4 1 4 5
M  V30 5 1 3 6
M  V30 6 1 6 7
M  V30 7 1 7 8
M  V30 8 1 8 9
M  V30 9 2 9 10
M  V30 10 1 9 11
M  V30 11 1 11 12
M  V30 12 2 12 13
M  V30 13 1 13 14
M  V30 14 2 14 15
M  V30 15 1 15 16
M  V30 16 2 16 17
M  V30 17 1 16 18
M  V30 18 1 18 19
M  V30 19 2 19 20
M  V30 20 1 20 21
M  V30 21 1 21 22
M  V30 22 2 22 23
M  V30 23 1 23 24
M  V30 24 2 24 25
M  V30 25 1 25 26
M  V30 26 1 25 27
M  V30 27 1 27 28
M  V30 28 1 28 29
M  V30 29 2 27 30
M  V30 30 2 21 31
M  V30 31 1 31 32
M  V30 32 2 32 33
M  V30 33 1 13 34
M  V30 34 1 34 35
M  V30 35 1 35 36
M  V30 36 2 35 11
M  V30 37 1 33 15
M  V30 38 1 33 19
M  V30 39 1 30 22
M  V30 40 1 1 37
M  V30 41 1 1 38
M  V30 42 1 1 39
M  V30 43 1 2 40
M  V30 44 1 2 41
M  V30 45 1 4 42
M  V30 46 1 4 43
M  V30 47 1 5 44
M  V30 48 1 5 45
M  V30 49 1 5 46
M  V30 50 1 6 47
M  V30 51 1 6 48
M  V30 52 1 7 49
M  V30 53 1 7 50
M  V30 54 1 8 51
M  V30 55 1 12 52
M  V30 56 1 14 53
M  V30 57 1 18 54
M  V30 58 1 20 55
M  V30 59 1 23 56
M  V30 60 1 24 57
M  V30 61 1 26 58
M  V30 62 1 29 59
M  V30 63 1 29 60
M  V30 64 1 29 61
M  V30 65 1 30 62
M  V30 66 1 31 63
M  V30 67 1 32 64
M  V30 68 1 36 65
M  V30 69 1 36 66
M  V30 70 1 36 67
M  V30 END BOND
M  V30 END CTAB
M  END
>  <Dataset>  (47) 
ChEMBL_Kinases

>  <Ligand_Instance>  (47) 
nan

>  <PDB_ID>  (47) 
nan

>  <Standardized_SMILES>  (47) 
CCN(CC)CCNC(=O)c1cc(/C=C2\C(=O)Nc3cc(-c4ccc(O)c(OC)c4)ccc32)[se]c1C

>  <Name>  (47) 
nan

>  <Pocket>  (47) 
nan

>  <ATP_Site>  (47) 
nan

>  <Peripheral>  (47) 
nan

>  <Num_H_Atoms_ProtBoundConf>  (47) 
nan

>  <Num_Resolved_Atoms>  (47) 
nan

>  <Num_Not_Resolved_Atoms>  (47) 
nan

$$$$
CHEMBL1223184
     RDKit          3D

  0  0  0  0  0  0  0  0  0  0999 V3000
M  V30 BEGIN CTAB
M  V30 COUNTS 65 69 0 0 0
M  V30 BEGIN ATOM
M  V30 1 C 9.238191 0.688510 6.336734 0
M  V30 2 O 8.228827 0.578458 5.702229 0
M  V30 3 C 7.058721 0.503197 4.983763 0
M  V30 4 C 5.947822 0.629785 4.365000 0
M  V30 5 C 5.186329 -0.238717 3.630246 0
M  V30 6 C 3.917403 0.348070 3.130752 0
M  V30 7 C 3.159862 1.319296 3.756665 0
M  V30 8 C 1.949367 1.661409 3.181050 0
M  V30 9 C 1.527107 1.042151 2.017198 0
M  V30 10 C 2.242564 0.075278 1.352572 0
M  V30 11 C 3.473078 -0.256035 1.957668 0
M  V30 12 N 1.594837 -0.437836 0.194793 0
M  V30 13 C 0.362688 0.235646 0.078719 0
M  V30 14 O -0.405423 -0.033171 -0.871028 0
M  V30 15 C 0.294405 1.155869 1.191562 0
M  V30 16 C -0.719357 1.997490 1.422017 0
M  V30 17 C -1.910858 1.979420 0.500223 0
M  V30 18 C -2.604766 0.710399 0.450787 0
M  V30 19 C -3.669952 0.509536 -0.357567 0
M  V30 20 C -4.420672 -0.716665 -0.465745 0
M  V30 21 O -4.030369 -1.748965 0.198307 0
M  V30 22 N -5.521642 -1.018851 -1.175580 0
M  V30 23 C -6.437446 -2.059225 -1.482529 0
M  V30 24 C -5.876330 -3.272322 -2.163413 0
M  V30 25 N -5.297770 -3.017053 -3.377057 0
M  V30 26 C -5.984883 -2.648764 -4.549842 0
M  V30 27 C -4.874771 -1.845276 -5.269481 0
M  V30 28 C -3.622720 -2.645975 -4.909927 0
M  V30 29 C -4.058993 -3.548570 -3.772577 0
M  V30 30 C -4.113189 1.621806 -1.193314 0
M  V30 31 C -5.111960 1.971295 -2.162172 0
M  V30 32 Se -2.748531 2.997742 -0.626047 0 VAL=2
M  V30 33 C 5.550949 -1.534524 3.421810 0
M  V30 34 C 6.779221 -1.938781 4.017208 0
M  V30 35 C 7.439932 -0.895435 4.753322 0
M  V30 36 O 8.547884 -1.801125 5.121576 0
M  V30 37 H 9.246133 0.647066 7.509641 0
M  V30 38 H 10.167355 0.024973 6.150190 0
M  V30 39 H 9.777330 1.746349 6.236538 0
M  V30 40 H 5.854174 1.694693 4.659815 0
M  V30 41 H 3.572971 1.745971 4.647091 0
M  V30 42 H 1.358569 2.429313 3.661943 0
M  V30 43 H 4.028808 -1.024806 1.418898 0
M  V30 44 H 1.977156 -1.179775 -0.425981 0
M  V30 45 H -0.718316 2.690849 2.245883 0
M  V30 46 H -2.256840 -0.112031 1.095822 0
M  V30 47 H -5.871068 -0.250803 -1.716641 0
M  V30 48 H -6.870816 -2.475905 -0.506990 0
M  V30 49 H -7.351811 -1.729229 -2.011691 0
M  V30 50 H -6.791007 -3.970658 -2.257487 0
M  V30 51 H -5.166040 -3.774465 -1.479109 0
M  V30 52 H -6.119742 -3.543756 -5.206443 0
M  V30 53 H -6.890180 -2.044486 -4.442061 0
M  V30 54 H -4.878267 -0.861568 -4.780629 0
M  V30 55 H -5.040072 -1.727082 -6.326419 0
M  V30 56 H -3.256263 -3.194164 -5.788458 0
M  V30 57 H -2.831229 -1.932848 -4.547266 0
M  V30 58 H -4.154783 -4.576701 -4.255192 0
M  V30 59 H -3.274928 -3.587635 -2.975428 0
M  V30 60 H -6.123768 1.988514 -1.656001 0
M  V30 61 H -5.025709 3.050500 -2.500867 0
M  V30 62 H -5.160091 1.374023 -3.081436 0
M  V30 63 H 4.841119 -2.078102 2.824967 0
M  V30 64 H 6.840090 -2.988963 3.712689 0
M  V30 65 H 8.346606 -2.315145 6.011490 0
M  V30 END ATOM
M  V30 BEGIN BOND
M  V30 1 1 1 2
M  V30 2 1 2 3
M  V30 3 2 3 4
M  V30 4 1 4 5
M  V30 5 1 5 6
M  V30 6 2 6 7
M  V30 7 1 7 8
M  V30 8 2 8 9
M  V30 9 1 9 10
M  V30 10 2 10 11
M  V30 11 1 10 12
M  V30 12 1 12 13
M  V30 13 2 13 14
M  V30 14 1 13 15
M  V30 15 2 15 16
M  V30 16 1 16 17
M  V30 17 2 17 18
M  V30 18 1 18 19
M  V30 19 1 19 20
M  V30 20 2 20 21
M  V30 21 1 20 22
M  V30 22 1 22 23
M  V30 23 1 23 24
M  V30 24 1 24 25
M  V30 25 1 25 26
M  V30 26 1 26 27
M  V30 27 1 27 28
M  V30 28 1 28 29
M  V30 29 2 19 30
M  V30 30 1 30 31
M  V30 31 1 30 32
M  V30 32 2 5 33
M  V30 33 1 33 34
M  V30 34 2 34 35
M  V30 35 1 35 36
M  V30 36 1 35 3
M  V30 37 1 11 6
M  V30 38 1 32 17
M  V30 39 1 15 9
M  V30 40 1 29 25
M  V30 41 1 1 37
M  V30 42 1 1 38
M  V30 43 1 1 39
M  V30 44 1 4 40
M  V30 45 1 7 41
M  V30 46 1 8 42
M  V30 47 1 11 43
M  V30 48 1 12 44
M  V30 49 1 16 45
M  V30 50 1 18 46
M  V30 51 1 22 47
M  V30 52 1 23 48
M  V30 53 1 23 49
M  V30 54 1 24 50
M  V30 55 1 24 51
M  V30 56 1 26 52
M  V30 57 1 26 53
M  V30 58 1 27 54
M  V30 59 1 27 55
M  V30 60 1 28 56
M  V30 61 1 28 57
M  V30 62 1 29 58
M  V30 63 1 29 59
M  V30 64 1 31 60
M  V30 65 1 31 61
M  V30 66 1 31 62
M  V30 67 1 33 63
M  V30 68 1 34 64
M  V30 69 1 36 65
M  V30 END BOND
M  V30 END CTAB
M  END
>  <Dataset>  (48) 
ChEMBL_Kinases

>  <Ligand_Instance>  (48) 
nan

>  <PDB_ID>  (48) 
nan

>  <Standardized_SMILES>  (48) 
COc1cc(-c2ccc3c(c2)NC(=O)/C3=C\c2cc(C(=O)NCCN3CCCC3)c(C)[se]2)ccc1O

>  <Name>  (48) 
nan

>  <Pocket>  (48) 
nan

>  <ATP_Site>  (48) 
nan

>  <Peripheral>  (48) 
nan

>  <Num_H_Atoms_ProtBoundConf>  (48) 
nan

>  <Num_Resolved_Atoms>  (48) 
nan

>  <Num_Not_Resolved_Atoms>  (48) 
nan

$$$$
CHEMBL1223185
     RDKit          3D

  0  0  0  0  0  0  0  0  0  0999 V3000
M  V30 BEGIN CTAB
M  V30 COUNTS 66 70 0 0 0
M  V30 BEGIN ATOM
M  V30 1 C 4.995614 -1.798291 6.281075 0
M  V30 2 O 6.170146 -1.010713 6.038345 0
M  V30 3 C 6.112031 -0.020464 5.036483 0
M  V30 4 C 4.965680 0.211063 4.307891 0
M  V30 5 C 4.895872 1.171459 3.324383 0
M  V30 6 C 3.641052 1.402854 2.591942 0
M  V30 7 C 2.880422 0.256361 2.497241 0
M  V30 8 C 1.686214 0.344732 1.814327 0
M  V30 9 C 1.302415 1.561054 1.255731 0
M  V30 10 C 2.057511 2.709798 1.345418 0
M  V30 11 C 3.248366 2.610307 2.032545 0
M  V30 12 N 1.412638 3.791844 0.668233 0
M  V30 13 C 0.193176 3.302303 0.126425 0
M  V30 14 O -0.637855 3.971150 -0.538402 0
M  V30 15 C 0.112154 1.907340 0.488549 0
M  V30 16 C -0.888155 1.121949 0.203383 0
M  V30 17 C -2.090039 1.411920 -0.552085 0
M  V30 18 C -2.657214 0.455293 -1.373492 0
M  V30 19 C -3.783883 0.688291 -2.067621 0
M  V30 20 C -4.377859 -0.405119 -2.893070 0
M  V30 21 O -4.470786 -0.597011 -4.123475 0
M  V30 22 N -4.926160 -1.394269 -1.992793 0
M  V30 23 C -5.593894 -2.646576 -2.259267 0
M  V30 24 C -4.721370 -3.635286 -3.035208 0
M  V30 25 N -3.506612 -3.973824 -2.399697 0
M  V30 26 C -2.665930 -4.902186 -3.115305 0
M  V30 27 C -1.337744 -5.108602 -2.432064 0
M  V30 28 O -1.625081 -5.613205 -1.144327 0
M  V30 29 C -2.163258 -4.544391 -0.430727 0
M  V30 30 C -3.520138 -4.188084 -0.986030 0
M  V30 31 C -4.435275 1.910474 -1.994534 0
M  V30 32 C -5.690240 2.384110 -2.678669 0
M  V30 33 Se -3.250056 2.868288 -0.737406 0 VAL=2
M  V30 34 C 6.004196 1.909323 3.073831 0
M  V30 35 C 7.158339 1.690397 3.792369 0
M  V30 36 C 7.263446 0.723912 4.798632 0
M  V30 37 O 8.420906 0.509807 5.517994 0
M  V30 38 H 4.149894 -1.172555 6.618884 0
M  V30 39 H 5.236381 -2.600706 7.005239 0
M  V30 40 H 4.670009 -2.342889 5.347846 0
M  V30 41 H 4.127229 -0.433525 4.583710 0
M  V30 42 H 3.072988 -0.724842 2.879501 0
M  V30 43 H 1.009637 -0.516845 1.684733 0
M  V30 44 H 3.908093 3.447824 2.164377 0
M  V30 45 H 1.751024 4.757801 0.580582 0
M  V30 46 H -0.803175 0.100533 0.611298 0
M  V30 47 H -2.180361 -0.543741 -1.490802 0
M  V30 48 H -4.868996 -1.232520 -0.933957 0
M  V30 49 H -5.988288 -3.104602 -1.358876 0
M  V30 50 H -6.493195 -2.407389 -2.908349 0
M  V30 51 H -4.521234 -3.180599 -4.024330 0
M  V30 52 H -5.339533 -4.547345 -3.284761 0
M  V30 53 H -3.187496 -5.870401 -3.170096 0
M  V30 54 H -2.467420 -4.484283 -4.116229 0
M  V30 55 H -0.773336 -4.191142 -2.270406 0
M  V30 56 H -0.794070 -5.895144 -2.983088 0
M  V30 57 H -2.282209 -4.781726 0.636366 0
M  V30 58 H -1.458351 -3.693070 -0.575573 0
M  V30 59 H -4.195957 -5.024426 -0.723297 0
M  V30 60 H -3.847556 -3.289248 -0.444143 0
M  V30 61 H -5.581160 2.333499 -3.779269 0
M  V30 62 H -6.472279 1.734466 -2.273739 0
M  V30 63 H -5.884519 3.418560 -2.297497 0
M  V30 64 H 5.984829 2.664891 2.316748 0
M  V30 65 H 8.092063 2.252851 3.637757 0
M  V30 66 H 8.515139 -0.323739 6.043984 0
M  V30 END ATOM
M  V30 BEGIN BOND
M  V30 1 1 1 2
M  V30 2 1 2 3
M  V30 3 2 3 4
M  V30 4 1 4 5
M  V30 5 1 5 6
M  V30 6 2 6 7
M  V30 7 1 7 8
M  V30 8 2 8 9
M  V30 9 1 9 10
M  V30 10 2 10 11
M  V30 11 1 10 12
M  V30 12 1 12 13
M  V30 13 2 13 14
M  V30 14 1 13 15
M  V30 15 2 15 16
M  V30 16 1 16 17
M  V30 17 2 17 18
M  V30 18 1 18 19
M  V30 19 1 19 20
M  V30 20 2 20 21
M  V30 21 1 20 22
M  V30 22 1 22 23
M  V30 23 1 23 24
M  V30 24 1 24 25
M  V30 25 1 25 26
M  V30 26 1 26 27
M  V30 27 1 27 28
M  V30 28 1 28 29
M  V30 29 1 29 30
M  V30 30 2 19 31
M  V30 31 1 31 32
M  V30 32 1 31 33
M  V30 33 2 5 34
M  V30 34 1 34 35
M  V30 35 2 35 36
M  V30 36 1 36 37
M  V30 37 1 36 3
M  V30 38 1 11 6
M  V30 39 1 33 17
M  V30 40 1 15 9
M  V30 41 1 30 25
M  V30 42 1 1 38
M  V30 43 1 1 39
M  V30 44 1 1 40
M  V30 45 1 4 41
M  V30 46 1 7 42
M  V30 47 1 8 43
M  V30 48 1 11 44
M  V30 49 1 12 45
M  V30 50 1 16 46
M  V30 51 1 18 47
M  V30 52 1 22 48
M  V30 53 1 23 49
M  V30 54 1 23 50
M  V30 55 1 24 51
M  V30 56 1 24 52
M  V30 57 1 26 53
M  V30 58 1 26 54
M  V30 59 1 27 55
M  V30 60 1 27 56
M  V30 61 1 29 57
M  V30 62 1 29 58
M  V30 63 1 30 59
M  V30 64 1 30 60
M  V30 65 1 32 61
M  V30 66 1 32 62
M  V30 67 1 32 63
M  V30 68 1 34 64
M  V30 69 1 35 65
M  V30 70 1 37 66
M  V30 END BOND
M  V30 END CTAB
M  END
>  <Dataset>  (49) 
ChEMBL_Kinases

>  <Ligand_Instance>  (49) 
nan

>  <PDB_ID>  (49) 
nan

>  <Standardized_SMILES>  (49) 
COc1cc(-c2ccc3c(c2)NC(=O)/C3=C\c2cc(C(=O)NCCN3CCOCC3)c(C)[se]2)ccc1O

>  <Name>  (49) 
nan

>  <Pocket>  (49) 
nan

>  <ATP_Site>  (49) 
nan

>  <Peripheral>  (49) 
nan

>  <Num_H_Atoms_ProtBoundConf>  (49) 
nan

>  <Num_Resolved_Atoms>  (49) 
nan

>  <Num_Not_Resolved_Atoms>  (49) 
nan

$$$$
CHEMBL1223263
     RDKit          3D

  0  0  0  0  0  0  0  0  0  0999 V3000
M  V30 BEGIN CTAB
M  V30 COUNTS 63 67 0 0 0
M  V30 BEGIN ATOM
M  V30 1 C 4.659326 -0.287547 8.038997 0
M  V30 2 O 5.084988 0.943415 7.630728 0
M  V30 3 C 4.654365 1.672968 6.465814 0
M  V30 4 C 3.705466 1.124715 5.677234 0
M  V30 5 C 3.529576 2.063326 4.705304 0
M  V30 6 C 2.487601 1.758702 3.682149 0
M  V30 7 C 1.724619 2.781142 3.124072 0
M  V30 8 C 0.730841 2.598090 2.190747 0
M  V30 9 C 0.567124 1.308184 1.863259 0
M  V30 10 C 1.204399 0.105838 2.282872 0
M  V30 11 C 2.176466 0.513275 3.226356 0
M  V30 12 N 0.697859 -1.049161 1.672231 0
M  V30 13 C -0.335056 -0.639968 0.801220 0
M  V30 14 O -1.004029 -1.464187 0.082457 0
M  V30 15 C -0.457521 0.831578 0.889299 0
M  V30 16 C -1.357534 1.545928 0.208946 0
M  V30 17 C -2.319306 0.964325 -0.712574 0
M  V30 18 C -3.251663 0.260934 -1.285709 0
M  V30 19 C -4.188265 -0.450953 -1.834386 0
M  V30 20 C -4.705384 -0.719852 -3.123547 0
M  V30 21 O -5.719958 -0.316149 -3.729062 0
M  V30 22 N -3.980872 -1.640456 -4.010431 0
M  V30 23 C -4.153454 -2.166706 -5.349925 0
M  V30 24 C -2.997833 -3.127232 -5.690127 0
M  V30 25 C -2.971280 -4.299520 -4.749670 0
M  V30 26 N -1.815489 -5.135463 -5.091378 0
M  V30 27 C -0.642775 -4.781665 -4.501750 0
M  V30 28 C 0.192440 -5.731717 -4.980636 0
M  V30 29 N -0.337908 -6.656666 -5.825284 0
M  V30 30 C -1.668909 -6.228806 -5.872461 0
M  V30 31 C -4.550969 -1.027612 -0.508883 0
M  V30 32 C -5.598631 -2.016833 -0.258224 0
M  V30 33 Se -3.268021 -0.137578 0.707947 0 VAL=2
M  V30 34 C 4.112712 3.285457 4.487151 0
M  V30 35 C 5.046827 3.625017 5.424830 0
M  V30 36 C 5.434604 2.793674 6.578321 0
M  V30 37 O 6.393726 3.318219 7.398068 0
M  V30 38 H 3.828288 -0.310295 8.786408 0
M  V30 39 H 4.406312 -0.888285 7.129563 0
M  V30 40 H 5.536659 -0.808470 8.525278 0
M  V30 41 H 3.242141 0.194791 5.819945 0
M  V30 42 H 1.952262 3.792972 3.472090 0
M  V30 43 H 0.160889 3.418433 1.780288 0
M  V30 44 H 2.749921 -0.338470 3.642182 0
M  V30 45 H 1.115371 -1.964620 1.920408 0
M  V30 46 H -1.435879 2.599128 0.288928 0
M  V30 47 H -2.753114 0.903970 -2.130602 0
M  V30 48 H -3.089653 -1.994170 -3.523267 0
M  V30 49 H -5.123070 -2.642058 -5.542861 0
M  V30 50 H -4.078893 -1.284254 -6.050450 0
M  V30 51 H -2.037733 -2.543068 -5.559999 0
M  V30 52 H -3.039483 -3.403484 -6.742695 0
M  V30 53 H -2.968710 -3.966452 -3.709181 0
M  V30 54 H -3.914032 -4.922541 -4.929813 0
M  V30 55 H -0.366093 -3.986900 -3.832176 0
M  V30 56 H 1.264833 -5.908635 -4.815235 0
M  V30 57 H -2.476104 -6.666151 -6.425121 0
M  V30 58 H -5.490088 -2.320337 0.801225 0
M  V30 59 H -6.581272 -1.512813 -0.318773 0
M  V30 60 H -5.523557 -2.905949 -0.898042 0
M  V30 61 H 3.953554 3.992192 3.709491 0
M  V30 62 H 5.576491 4.599395 5.341264 0
M  V30 63 H 6.357414 4.316789 7.667479 0
M  V30 END ATOM
M  V30 BEGIN BOND
M  V30 1 1 1 2
M  V30 2 1 2 3
M  V30 3 2 3 4
M  V30 4 1 4 5
M  V30 5 1 5 6
M  V30 6 2 6 7
M  V30 7 1 7 8
M  V30 8 2 8 9
M  V30 9 1 9 10
M  V30 10 2 10 11
M  V30 11 1 10 12
M  V30 12 1 12 13
M  V30 13 2 13 14
M  V30 14 1 13 15
M  V30 15 2 15 16
M  V30 16 1 16 17
M  V30 17 2 17 18
M  V30 18 1 18 19
M  V30 19 1 19 20
M  V30 20 2 20 21
M  V30 21 1 20 22
M  V30 22 1 22 23
M  V30 23 1 23 24
M  V30 24 1 24 25
M  V30 25 1 25 26
M  V30 26 1 26 27
M  V30 27 2 27 28
M  V30 28 1 28 29
M  V30 29 2 29 30
M  V30 30 2 19 31
M  V30 31 1 31 32
M  V30 32 1 31 33
M  V30 33 2 5 34
M  V30 34 1 34 35
M  V30 35 2 35 36
M  V30 36 1 36 37
M  V30 37 1 36 3
M  V30 38 1 11 6
M  V30 39 1 33 17
M  V30 40 1 15 9
M  V30 41 1 30 26
M  V30 42 1 1 38
M  V30 43 1 1 39
M  V30 44 1 1 40
M  V30 45 1 4 41
M  V30 46 1 7 42
M  V30 47 1 8 43
M  V30 48 1 11 44
M  V30 49 1 12 45
M  V30 50 1 16 46
M  V30 51 1 18 47
M  V30 52 1 22 48
M  V30 53 1 23 49
M  V30 54 1 23 50
M  V30 55 1 24 51
M  V30 56 1 24 52
M  V30 57 1 25 53
M  V30 58 1 25 54
M  V30 59 1 27 55
M  V30 60 1 28 56
M  V30 61 1 30 57
M  V30 62 1 32 58
M  V30 63 1 32 59
M  V30 64 1 32 60
M  V30 65 1 34 61
M  V30 66 1 35 62
M  V30 67 1 37 63
M  V30 END BOND
M  V30 END CTAB
M  END
>  <Dataset>  (50) 
ChEMBL_Kinases

>  <Ligand_Instance>  (50) 
nan

>  <PDB_ID>  (50) 
nan

>  <Standardized_SMILES>  (50) 
COc1cc(-c2ccc3c(c2)NC(=O)/C3=C\c2cc(C(=O)NCCCn3ccnc3)c(C)[se]2)ccc1O

>  <Name>  (50) 
nan

>  <Pocket>  (50) 
nan

>  <ATP_Site>  (50) 
nan

>  <Peripheral>  (50) 
nan

>  <Num_H_Atoms_ProtBoundConf>  (50) 
nan

>  <Num_Resolved_Atoms>  (50) 
nan

>  <Num_Not_Resolved_Atoms>  (50) 
nan

$$$$
CHEMBL1223264
     RDKit          3D

  0  0  0  0  0  0  0  0  0  0999 V3000
M  V30 BEGIN CTAB
M  V30 COUNTS 36 39 0 0 0
M  V30 BEGIN ATOM
M  V30 1 O -1.216395 -5.028315 -0.421865 0
M  V30 2 C -0.993049 -3.812616 -0.195110 0
M  V30 3 N -1.145878 -3.071113 1.015522 0
M  V30 4 C -0.774328 -1.696972 0.805636 0
M  V30 5 C -0.781286 -0.568745 1.634232 0
M  V30 6 C -0.399049 0.671045 1.138322 0
M  V30 7 C -0.389145 1.883468 1.953393 0
M  V30 8 C 0.218146 3.041837 1.487968 0
M  V30 9 C 0.248244 4.203521 2.227067 0
M  V30 10 C -0.377750 4.063940 3.439103 0
M  V30 11 O -0.368290 5.253618 4.229067 0
M  V30 12 C -1.010803 3.032780 4.061245 0
M  V30 13 C -0.978692 1.910242 3.211894 0
M  V30 14 C -0.006121 0.773105 -0.200285 0
M  V30 15 C 0.001531 -0.371816 -1.041308 0
M  V30 16 C -0.385849 -1.597947 -0.531322 0
M  V30 17 C -0.506536 -2.893924 -1.208905 0
M  V30 18 C -0.272546 -3.089473 -2.471750 0
M  V30 19 C -0.491236 -4.384304 -3.088927 0
M  V30 20 C -1.108365 -4.349908 -4.369974 0
M  V30 21 C -1.444509 -5.346458 -5.195894 0
M  V30 22 C -1.140403 -6.761363 -4.739906 0
M  V30 23 Se -0.246585 -6.356729 -2.825070 0 VAL=2
M  V30 24 H -1.484279 -3.457532 1.915906 0
M  V30 25 H -1.093959 -0.692681 2.650727 0
M  V30 26 H 0.700654 3.124201 0.516978 0
M  V30 27 H 0.687075 5.166735 1.903947 0
M  V30 28 H -1.136161 5.934359 4.041937 0
M  V30 29 H -1.449495 3.059939 5.025660 0
M  V30 30 H -1.457977 1.017741 3.643822 0
M  V30 31 H 0.313527 1.645400 -0.704194 0
M  V30 32 H 0.323726 -0.297769 -2.089675 0
M  V30 33 H 0.118251 -2.306464 -3.076486 0
M  V30 34 H -1.479106 -3.597631 -5.055146 0
M  V30 35 H -1.794301 -5.945377 -5.999275 0
M  V30 36 H -1.010458 -7.946055 -4.611682 0
M  V30 END ATOM
M  V30 BEGIN BOND
M  V30 1 2 1 2
M  V30 2 1 2 3
M  V30 3 1 3 4
M  V30 4 2 4 5
M  V30 5 1 5 6
M  V30 6 1 6 7
M  V30 7 2 7 8
M  V30 8 1 8 9
M  V30 9 2 9 10
M  V30 10 1 10 11
M  V30 11 1 10 12
M  V30 12 2 12 13
M  V30 13 2 6 14
M  V30 14 1 14 15
M  V30 15 2 15 16
M  V30 16 1 16 17
M  V30 17 2 17 18
M  V30 18 1 18 19
M  V30 19 2 19 20
M  V30 20 1 20 21
M  V30 21 2 21 22
M  V30 22 1 22 23
M  V30 23 1 17 2
M  V30 24 1 23 19
M  V30 25 1 16 4
M  V30 26 1 13 7
M  V30 27 1 3 24
M  V30 28 1 5 25
M  V30 29 1 8 26
M  V30 30 1 9 27
M  V30 31 1 11 28
M  V30 32 1 12 29
M  V30 33 1 13 30
M  V30 34 1 14 31
M  V30 35 1 15 32
M  V30 36 1 18 33
M  V30 37 1 20 34
M  V30 38 1 21 35
M  V30 39 1 22 36
M  V30 END BOND
M  V30 END CTAB
M  END
>  <Dataset>  (51) 
ChEMBL_Kinases

>  <Ligand_Instance>  (51) 
nan

>  <PDB_ID>  (51) 
nan

>  <Standardized_SMILES>  (51) 
O=C1Nc2cc(-c3ccc(O)cc3)ccc2/C1=C/c1ccc[se]1

>  <Name>  (51) 
nan

>  <Pocket>  (51) 
nan

>  <ATP_Site>  (51) 
nan

>  <Peripheral>  (51) 
nan

>  <Num_H_Atoms_ProtBoundConf>  (51) 
nan

>  <Num_Resolved_Atoms>  (51) 
nan

>  <Num_Not_Resolved_Atoms>  (51) 
nan

$$$$
CHEMBL1223265
     RDKit          3D

  0  0  0  0  0  0  0  0  0  0999 V3000
M  V30 BEGIN CTAB
M  V30 COUNTS 39 42 0 0 0
M  V30 BEGIN ATOM
M  V30 1 C 7.477712 -4.117332 0.403523 0
M  V30 2 C 6.166640 -3.607077 0.886021 0
M  V30 3 C 5.303315 -3.953841 1.982990 0
M  V30 4 C 4.153605 -3.234289 2.099300 0
M  V30 5 C 3.759043 -2.235136 1.281192 0
M  V30 6 C 2.506096 -1.518924 1.513516 0
M  V30 7 C 1.676763 -1.222403 0.532985 0
M  V30 8 C 1.716431 -1.467969 -0.887195 0
M  V30 9 O 2.666146 -2.074097 -1.402373 0
M  V30 10 N 0.524851 -0.891210 -1.395039 0
M  V30 11 C -0.244126 -0.304504 -0.357663 0
M  V30 12 C -1.457496 0.352867 -0.417423 0
M  V30 13 C -2.040650 0.852771 0.731588 0
M  V30 14 C -3.324198 1.557541 0.716779 0
M  V30 15 C -4.119670 1.435896 1.838723 0
M  V30 16 C -5.330389 2.112146 1.806171 0
M  V30 17 C -5.718105 2.863888 0.714778 0
M  V30 18 O -6.934809 3.520325 0.728358 0
M  V30 19 C -4.863438 2.943448 -0.387230 0
M  V30 20 C -3.629076 2.284397 -0.415647 0
M  V30 21 C -1.383877 0.679484 1.934510 0
M  V30 22 C -0.173635 0.018602 1.956922 0
M  V30 23 C 0.435166 -0.491808 0.830547 0
M  V30 24 Se 5.136523 -2.098857 0.006193 0 VAL=2
M  V30 25 H 8.070332 -4.280710 1.352855 0
M  V30 26 H 7.382816 -5.126607 -0.054500 0
M  V30 27 H 8.011311 -3.376745 -0.192568 0
M  V30 28 H 5.756631 -4.759047 2.532738 0
M  V30 29 H 3.573835 -3.590897 2.976718 0
M  V30 30 H 2.298327 -1.236665 2.557740 0
M  V30 31 H 0.347918 -0.956487 -2.443543 0
M  V30 32 H -1.985889 0.497588 -1.348442 0
M  V30 33 H -3.812248 0.847067 2.689380 0
M  V30 34 H -6.021905 2.065316 2.661925 0
M  V30 35 H -7.782488 3.071313 1.083912 0
M  V30 36 H -5.139166 3.525287 -1.259209 0
M  V30 37 H -2.974293 2.350777 -1.269861 0
M  V30 38 H -1.791879 1.047492 2.866940 0
M  V30 39 H 0.350840 -0.122401 2.890501 0
M  V30 END ATOM
M  V30 BEGIN BOND
M  V30 1 1 1 2
M  V30 2 2 2 3
M  V30 3 1 3 4
M  V30 4 2 4 5
M  V30 5 1 5 6
M  V30 6 2 6 7
M  V30 7 1 7 8
M  V30 8 2 8 9
M  V30 9 1 8 10
M  V30 10 1 10 11
M  V30 11 2 11 12
M  V30 12 1 12 13
M  V30 13 1 13 14
M  V30 14 2 14 15
M  V30 15 1 15 16
M  V30 16 2 16 17
M  V30 17 1 17 18
M  V30 18 1 17 19
M  V30 19 2 19 20
M  V30 20 2 13 21
M  V30 21 1 21 22
M  V30 22 2 22 23
M  V30 23 1 5 24
M  V30 24 1 24 2
M  V30 25 1 23 7
M  V30 26 1 23 11
M  V30 27 1 20 14
M  V30 28 1 1 25
M  V30 29 1 1 26
M  V30 30 1 1 27
M  V30 31 1 3 28
M  V30 32 1 4 29
M  V30 33 1 6 30
M  V30 34 1 10 31
M  V30 35 1 12 32
M  V30 36 1 15 33
M  V30 37 1 16 34
M  V30 38 1 18 35
M  V30 39 1 19 36
M  V30 40 1 20 37
M  V30 41 1 21 38
M  V30 42 1 22 39
M  V30 END BOND
M  V30 END CTAB
M  END
>  <Dataset>  (52) 
ChEMBL_Kinases

>  <Ligand_Instance>  (52) 
nan

>  <PDB_ID>  (52) 
nan

>  <Standardized_SMILES>  (52) 
Cc1ccc(/C=C2\C(=O)Nc3cc(-c4ccc(O)cc4)ccc32)[se]1

>  <Name>  (52) 
nan

>  <Pocket>  (52) 
nan

>  <ATP_Site>  (52) 
nan

>  <Peripheral>  (52) 
nan

>  <Num_H_Atoms_ProtBoundConf>  (52) 
nan

>  <Num_Resolved_Atoms>  (52) 
nan

>  <Num_Not_Resolved_Atoms>  (52) 
nan

$$$$
CHEMBL1223267
     RDKit          3D

  0  0  0  0  0  0  0  0  0  0999 V3000
M  V30 BEGIN CTAB
M  V30 COUNTS 42 45 0 0 0
M  V30 BEGIN ATOM
M  V30 1 C 3.471749 -7.571846 0.468029 0
M  V30 2 C 2.682649 -6.340283 0.466162 0
M  V30 3 Se 2.746374 -4.710147 1.640654 0 VAL=2
M  V30 4 C 1.337798 -3.877097 0.702760 0
M  V30 5 C 0.946729 -2.597893 1.187628 0
M  V30 6 C 0.772373 -1.472213 0.516946 0
M  V30 7 C 0.957444 -1.311081 -0.902169 0
M  V30 8 O 1.323781 -2.204770 -1.702695 0
M  V30 9 N 0.661425 0.020462 -1.245781 0
M  V30 10 C 0.285426 0.715868 -0.042539 0
M  V30 11 C -0.095916 2.039738 0.160449 0
M  V30 12 C -0.398937 2.391296 1.476948 0
M  V30 13 C -0.792191 3.801956 1.608885 0
M  V30 14 C -0.272302 4.785520 0.787367 0
M  V30 15 C -0.682512 6.089443 0.960061 0
M  V30 16 C -1.593569 6.462568 1.920909 0
M  V30 17 O -2.107365 7.688598 2.229725 0
M  V30 18 C -2.102421 5.452614 2.735839 0
M  V30 19 C -1.709223 4.129539 2.586662 0
M  V30 20 C -0.341012 1.522483 2.547219 0
M  V30 21 C 0.043355 0.231065 2.269503 0
M  V30 22 C 0.355607 -0.183442 0.998215 0
M  V30 23 C 1.024926 -4.781868 -0.243226 0
M  V30 24 C 1.618102 -5.988737 -0.430098 0
M  V30 25 C 1.187295 -6.879751 -1.495291 0
M  V30 26 O 0.266119 -6.633770 -2.310453 0
M  V30 27 O 1.813004 -8.098744 -1.655370 0
M  V30 28 H 3.985795 -7.681080 -0.507989 0
M  V30 29 H 4.278572 -7.550111 1.226293 0
M  V30 30 H 2.835007 -8.451911 0.686429 0
M  V30 31 H 0.747585 -2.484013 2.268952 0
M  V30 32 H 0.720807 0.390879 -2.234164 0
M  V30 33 H -0.140519 2.708124 -0.666140 0
M  V30 34 H 0.442069 4.541876 0.022971 0
M  V30 35 H -0.327768 6.921776 0.363241 0
M  V30 36 H -2.183665 8.069204 3.163135 0
M  V30 37 H -2.828355 5.595685 3.537567 0
M  V30 38 H -2.098820 3.329092 3.218088 0
M  V30 39 H -0.593976 1.880233 3.537773 0
M  V30 40 H 0.079047 -0.438947 3.140258 0
M  V30 41 H 0.200947 -4.412900 -0.834329 0
M  V30 42 H 1.349457 -8.889960 -2.126710 0
M  V30 END ATOM
M  V30 BEGIN BOND
M  V30 1 1 1 2
M  V30 2 1 2 3
M  V30 3 1 3 4
M  V30 4 1 4 5
M  V30 5 2 5 6
M  V30 6 1 6 7
M  V30 7 2 7 8
M  V30 8 1 7 9
M  V30 9 1 9 10
M  V30 10 2 10 11
M  V30 11 1 11 12
M  V30 12 1 12 13
M  V30 13 2 13 14
M  V30 14 1 14 15
M  V30 15 2 15 16
M  V30 16 1 16 17
M  V30 17 1 16 18
M  V30 18 2 18 19
M  V30 19 2 12 20
M  V30 20 1 20 21
M  V30 21 2 21 22
M  V30 22 2 4 23
M  V30 23 1 23 24
M  V30 24 1 24 25
M  V30 25 2 25 26
M  V30 26 1 25 27
M  V30 27 2 24 2
M  V30 28 1 22 6
M  V30 29 1 22 10
M  V30 30 1 19 13
M  V30 31 1 1 28
M  V30 32 1 1 29
M  V30 33 1 1 30
M  V30 34 1 5 31
M  V30 35 1 9 32
M  V30 36 1 11 33
M  V30 37 1 14 34
M  V30 38 1 15 35
M  V30 39 1 17 36
M  V30 40 1 18 37
M  V30 41 1 19 38
M  V30 42 1 20 39
M  V30 43 1 21 40
M  V30 44 1 23 41
M  V30 45 1 27 42
M  V30 END BOND
M  V30 END CTAB
M  END
>  <Dataset>  (53) 
ChEMBL_Kinases

>  <Ligand_Instance>  (53) 
nan

>  <PDB_ID>  (53) 
nan

>  <Standardized_SMILES>  (53) 
Cc1[se]c(/C=C2\C(=O)Nc3cc(-c4ccc(O)cc4)ccc32)cc1C(=O)O

>  <Name>  (53) 
nan

>  <Pocket>  (53) 
nan

>  <ATP_Site>  (53) 
nan

>  <Peripheral>  (53) 
nan

>  <Num_H_Atoms_ProtBoundConf>  (53) 
nan

>  <Num_Resolved_Atoms>  (53) 
nan

>  <Num_Not_Resolved_Atoms>  (53) 
nan

$$$$
CHEMBL1223478
     RDKit          3D

  0  0  0  0  0  0  0  0  0  0999 V3000
M  V30 BEGIN CTAB
M  V30 COUNTS 59 63 0 0 0
M  V30 BEGIN ATOM
M  V30 1 C -0.704631 -6.466675 0.630060 0
M  V30 2 C -0.123650 -5.135774 0.783234 0
M  V30 3 Se -1.072067 -3.827580 1.940837 0 VAL=2
M  V30 4 C 0.305442 -2.440665 1.577758 0
M  V30 5 C 0.100396 -1.199781 2.226377 0
M  V30 6 C 0.142345 0.039746 1.768116 0
M  V30 7 C 0.434041 0.354997 0.385568 0
M  V30 8 O 0.680516 -0.470005 -0.525390 0
M  V30 9 N 0.379058 1.774631 0.287085 0
M  V30 10 C 0.063301 2.342481 1.558422 0
M  V30 11 C -0.120824 3.628462 2.036916 0
M  V30 12 C -0.437754 3.872471 3.367529 0
M  V30 13 C -0.654767 5.213576 3.893955 0
M  V30 14 C -0.404059 5.704550 5.153038 0
M  V30 15 C -0.680928 7.000535 5.489543 0
M  V30 16 C -1.226585 7.910895 4.606793 0
M  V30 17 O -1.523228 9.218081 4.893694 0
M  V30 18 C -1.490736 7.447787 3.329327 0
M  V30 19 C -1.208308 6.137542 2.997474 0
M  V30 20 C -0.580670 2.807426 4.273804 0
M  V30 21 C -0.391946 1.540905 3.768319 0
M  V30 22 C -0.078945 1.301372 2.449355 0
M  V30 23 C 1.145453 -3.083965 0.761602 0
M  V30 24 C 0.971428 -4.368289 0.361571 0
M  V30 25 C 1.778227 -5.200586 -0.519144 0
M  V30 26 O 2.968831 -5.639848 -0.321541 0
M  V30 27 N 1.278466 -5.647743 -1.801668 0
M  V30 28 C 1.830751 -6.451815 -2.839260 0
M  V30 29 C 0.925085 -6.562544 -4.032709 0
M  V30 30 C 0.697860 -5.314475 -4.808210 0
M  V30 31 N 0.154116 -4.185677 -4.126043 0
M  V30 32 C -1.130505 -3.841862 -3.928221 0
M  V30 33 C -1.069695 -2.632226 -3.241990 0
M  V30 34 N 0.218865 -2.286325 -3.048288 0
M  V30 35 C 1.000536 -3.245908 -3.594270 0
M  V30 36 H -1.400440 -6.477159 -0.235411 0
M  V30 37 H 0.150839 -7.179880 0.496591 0
M  V30 38 H -1.191022 -6.780327 1.578622 0
M  V30 39 H -0.134441 -1.226617 3.309876 0
M  V30 40 H 0.547724 2.297075 -0.589613 0
M  V30 41 H -0.014654 4.479804 1.340787 0
M  V30 42 H 0.024843 4.968757 5.827474 0
M  V30 43 H -0.471411 7.351358 6.492248 0
M  V30 44 H -2.446658 9.581026 5.038510 0
M  V30 45 H -1.926755 8.102943 2.560106 0
M  V30 46 H -1.443453 5.834652 1.966467 0
M  V30 47 H -0.826454 3.024368 5.304896 0
M  V30 48 H -0.505377 0.724071 4.483182 0
M  V30 49 H 2.024527 -2.573250 0.401271 0
M  V30 50 H 0.277578 -5.315034 -1.943170 0
M  V30 51 H 2.053363 -7.513640 -2.529321 0
M  V30 52 H 2.802176 -6.025994 -3.217958 0
M  V30 53 H 1.175325 -7.439171 -4.671361 0
M  V30 54 H -0.103247 -6.846826 -3.616915 0
M  V30 55 H 0.084561 -5.557120 -5.731241 0
M  V30 56 H 1.702257 -5.052210 -5.265730 0
M  V30 57 H -2.019179 -4.372698 -4.229787 0
M  V30 58 H -1.950293 -2.079027 -2.925208 0
M  V30 59 H 2.083643 -3.233749 -3.588410 0
M  V30 END ATOM
M  V30 BEGIN BOND
M  V30 1 1 1 2
M  V30 2 1 2 3
M  V30 3 1 3 4
M  V30 4 1 4 5
M  V30 5 2 5 6
M  V30 6 1 6 7
M  V30 7 2 7 8
M  V30 8 1 7 9
M  V30 9 1 9 10
M  V30 10 2 10 11
M  V30 11 1 11 12
M  V30 12 1 12 13
M  V30 13 2 13 14
M  V30 14 1 14 15
M  V30 15 2 15 16
M  V30 16 1 16 17
M  V30 17 1 16 18
M  V30 18 2 18 19
M  V30 19 2 12 20
M  V30 20 1 20 21
M  V30 21 2 21 22
M  V30 22 2 4 23
M  V30 23 1 23 24
M  V30 24 1 24 25
M  V30 25 2 25 26
M  V30 26 1 25 27
M  V30 27 1 27 28
M  V30 28 1 28 29
M  V30 29 1 29 30
M  V30 30 1 30 31
M  V30 31 1 31 32
M  V30 32 2 32 33
M  V30 33 1 33 34
M  V30 34 2 34 35
M  V30 35 2 24 2
M  V30 36 1 35 31
M  V30 37 1 22 6
M  V30 38 1 22 10
M  V30 39 1 19 13
M  V30 40 1 1 36
M  V30 41 1 1 37
M  V30 42 1 1 38
M  V30 43 1 5 39
M  V30 44 1 9 40
M  V30 45 1 11 41
M  V30 46 1 14 42
M  V30 47 1 15 43
M  V30 48 1 17 44
M  V30 49 1 18 45
M  V30 50 1 19 46
M  V30 51 1 20 47
M  V30 52 1 21 48
M  V30 53 1 23 49
M  V30 54 1 27 50
M  V30 55 1 28 51
M  V30 56 1 28 52
M  V30 57 1 29 53
M  V30 58 1 29 54
M  V30 59 1 30 55
M  V30 60 1 30 56
M  V30 61 1 32 57
M  V30 62 1 33 58
M  V30 63 1 35 59
M  V30 END BOND
M  V30 END CTAB
M  END
>  <Dataset>  (54) 
ChEMBL_Kinases

>  <Ligand_Instance>  (54) 
nan

>  <PDB_ID>  (54) 
nan

>  <Standardized_SMILES>  (54) 
Cc1[se]c(/C=C2\C(=O)Nc3cc(-c4ccc(O)cc4)ccc32)cc1C(=O)NCCCn1ccnc1

>  <Name>  (54) 
nan

>  <Pocket>  (54) 
nan

>  <ATP_Site>  (54) 
nan

>  <Peripheral>  (54) 
nan

>  <Num_H_Atoms_ProtBoundConf>  (54) 
nan

>  <Num_Resolved_Atoms>  (54) 
nan

>  <Num_Not_Resolved_Atoms>  (54) 
nan

$$$$
CHEMBL1223338
     RDKit          3D

  0  0  0  0  0  0  0  0  0  0999 V3000
M  V30 BEGIN CTAB
M  V30 COUNTS 60 63 0 0 0
M  V30 BEGIN ATOM
M  V30 1 C 7.234710 -0.141629 3.164773 0
M  V30 2 C 7.517536 1.333890 3.073558 0
M  V30 3 N 7.083869 1.915993 1.821811 0
M  V30 4 C 7.348202 3.314620 1.713302 0
M  V30 5 C 6.545530 4.186488 2.636054 0
M  V30 6 C 5.688405 1.596391 1.675280 0
M  V30 7 C 5.073965 2.135456 0.398543 0
M  V30 8 N 3.680385 1.736038 0.391284 0
M  V30 9 C 2.756279 2.118743 1.359873 0
M  V30 10 O 3.030927 2.843571 2.325480 0
M  V30 11 C 1.367352 1.665647 1.280613 0
M  V30 12 C 0.306877 1.875347 2.055458 0
M  V30 13 C -0.911534 1.325471 1.761502 0
M  V30 14 C -1.107405 0.532231 0.659208 0
M  V30 15 C -2.347182 -0.068448 0.264197 0
M  V30 16 C -2.482432 -1.297192 -0.165610 0
M  V30 17 C -1.455323 -2.293080 -0.334043 0
M  V30 18 O -0.245322 -2.130854 -0.090594 0
M  V30 19 N -2.003832 -3.507423 -0.820990 0
M  V30 20 C -3.418112 -3.249225 -0.956597 0
M  V30 21 C -4.446988 -4.065207 -1.383147 0
M  V30 22 C -5.752303 -3.625301 -1.438245 0
M  V30 23 C -6.844065 -4.494552 -1.879468 0
M  V30 24 C -8.002759 -4.132762 -2.538904 0
M  V30 25 C -8.925738 -5.095031 -2.867507 0
M  V30 26 C -8.719812 -6.414712 -2.552702 0
M  V30 27 O -9.654807 -7.404145 -2.882785 0
M  V30 28 C -7.570494 -6.837154 -1.888774 0
M  V30 29 C -6.642312 -5.839074 -1.563383 0
M  V30 30 C -6.053090 -2.323605 -1.055735 0
M  V30 31 C -5.028438 -1.486656 -0.622785 0
M  V30 32 C -3.717420 -1.955295 -0.575991 0
M  V30 33 Se 0.733485 0.561026 -0.097484 0 VAL=2
M  V30 34 H 7.909547 -0.563679 3.944624 0
M  V30 35 H 6.207348 -0.393033 3.483821 0
M  V30 36 H 7.498301 -0.647963 2.213378 0
M  V30 37 H 8.617854 1.469705 3.138942 0
M  V30 38 H 7.080528 1.856505 3.949642 0
M  V30 39 H 8.427910 3.469348 1.997984 0
M  V30 40 H 7.186271 3.611224 0.646221 0
M  V30 41 H 7.077551 4.329567 3.614690 0
M  V30 42 H 6.437502 5.222584 2.223004 0
M  V30 43 H 5.547598 3.786068 2.878682 0
M  V30 44 H 5.089893 1.830490 2.556385 0
M  V30 45 H 5.657395 0.470761 1.581138 0
M  V30 46 H 5.634063 1.736610 -0.451418 0
M  V30 47 H 5.111464 3.253408 0.408523 0
M  V30 48 H 3.370356 1.125577 -0.394500 0
M  V30 49 H 0.466311 2.505014 2.928140 0
M  V30 50 H -1.776368 1.520551 2.430775 0
M  V30 51 H -3.184919 0.604542 0.350542 0
M  V30 52 H -1.497103 -4.384124 -1.031347 0
M  V30 53 H -4.189140 -5.074913 -1.676377 0
M  V30 54 H -8.086668 -3.081950 -2.748105 0
M  V30 55 H -9.834156 -4.769526 -3.390903 0
M  V30 56 H -10.368511 -7.546381 -2.165429 0
M  V30 57 H -7.444852 -7.874961 -1.659699 0
M  V30 58 H -5.769743 -6.219919 -1.049715 0
M  V30 59 H -7.036721 -1.892561 -1.064489 0
M  V30 60 H -5.213193 -0.467478 -0.315834 0
M  V30 END ATOM
M  V30 BEGIN BOND
M  V30 1 1 1 2
M  V30 2 1 2 3
M  V30 3 1 3 4
M  V30 4 1 4 5
M  V30 5 1 3 6
M  V30 6 1 6 7
M  V30 7 1 7 8
M  V30 8 1 8 9
M  V30 9 2 9 10
M  V30 10 1 9 11
M  V30 11 2 11 12
M  V30 12 1 12 13
M  V30 13 2 13 14
M  V30 14 1 14 15
M  V30 15 2 15 16
M  V30 16 1 16 17
M  V30 17 2 17 18
M  V30 18 1 17 19
M  V30 19 1 19 20
M  V30 20 2 20 21
M  V30 21 1 21 22
M  V30 22 1 22 23
M  V30 23 2 23 24
M  V30 24 1 24 25
M  V30 25 2 25 26
M  V30 26 1 26 27
M  V30 27 1 26 28
M  V30 28 2 28 29
M  V30 29 2 22 30
M  V30 30 1 30 31
M  V30 31 2 31 32
M  V30 32 1 14 33
M  V30 33 1 33 11
M  V30 34 1 32 16
M  V30 35 1 32 20
M  V30 36 1 29 23
M  V30 37 1 1 34
M  V30 38 1 1 35
M  V30 39 1 1 36
M  V30 40 1 2 37
M  V30 41 1 2 38
M  V30 42 1 4 39
M  V30 43 1 4 40
M  V30 44 1 5 41
M  V30 45 1 5 42
M  V30 46 1 5 43
M  V30 47 1 6 44
M  V30 48 1 6 45
M  V30 49 1 7 46
M  V30 50 1 7 47
M  V30 51 1 8 48
M  V30 52 1 12 49
M  V30 53 1 13 50
M  V30 54 1 15 51
M  V30 55 1 19 52
M  V30 56 1 21 53
M  V30 57 1 24 54
M  V30 58 1 25 55
M  V30 59 1 27 56
M  V30 60 1 28 57
M  V30 61 1 29 58
M  V30 62 1 30 59
M  V30 63 1 31 60
M  V30 END BOND
M  V30 END CTAB
M  END
>  <Dataset>  (55) 
ChEMBL_Kinases

>  <Ligand_Instance>  (55) 
nan

>  <PDB_ID>  (55) 
nan

>  <Standardized_SMILES>  (55) 
CCN(CC)CCNC(=O)c1ccc(/C=C2\C(=O)Nc3cc(-c4ccc(O)cc4)ccc32)[se]1

>  <Name>  (55) 
nan

>  <Pocket>  (55) 
nan

>  <ATP_Site>  (55) 
nan

>  <Peripheral>  (55) 
nan

>  <Num_H_Atoms_ProtBoundConf>  (55) 
nan

>  <Num_Resolved_Atoms>  (55) 
nan

>  <Num_Not_Resolved_Atoms>  (55) 
nan

$$$$
CHEMBL1223339
     RDKit          3D

  0  0  0  0  0  0  0  0  0  0999 V3000
M  V30 BEGIN CTAB
M  V30 COUNTS 58 62 0 0 0
M  V30 BEGIN ATOM
M  V30 1 O 1.572659 -2.050350 1.842574 0
M  V30 2 C 2.172329 -0.963469 1.786758 0
M  V30 3 N 3.511596 -0.650775 2.063585 0
M  V30 4 C 3.678816 0.745158 1.842550 0
M  V30 5 C 4.826565 1.499883 1.987370 0
M  V30 6 C 4.842788 2.858956 1.734738 0
M  V30 7 C 6.095395 3.585980 1.909483 0
M  V30 8 C 7.274555 2.879187 1.644118 0
M  V30 9 C 8.505722 3.500547 1.788249 0
M  V30 10 C 8.605563 4.811912 2.190555 0
M  V30 11 O 9.803197 5.487362 2.352753 0
M  V30 12 C 7.422442 5.493421 2.448277 0
M  V30 13 C 6.163148 4.903575 2.315024 0
M  V30 14 C 3.651858 3.427427 1.329298 0
M  V30 15 C 2.488487 2.689267 1.177192 0
M  V30 16 C 2.486288 1.321618 1.434956 0
M  V30 17 C 1.477454 0.240529 1.385378 0
M  V30 18 C 0.263304 0.505084 1.022940 0
M  V30 19 C -0.749479 -0.567073 0.956892 0
M  V30 20 C -2.094647 -0.405918 1.437288 0
M  V30 21 C -2.974320 -1.433648 1.323230 0
M  V30 22 C -2.679455 -2.651060 0.770839 0
M  V30 23 C -3.327682 -3.879217 0.511126 0
M  V30 24 O -2.744404 -4.840743 -0.044591 0
M  V30 25 N -4.688539 -4.029035 0.894643 0
M  V30 26 C -5.392534 -5.260440 0.654001 0
M  V30 27 C -5.504523 -5.669153 -0.781315 0
M  V30 28 N -6.222474 -4.750807 -1.625049 0
M  V30 29 C -5.492996 -3.529120 -1.794712 0
M  V30 30 C -6.210914 -2.934188 -3.016796 0
M  V30 31 C -6.156235 -4.157444 -3.939939 0
M  V30 32 C -6.276771 -5.292179 -2.974283 0
M  V30 33 Se -0.798215 -2.412710 0.274260 0 VAL=2
M  V30 34 H 4.190440 -1.376160 2.369661 0
M  V30 35 H 5.753885 1.032318 2.308844 0
M  V30 36 H 7.342174 1.845893 1.320767 0
M  V30 37 H 9.440507 2.977747 1.589221 0
M  V30 38 H 10.656268 5.166429 1.918080 0
M  V30 39 H 7.438550 6.530340 2.769151 0
M  V30 40 H 5.250505 5.443151 2.518861 0
M  V30 41 H 3.637598 4.480890 1.125985 0
M  V30 42 H 1.563680 3.134136 0.861211 0
M  V30 43 H -0.154965 1.450784 0.736198 0
M  V30 44 H -2.391260 0.532019 1.883855 0
M  V30 45 H -4.000732 -1.408678 1.653818 0
M  V30 46 H -5.172259 -3.208286 1.369057 0
M  V30 47 H -6.443922 -5.134360 1.023456 0
M  V30 48 H -4.939065 -6.096233 1.265268 0
M  V30 49 H -5.934303 -6.713904 -0.861690 0
M  V30 50 H -4.485775 -5.798895 -1.258154 0
M  V30 51 H -5.569617 -2.819941 -0.941346 0
M  V30 52 H -4.476474 -3.746213 -2.125946 0
M  V30 53 H -5.662081 -2.091997 -3.445754 0
M  V30 54 H -7.244846 -2.690989 -2.713803 0
M  V30 55 H -5.116157 -4.110424 -4.381327 0
M  V30 56 H -6.904217 -4.126440 -4.736411 0
M  V30 57 H -5.363933 -5.938730 -3.086881 0
M  V30 58 H -7.198373 -5.842886 -3.176250 0
M  V30 END ATOM
M  V30 BEGIN BOND
M  V30 1 2 1 2
M  V30 2 1 2 3
M  V30 3 1 3 4
M  V30 4 2 4 5
M  V30 5 1 5 6
M  V30 6 1 6 7
M  V30 7 2 7 8
M  V30 8 1 8 9
M  V30 9 2 9 10
M  V30 10 1 10 11
M  V30 11 1 10 12
M  V30 12 2 12 13
M  V30 13 2 6 14
M  V30 14 1 14 15
M  V30 15 2 15 16
M  V30 16 1 16 17
M  V30 17 2 17 18
M  V30 18 1 18 19
M  V30 19 2 19 20
M  V30 20 1 20 21
M  V30 21 2 21 22
M  V30 22 1 22 23
M  V30 23 2 23 24
M  V30 24 1 23 25
M  V30 25 1 25 26
M  V30 26 1 26 27
M  V30 27 1 27 28
M  V30 28 1 28 29
M  V30 29 1 29 30
M  V30 30 1 30 31
M  V30 31 1 31 32
M  V30 32 1 22 33
M  V30 33 1 17 2
M  V30 34 1 33 19
M  V30 35 1 16 4
M  V30 36 1 32 28
M  V30 37 1 13 7
M  V30 38 1 3 34
M  V30 39 1 5 35
M  V30 40 1 8 36
M  V30 41 1 9 37
M  V30 42 1 11 38
M  V30 43 1 12 39
M  V30 44 1 13 40
M  V30 45 1 14 41
M  V30 46 1 15 42
M  V30 47 1 18 43
M  V30 48 1 20 44
M  V30 49 1 21 45
M  V30 50 1 25 46
M  V30 51 1 26 47
M  V30 52 1 26 48
M  V30 53 1 27 49
M  V30 54 1 27 50
M  V30 55 1 29 51
M  V30 56 1 29 52
M  V30 57 1 30 53
M  V30 58 1 30 54
M  V30 59 1 31 55
M  V30 60 1 31 56
M  V30 61 1 32 57
M  V30 62 1 32 58
M  V30 END BOND
M  V30 END CTAB
M  END
>  <Dataset>  (56) 
ChEMBL_Kinases

>  <Ligand_Instance>  (56) 
nan

>  <PDB_ID>  (56) 
nan

>  <Standardized_SMILES>  (56) 
O=C1Nc2cc(-c3ccc(O)cc3)ccc2/C1=C/c1ccc(C(=O)NCCN2CCCC2)[se]1

>  <Name>  (56) 
nan

>  <Pocket>  (56) 
nan

>  <ATP_Site>  (56) 
nan

>  <Peripheral>  (56) 
nan

>  <Num_H_Atoms_ProtBoundConf>  (56) 
nan

>  <Num_Resolved_Atoms>  (56) 
nan

>  <Num_Not_Resolved_Atoms>  (56) 
nan

$$$$
CHEMBL1223340
     RDKit          3D

  0  0  0  0  0  0  0  0  0  0999 V3000
M  V30 BEGIN CTAB
M  V30 COUNTS 59 63 0 0 0
M  V30 BEGIN ATOM
M  V30 1 O 2.012315 -1.570115 0.879344 0
M  V30 2 C 2.344063 -0.404293 1.124001 0
M  V30 3 N 3.708717 -0.018817 1.042528 0
M  V30 4 C 3.773493 1.362435 1.378325 0
M  V30 5 C 4.814748 2.264425 1.462942 0
M  V30 6 C 4.628626 3.602405 1.816439 0
M  V30 7 C 5.845240 4.405182 1.850799 0
M  V30 8 C 5.882163 5.766027 1.556126 0
M  V30 9 C 7.066685 6.432522 1.609259 0
M  V30 10 C 8.281887 5.857484 1.942048 0
M  V30 11 O 9.443657 6.614326 1.969994 0
M  V30 12 C 8.245404 4.518558 2.232060 0
M  V30 13 C 7.054409 3.827343 2.183420 0
M  V30 14 C 3.348943 4.034624 2.091112 0
M  V30 15 C 2.271546 3.145213 2.013794 0
M  V30 16 C 2.494275 1.824029 1.659585 0
M  V30 17 C 1.534504 0.741637 1.514364 0
M  V30 18 C 0.242737 0.672916 1.645655 0
M  V30 19 C -0.633373 -0.468881 1.443567 0
M  V30 20 C -0.769740 -1.339230 0.370280 0
M  V30 21 C -1.640685 -2.366174 0.424687 0
M  V30 22 C -2.411846 -2.591728 1.512009 0
M  V30 23 C -3.405153 -3.596160 1.833522 0
M  V30 24 O -3.949501 -3.539950 2.981236 0
M  V30 25 N -3.684182 -4.557955 0.836674 0
M  V30 26 C -4.668009 -5.574556 1.132021 0
M  V30 27 C -4.787088 -6.468137 -0.088959 0
M  V30 28 N -5.205329 -5.806835 -1.268625 0
M  V30 29 C -6.535335 -5.319248 -1.288945 0
M  V30 30 C -6.826060 -4.378000 -2.423696 0
M  V30 31 C -5.993232 -4.639571 -3.635377 0
M  V30 32 C -4.607782 -5.123504 -3.356682 0
M  V30 33 O -4.302529 -5.195306 -2.006149 0
M  V30 34 Se -1.872356 -1.179249 2.658959 0 VAL=2
M  V30 35 H 4.547583 -0.619472 0.784194 0
M  V30 36 H 5.786857 1.859016 1.234136 0
M  V30 37 H 4.937606 6.226293 1.294881 0
M  V30 38 H 7.013834 7.503304 1.362006 0
M  V30 39 H 9.946265 6.781572 1.082971 0
M  V30 40 H 9.194751 4.041301 2.497397 0
M  V30 41 H 7.155582 2.767170 2.436366 0
M  V30 42 H 3.238390 5.074653 2.361948 0
M  V30 43 H 1.271189 3.492340 2.231319 0
M  V30 44 H -0.242802 1.614850 1.950531 0
M  V30 45 H -0.164230 -1.159022 -0.538294 0
M  V30 46 H -1.784584 -3.076914 -0.387035 0
M  V30 47 H -3.184588 -4.523090 -0.080780 0
M  V30 48 H -5.675191 -5.152842 1.343160 0
M  V30 49 H -4.408247 -6.163017 2.035897 0
M  V30 50 H -3.769298 -6.929292 -0.220566 0
M  V30 51 H -5.491076 -7.318696 0.086752 0
M  V30 52 H -7.280849 -6.145810 -1.232918 0
M  V30 53 H -6.698388 -4.732953 -0.353141 0
M  V30 54 H -6.749137 -3.315777 -2.133094 0
M  V30 55 H -7.907991 -4.523342 -2.699417 0
M  V30 56 H -5.910975 -3.680438 -4.193403 0
M  V30 57 H -6.561048 -5.333798 -4.311631 0
M  V30 58 H -4.472567 -6.146226 -3.805662 0
M  V30 59 H -3.823429 -4.486165 -3.832388 0
M  V30 END ATOM
M  V30 BEGIN BOND
M  V30 1 2 1 2
M  V30 2 1 2 3
M  V30 3 1 3 4
M  V30 4 2 4 5
M  V30 5 1 5 6
M  V30 6 1 6 7
M  V30 7 2 7 8
M  V30 8 1 8 9
M  V30 9 2 9 10
M  V30 10 1 10 11
M  V30 11 1 10 12
M  V30 12 2 12 13
M  V30 13 2 6 14
M  V30 14 1 14 15
M  V30 15 2 15 16
M  V30 16 1 16 17
M  V30 17 2 17 18
M  V30 18 1 18 19
M  V30 19 2 19 20
M  V30 20 1 20 21
M  V30 21 2 21 22
M  V30 22 1 22 23
M  V30 23 2 23 24
M  V30 24 1 23 25
M  V30 25 1 25 26
M  V30 26 1 26 27
M  V30 27 1 27 28
M  V30 28 1 28 29
M  V30 29 1 29 30
M  V30 30 1 30 31
M  V30 31 1 31 32
M  V30 32 1 32 33
M  V30 33 1 22 34
M  V30 34 1 17 2
M  V30 35 1 34 19
M  V30 36 1 16 4
M  V30 37 1 33 28
M  V30 38 1 13 7
M  V30 39 1 3 35
M  V30 40 1 5 36
M  V30 41 1 8 37
M  V30 42 1 9 38
M  V30 43 1 11 39
M  V30 44 1 12 40
M  V30 45 1 13 41
M  V30 46 1 14 42
M  V30 47 1 15 43
M  V30 48 1 18 44
M  V30 49 1 20 45
M  V30 50 1 21 46
M  V30 51 1 25 47
M  V30 52 1 26 48
M  V30 53 1 26 49
M  V30 54 1 27 50
M  V30 55 1 27 51
M  V30 56 1 29 52
M  V30 57 1 29 53
M  V30 58 1 30 54
M  V30 59 1 30 55
M  V30 60 1 31 56
M  V30 61 1 31 57
M  V30 62 1 32 58
M  V30 63 1 32 59
M  V30 END BOND
M  V30 END CTAB
M  END
>  <Dataset>  (57) 
ChEMBL_Kinases

>  <Ligand_Instance>  (57) 
nan

>  <PDB_ID>  (57) 
nan

>  <Standardized_SMILES>  (57) 
O=C1Nc2cc(-c3ccc(O)cc3)ccc2/C1=C/c1ccc(C(=O)NCCN2CCCCO2)[se]1

>  <Name>  (57) 
nan

>  <Pocket>  (57) 
nan

>  <ATP_Site>  (57) 
nan

>  <Peripheral>  (57) 
nan

>  <Num_H_Atoms_ProtBoundConf>  (57) 
nan

>  <Num_Resolved_Atoms>  (57) 
nan

>  <Num_Not_Resolved_Atoms>  (57) 
nan

$$$$
CHEMBL1223406
     RDKit          3D

  0  0  0  0  0  0  0  0  0  0999 V3000
M  V30 BEGIN CTAB
M  V30 COUNTS 56 60 0 0 0
M  V30 BEGIN ATOM
M  V30 1 O 1.493211 -1.885382 0.688445 0
M  V30 2 C 2.017152 -0.775768 0.939834 0
M  V30 3 N 3.365433 -0.331084 0.922155 0
M  V30 4 C 3.438236 1.046868 1.293241 0
M  V30 5 C 4.549053 1.857362 1.399521 0
M  V30 6 C 4.370080 3.171226 1.778463 0
M  V30 7 C 5.559348 4.018738 1.882141 0
M  V30 8 C 5.404908 5.373942 1.604011 0
M  V30 9 C 6.459425 6.255313 1.670069 0
M  V30 10 C 7.715095 5.801121 2.020874 0
M  V30 11 O 8.787133 6.674043 2.091987 0
M  V30 12 C 7.810392 4.451973 2.285236 0
M  V30 13 C 6.784323 3.517230 2.234982 0
M  V30 14 C 3.098609 3.690032 2.053527 0
M  V30 15 C 2.009577 2.820716 1.928642 0
M  V30 16 C 2.137171 1.499195 1.552639 0
M  V30 17 C 1.229615 0.378873 1.339246 0
M  V30 18 C -0.050967 0.501993 1.511859 0
M  V30 19 C -1.014415 -0.589805 1.321818 0
M  V30 20 C -2.252926 -0.402309 0.661623 0
M  V30 21 C -3.085297 -1.454067 0.544952 0
M  V30 22 C -2.814721 -2.682484 1.019014 0
M  V30 23 C -3.540058 -3.932886 1.005954 0
M  V30 24 O -2.977702 -4.921819 1.592852 0
M  V30 25 N -4.792641 -3.967726 0.355472 0
M  V30 26 C -5.566225 -5.187677 0.307658 0
M  V30 27 C -4.817256 -6.306062 -0.378926 0
M  V30 28 C -4.450802 -5.991156 -1.792859 0
M  V30 29 N -5.594442 -5.726701 -2.651154 0
M  V30 30 C -6.254436 -6.647465 -3.354858 0
M  V30 31 C -7.295179 -6.087481 -4.074663 0
M  V30 32 N -7.242443 -4.758231 -3.774912 0
M  V30 33 C -6.220862 -4.576423 -2.926908 0
M  V30 34 Se -1.097551 -2.412901 1.787772 0 VAL=2
M  V30 35 H 4.136675 -0.985544 0.662069 0
M  V30 36 H 5.529154 1.435319 1.180842 0
M  V30 37 H 4.410640 5.739555 1.325437 0
M  V30 38 H 6.255766 7.308243 1.435589 0
M  V30 39 H 9.117171 7.204696 1.293104 0
M  V30 40 H 8.830756 4.136627 2.560030 0
M  V30 41 H 6.929083 2.488245 2.452007 0
M  V30 42 H 2.959766 4.719240 2.350612 0
M  V30 43 H 0.995401 3.176087 2.131367 0
M  V30 44 H -0.516558 1.448930 1.821235 0
M  V30 45 H -2.515421 0.593868 0.256327 0
M  V30 46 H -4.063099 -1.372063 0.041414 0
M  V30 47 H -5.155521 -3.079240 -0.096831 0
M  V30 48 H -5.948272 -5.533507 1.271548 0
M  V30 49 H -6.455159 -4.990363 -0.326846 0
M  V30 50 H -3.890781 -6.584800 0.161532 0
M  V30 51 H -5.437899 -7.240686 -0.418363 0
M  V30 52 H -3.808021 -5.091215 -1.885565 0
M  V30 53 H -3.883850 -6.806705 -2.279401 0
M  V30 54 H -6.093536 -7.721806 -3.434962 0
M  V30 55 H -8.066177 -6.417055 -4.751048 0
M  V30 56 H -5.867451 -3.654884 -2.466958 0
M  V30 END ATOM
M  V30 BEGIN BOND
M  V30 1 2 1 2
M  V30 2 1 2 3
M  V30 3 1 3 4
M  V30 4 2 4 5
M  V30 5 1 5 6
M  V30 6 1 6 7
M  V30 7 2 7 8
M  V30 8 1 8 9
M  V30 9 2 9 10
M  V30 10 1 10 11
M  V30 11 1 10 12
M  V30 12 2 12 13
M  V30 13 2 6 14
M  V30 14 1 14 15
M  V30 15 2 15 16
M  V30 16 1 16 17
M  V30 17 2 17 18
M  V30 18 1 18 19
M  V30 19 2 19 20
M  V30 20 1 20 21
M  V30 21 2 21 22
M  V30 22 1 22 23
M  V30 23 2 23 24
M  V30 24 1 23 25
M  V30 25 1 25 26
M  V30 26 1 26 27
M  V30 27 1 27 28
M  V30 28 1 28 29
M  V30 29 1 29 30
M  V30 30 2 30 31
M  V30 31 1 31 32
M  V30 32 2 32 33
M  V30 33 1 22 34
M  V30 34 1 17 2
M  V30 35 1 34 19
M  V30 36 1 16 4
M  V30 37 1 33 29
M  V30 38 1 13 7
M  V30 39 1 3 35
M  V30 40 1 5 36
M  V30 41 1 8 37
M  V30 42 1 9 38
M  V30 43 1 11 39
M  V30 44 1 12 40
M  V30 45 1 13 41
M  V30 46 1 14 42
M  V30 47 1 15 43
M  V30 48 1 18 44
M  V30 49 1 20 45
M  V30 50 1 21 46
M  V30 51 1 25 47
M  V30 52 1 26 48
M  V30 53 1 26 49
M  V30 54 1 27 50
M  V30 55 1 27 51
M  V30 56 1 28 52
M  V30 57 1 28 53
M  V30 58 1 30 54
M  V30 59 1 31 55
M  V30 60 1 33 56
M  V30 END BOND
M  V30 END CTAB
M  END
>  <Dataset>  (58) 
ChEMBL_Kinases

>  <Ligand_Instance>  (58) 
nan

>  <PDB_ID>  (58) 
nan

>  <Standardized_SMILES>  (58) 
O=C1Nc2cc(-c3ccc(O)cc3)ccc2/C1=C/c1ccc(C(=O)NCCCn2ccnc2)[se]1

>  <Name>  (58) 
nan

>  <Pocket>  (58) 
nan

>  <ATP_Site>  (58) 
nan

>  <Peripheral>  (58) 
nan

>  <Num_H_Atoms_ProtBoundConf>  (58) 
nan

>  <Num_Resolved_Atoms>  (58) 
nan

>  <Num_Not_Resolved_Atoms>  (58) 
nan

$$$$
CHEMBL1223407
     RDKit          3D

  0  0  0  0  0  0  0  0  0  0999 V3000
M  V30 BEGIN CTAB
M  V30 COUNTS 57 60 0 0 0
M  V30 BEGIN ATOM
M  V30 1 C 0.106320 -6.811259 0.635805 0
M  V30 2 C -0.024434 -5.364630 0.388031 0
M  V30 3 Se 1.238935 -4.229185 1.414885 0 VAL=2
M  V30 4 C 0.564976 -2.611764 0.692675 0
M  V30 5 C 0.742256 -1.180219 0.788890 0
M  V30 6 C 1.743692 -0.639083 1.434887 0
M  V30 7 C 2.818527 -1.249360 2.148215 0
M  V30 8 O 3.045356 -2.452255 2.298570 0
M  V30 9 N 3.673178 -0.282241 2.718446 0
M  V30 10 C 3.136969 1.002297 2.362395 0
M  V30 11 C 3.529652 2.318471 2.621018 0
M  V30 12 C 2.812613 3.395953 2.139318 0
M  V30 13 C 3.159893 4.799203 2.380024 0
M  V30 14 C 2.129293 5.739335 2.453042 0
M  V30 15 C 2.289823 7.110004 2.671340 0
M  V30 16 C 3.585456 7.560116 2.828536 0
M  V30 17 O 3.743701 8.906084 3.045076 0
M  V30 18 C 4.631607 6.684615 2.766776 0
M  V30 19 C 4.407863 5.356608 2.549552 0
M  V30 20 C 1.682799 3.202678 1.382153 0
M  V30 21 C 1.297758 1.917979 1.130609 0
M  V30 22 C 2.001068 0.807685 1.607073 0
M  V30 23 C -0.404327 -3.029863 -0.134946 0
M  V30 24 C -0.700862 -4.326423 -0.291028 0
M  V30 25 C -1.727769 -5.013256 -1.070451 0
M  V30 26 O -1.683775 -5.740327 -2.071719 0
M  V30 27 N -3.097097 -4.863684 -0.650783 0
M  V30 28 C -4.496405 -5.098723 -0.773604 0
M  V30 29 C -5.172114 -4.524363 -1.960244 0
M  V30 30 N -4.753630 -4.926162 -3.278403 0
M  V30 31 C -5.865948 -4.531983 -4.197374 0
M  V30 32 C -3.676324 -4.011509 -3.757880 0
M  V30 33 H -0.891503 -7.310036 0.433584 0
M  V30 34 H 0.934536 -7.287413 0.078397 0
M  V30 35 H 0.291147 -7.021710 1.717442 0
M  V30 36 H 0.085645 -0.441828 0.349519 0
M  V30 37 H 4.528150 -0.403379 3.289639 0
M  V30 38 H 4.408945 2.503279 3.217255 0
M  V30 39 H 1.112900 5.405129 2.338961 0
M  V30 40 H 1.412530 7.738924 2.706998 0
M  V30 41 H 2.997522 9.560031 3.178738 0
M  V30 42 H 5.633538 7.042354 2.890294 0
M  V30 43 H 5.217799 4.607312 2.495613 0
M  V30 44 H 1.053679 3.958446 0.946939 0
M  V30 45 H 0.401626 1.715162 0.535594 0
M  V30 46 H -1.078567 -2.438047 -0.788691 0
M  V30 47 H -3.067002 -4.229382 0.223465 0
M  V30 48 H -4.668598 -6.247596 -0.760432 0
M  V30 49 H -5.060048 -4.788667 0.141834 0
M  V30 50 H -5.083931 -3.376387 -1.954684 0
M  V30 51 H -6.307919 -4.633113 -1.859954 0
M  V30 52 H -6.756728 -5.134156 -3.929834 0
M  V30 53 H -6.085964 -3.464805 -4.064432 0
M  V30 54 H -5.531562 -4.810923 -5.201720 0
M  V30 55 H -4.051076 -3.274724 -4.475316 0
M  V30 56 H -3.319497 -3.487638 -2.854833 0
M  V30 57 H -2.852661 -4.609326 -4.234170 0
M  V30 END ATOM
M  V30 BEGIN BOND
M  V30 1 1 1 2
M  V30 2 1 2 3
M  V30 3 1 3 4
M  V30 4 1 4 5
M  V30 5 2 5 6
M  V30 6 1 6 7
M  V30 7 2 7 8
M  V30 8 1 7 9
M  V30 9 1 9 10
M  V30 10 2 10 11
M  V30 11 1 11 12
M  V30 12 1 12 13
M  V30 13 2 13 14
M  V30 14 1 14 15
M  V30 15 2 15 16
M  V30 16 1 16 17
M  V30 17 1 16 18
M  V30 18 2 18 19
M  V30 19 2 12 20
M  V30 20 1 20 21
M  V30 21 2 21 22
M  V30 22 2 4 23
M  V30 23 1 23 24
M  V30 24 1 24 25
M  V30 25 2 25 26
M  V30 26 1 25 27
M  V30 27 1 27 28
M  V30 28 1 28 29
M  V30 29 1 29 30
M  V30 30 1 30 31
M  V30 31 1 30 32
M  V30 32 2 24 2
M  V30 33 1 22 6
M  V30 34 1 22 10
M  V30 35 1 19 13
M  V30 36 1 1 33
M  V30 37 1 1 34
M  V30 38 1 1 35
M  V30 39 1 5 36
M  V30 40 1 9 37
M  V30 41 1 11 38
M  V30 42 1 14 39
M  V30 43 1 15 40
M  V30 44 1 17 41
M  V30 45 1 18 42
M  V30 46 1 19 43
M  V30 47 1 20 44
M  V30 48 1 21 45
M  V30 49 1 23 46
M  V30 50 1 27 47
M  V30 51 1 28 48
M  V30 52 1 28 49
M  V30 53 1 29 50
M  V30 54 1 29 51
M  V30 55 1 31 52
M  V30 56 1 31 53
M  V30 57 1 31 54
M  V30 58 1 32 55
M  V30 59 1 32 56
M  V30 60 1 32 57
M  V30 END BOND
M  V30 END CTAB
M  END
>  <Dataset>  (59) 
ChEMBL_Kinases

>  <Ligand_Instance>  (59) 
nan

>  <PDB_ID>  (59) 
nan

>  <Standardized_SMILES>  (59) 
Cc1[se]c(/C=C2\C(=O)Nc3cc(-c4ccc(O)cc4)ccc32)cc1C(=O)NCCN(C)C

>  <Name>  (59) 
nan

>  <Pocket>  (59) 
nan

>  <ATP_Site>  (59) 
nan

>  <Peripheral>  (59) 
nan

>  <Num_H_Atoms_ProtBoundConf>  (59) 
nan

>  <Num_Resolved_Atoms>  (59) 
nan

>  <Num_Not_Resolved_Atoms>  (59) 
nan

$$$$
CHEMBL1223408
     RDKit          3D

  0  0  0  0  0  0  0  0  0  0999 V3000
M  V30 BEGIN CTAB
M  V30 COUNTS 63 66 0 0 0
M  V30 BEGIN ATOM
M  V30 1 C 4.542652 -1.763428 0.355357 0
M  V30 2 C 3.949293 -0.645887 -0.504314 0
M  V30 3 N 4.789483 -0.269351 -1.570815 0
M  V30 4 C 6.020100 0.373591 -1.161761 0
M  V30 5 C 5.810460 1.727563 -0.538539 0
M  V30 6 C 4.249340 0.199836 -2.777784 0
M  V30 7 C 3.597819 1.529737 -2.833229 0
M  V30 8 N 2.455296 1.656481 -1.967758 0
M  V30 9 C 1.697168 2.858429 -1.870976 0
M  V30 10 O 1.977339 3.886173 -2.537232 0
M  V30 11 C 0.544915 2.996347 -0.999478 0
M  V30 12 C 0.014780 1.994238 -0.257790 0
M  V30 13 C -1.126654 2.200826 0.582531 0
M  V30 14 C -1.837473 1.240516 1.412515 0
M  V30 15 C -2.320515 0.093717 0.975056 0
M  V30 16 C -2.253240 -0.421300 -0.362576 0
M  V30 17 O -1.748649 0.109144 -1.382794 0
M  V30 18 N -2.861904 -1.695237 -0.445871 0
M  V30 19 C -3.320758 -1.977590 0.879478 0
M  V30 20 C -3.982587 -3.105298 1.325706 0
M  V30 21 C -4.363252 -3.227817 2.668861 0
M  V30 22 C -5.064541 -4.452269 3.084411 0
M  V30 23 C -4.672659 -5.588772 2.361277 0
M  V30 24 C -5.264774 -6.801327 2.653860 0
M  V30 25 C -6.212803 -6.921775 3.620573 0
M  V30 26 O -6.821279 -8.149075 3.926751 0
M  V30 27 C -6.602874 -5.809843 4.334965 0
M  V30 28 C -6.018884 -4.566925 4.058732 0
M  V30 29 C -4.050184 -2.172195 3.534102 0
M  V30 30 C -3.387920 -1.061118 3.052342 0
M  V30 31 C -3.009474 -0.934904 1.726086 0
M  V30 32 Se -1.538007 3.914758 0.363407 0 VAL=2
M  V30 33 C -0.027271 4.294839 -0.959323 0
M  V30 34 C 0.144137 5.614543 -1.504943 0
M  V30 35 H 5.529337 -1.493341 0.779281 0
M  V30 36 H 3.855636 -1.843548 1.238223 0
M  V30 37 H 4.499380 -2.748860 -0.127185 0
M  V30 38 H 3.033462 -1.141037 -0.954277 0
M  V30 39 H 3.698803 0.168312 0.185612 0
M  V30 40 H 6.663551 0.444707 -2.078705 0
M  V30 41 H 6.582575 -0.251035 -0.438853 0
M  V30 42 H 6.286381 1.726974 0.460694 0
M  V30 43 H 4.714983 1.850156 -0.364977 0
M  V30 44 H 6.190421 2.571455 -1.152010 0
M  V30 45 H 3.551098 -0.598037 -3.196180 0
M  V30 46 H 5.054977 0.223419 -3.582372 0
M  V30 47 H 3.300746 1.708586 -3.917091 0
M  V30 48 H 4.332037 2.375847 -2.663666 0
M  V30 49 H 2.077411 0.926807 -1.360452 0
M  V30 50 H 0.436191 1.002544 -0.244029 0
M  V30 51 H -1.964954 1.501578 2.453475 0
M  V30 52 H -2.962900 -2.313184 -1.291258 0
M  V30 53 H -4.218781 -3.905414 0.645561 0
M  V30 54 H -3.938190 -5.687847 1.561000 0
M  V30 55 H -5.031223 -7.737561 2.151583 0
M  V30 56 H -6.334864 -8.994374 3.680305 0
M  V30 57 H -7.350913 -5.775560 5.131057 0
M  V30 58 H -6.209702 -3.615216 4.523721 0
M  V30 59 H -4.341738 -2.266060 4.570195 0
M  V30 60 H -3.132684 -0.233255 3.695071 0
M  V30 61 H -0.232895 5.781794 -2.531484 0
M  V30 62 H -0.288051 6.422416 -0.872845 0
M  V30 63 H 1.237360 5.840536 -1.520927 0
M  V30 END ATOM
M  V30 BEGIN BOND
M  V30 1 1 1 2
M  V30 2 1 2 3
M  V30 3 1 3 4
M  V30 4 1 4 5
M  V30 5 1 3 6
M  V30 6 1 6 7
M  V30 7 1 7 8
M  V30 8 1 8 9
M  V30 9 2 9 10
M  V30 10 1 9 11
M  V30 11 1 11 12
M  V30 12 2 12 13
M  V30 13 1 13 14
M  V30 14 2 14 15
M  V30 15 1 15 16
M  V30 16 2 16 17
M  V30 17 1 16 18
M  V30 18 1 18 19
M  V30 19 2 19 20
M  V30 20 1 20 21
M  V30 21 1 21 22
M  V30 22 2 22 23
M  V30 23 1 23 24
M  V30 24 2 24 25
M  V30 25 1 25 26
M  V30 26 1 25 27
M  V30 27 2 27 28
M  V30 28 2 21 29
M  V30 29 1 29 30
M  V30 30 2 30 31
M  V30 31 1 13 32
M  V30 32 1 32 33
M  V30 33 1 33 34
M  V30 34 2 33 11
M  V30 35 1 31 15
M  V30 36 1 31 19
M  V30 37 1 28 22
M  V30 38 1 1 35
M  V30 39 1 1 36
M  V30 40 1 1 37
M  V30 41 1 2 38
M  V30 42 1 2 39
M  V30 43 1 4 40
M  V30 44 1 4 41
M  V30 45 1 5 42
M  V30 46 1 5 43
M  V30 47 1 5 44
M  V30 48 1 6 45
M  V30 49 1 6 46
M  V30 50 1 7 47
M  V30 51 1 7 48
M  V30 52 1 8 49
M  V30 53 1 12 50
M  V30 54 1 14 51
M  V30 55 1 18 52
M  V30 56 1 20 53
M  V30 57 1 23 54
M  V30 58 1 24 55
M  V30 59 1 26 56
M  V30 60 1 27 57
M  V30 61 1 28 58
M  V30 62 1 29 59
M  V30 63 1 30 60
M  V30 64 1 34 61
M  V30 65 1 34 62
M  V30 66 1 34 63
M  V30 END BOND
M  V30 END CTAB
M  END
>  <Dataset>  (60) 
ChEMBL_Kinases

>  <Ligand_Instance>  (60) 
nan

>  <PDB_ID>  (60) 
nan

>  <Standardized_SMILES>  (60) 
CCN(CC)CCNC(=O)c1cc(/C=C2\C(=O)Nc3cc(-c4ccc(O)cc4)ccc32)[se]c1C

>  <Name>  (60) 
nan

>  <Pocket>  (60) 
nan

>  <ATP_Site>  (60) 
nan

>  <Peripheral>  (60) 
nan

>  <Num_H_Atoms_ProtBoundConf>  (60) 
nan

>  <Num_Resolved_Atoms>  (60) 
nan

>  <Num_Not_Resolved_Atoms>  (60) 
nan

$$$$
CHEMBL1223409
     RDKit          3D

  0  0  0  0  0  0  0  0  0  0999 V3000
M  V30 BEGIN CTAB
M  V30 COUNTS 61 65 0 0 0
M  V30 BEGIN ATOM
M  V30 1 C -4.993074 3.253947 1.014130 0
M  V30 2 C -3.808620 2.410069 1.005898 0
M  V30 3 Se -1.913276 3.097756 1.421488 0 VAL=2
M  V30 4 C -1.151935 1.335318 1.152450 0
M  V30 5 C 0.241681 1.161347 1.337199 0
M  V30 6 C 1.153276 0.574581 0.611780 0
M  V30 7 C 0.858886 -0.062694 -0.642723 0
M  V30 8 O -0.238720 -0.138064 -1.205218 0
M  V30 9 N 2.069818 -0.606047 -1.146872 0
M  V30 10 C 3.100249 -0.306806 -0.212957 0
M  V30 11 C 4.453384 -0.572575 -0.163486 0
M  V30 12 C 5.234653 -0.149316 0.897476 0
M  V30 13 C 6.653849 -0.511651 0.805285 0
M  V30 14 C 7.393700 -0.751521 1.945494 0
M  V30 15 C 8.733406 -1.091534 1.802154 0
M  V30 16 C 9.362217 -1.201132 0.566106 0
M  V30 17 O 10.711038 -1.545034 0.459117 0
M  V30 18 C 8.622579 -0.961042 -0.580453 0
M  V30 19 C 7.282653 -0.621989 -0.413334 0
M  V30 20 C 4.682616 0.561282 1.954495 0
M  V30 21 C 3.318237 0.843978 1.931044 0
M  V30 22 C 2.581182 0.400961 0.852508 0
M  V30 23 C -2.264154 0.577049 0.833615 0
M  V30 24 C -3.524955 1.009398 0.747114 0
M  V30 25 C -4.735583 0.280414 0.420636 0
M  V30 26 O -5.633551 0.235883 1.302258 0
M  V30 27 N -4.851176 -0.347066 -0.873611 0
M  V30 28 C -6.058786 -1.067784 -1.179800 0
M  V30 29 C -5.918305 -1.619750 -2.590750 0
M  V30 30 N -5.735619 -0.512159 -3.507961 0
M  V30 31 C -5.590229 -0.948358 -4.880034 0
M  V30 32 C -6.139827 0.145447 -5.743860 0
M  V30 33 C -7.160323 0.817183 -4.887862 0
M  V30 34 C -6.861296 0.398711 -3.486682 0
M  V30 35 H -4.747609 4.329007 1.140281 0
M  V30 36 H -5.513375 3.209735 0.011165 0
M  V30 37 H -5.722161 2.880464 1.757335 0
M  V30 38 H 0.630102 1.602784 2.273195 0
M  V30 39 H 2.152843 -1.126083 -2.045826 0
M  V30 40 H 4.856913 -1.130249 -1.004958 0
M  V30 41 H 6.936415 -0.674154 2.927235 0
M  V30 42 H 9.330538 -1.283453 2.695807 0
M  V30 43 H 10.988436 -2.464594 0.833971 0
M  V30 44 H 9.069348 -1.035292 -1.551255 0
M  V30 45 H 6.750950 -0.445610 -1.334659 0
M  V30 46 H 5.339360 0.865828 2.753655 0
M  V30 47 H 2.880793 1.398036 2.751454 0
M  V30 48 H -2.100394 -0.476599 0.651453 0
M  V30 49 H -4.023214 -0.236789 -1.533549 0
M  V30 50 H -6.211989 -1.935032 -0.472191 0
M  V30 51 H -6.981424 -0.494466 -1.139698 0
M  V30 52 H -4.978608 -2.218631 -2.596959 0
M  V30 53 H -6.726439 -2.308540 -2.864706 0
M  V30 54 H -4.490380 -1.000333 -5.098603 0
M  V30 55 H -6.040304 -1.936949 -5.040833 0
M  V30 56 H -5.338143 0.892632 -5.972054 0
M  V30 57 H -6.552439 -0.264689 -6.689696 0
M  V30 58 H -7.079442 1.938441 -4.992322 0
M  V30 59 H -8.189739 0.479008 -5.127621 0
M  V30 60 H -6.572643 1.290562 -2.893833 0
M  V30 61 H -7.724859 -0.093622 -2.992304 0
M  V30 END ATOM
M  V30 BEGIN BOND
M  V30 1 1 1 2
M  V30 2 1 2 3
M  V30 3 1 3 4
M  V30 4 1 4 5
M  V30 5 2 5 6
M  V30 6 1 6 7
M  V30 7 2 7 8
M  V30 8 1 7 9
M  V30 9 1 9 10
M  V30 10 2 10 11
M  V30 11 1 11 12
M  V30 12 1 12 13
M  V30 13 2 13 14
M  V30 14 1 14 15
M  V30 15 2 15 16
M  V30 16 1 16 17
M  V30 17 1 16 18
M  V30 18 2 18 19
M  V30 19 2 12 20
M  V30 20 1 20 21
M  V30 21 2 21 22
M  V30 22 2 4 23
M  V30 23 1 23 24
M  V30 24 1 24 25
M  V30 25 2 25 26
M  V30 26 1 25 27
M  V30 27 1 27 28
M  V30 28 1 28 29
M  V30 29 1 29 30
M  V30 30 1 30 31
M  V30 31 1 31 32
M  V30 32 1 32 33
M  V30 33 1 33 34
M  V30 34 2 24 2
M  V30 35 1 34 30
M  V30 36 1 22 6
M  V30 37 1 22 10
M  V30 38 1 19 13
M  V30 39 1 1 35
M  V30 40 1 1 36
M  V30 41 1 1 37
M  V30 42 1 5 38
M  V30 43 1 9 39
M  V30 44 1 11 40
M  V30 45 1 14 41
M  V30 46 1 15 42
M  V30 47 1 17 43
M  V30 48 1 18 44
M  V30 49 1 19 45
M  V30 50 1 20 46
M  V30 51 1 21 47
M  V30 52 1 23 48
M  V30 53 1 27 49
M  V30 54 1 28 50
M  V30 55 1 28 51
M  V30 56 1 29 52
M  V30 57 1 29 53
M  V30 58 1 31 54
M  V30 59 1 31 55
M  V30 60 1 32 56
M  V30 61 1 32 57
M  V30 62 1 33 58
M  V30 63 1 33 59
M  V30 64 1 34 60
M  V30 65 1 34 61
M  V30 END BOND
M  V30 END CTAB
M  END
>  <Dataset>  (61) 
ChEMBL_Kinases

>  <Ligand_Instance>  (61) 
nan

>  <PDB_ID>  (61) 
nan

>  <Standardized_SMILES>  (61) 
Cc1[se]c(/C=C2\C(=O)Nc3cc(-c4ccc(O)cc4)ccc32)cc1C(=O)NCCN1CCCC1

>  <Name>  (61) 
nan

>  <Pocket>  (61) 
nan

>  <ATP_Site>  (61) 
nan

>  <Peripheral>  (61) 
nan

>  <Num_H_Atoms_ProtBoundConf>  (61) 
nan

>  <Num_Resolved_Atoms>  (61) 
nan

>  <Num_Not_Resolved_Atoms>  (61) 
nan

$$$$
CHEMBL1223477
     RDKit          3D

  0  0  0  0  0  0  0  0  0  0999 V3000
M  V30 BEGIN CTAB
M  V30 COUNTS 62 66 0 0 0
M  V30 BEGIN ATOM
M  V30 1 C 3.368721 -6.682981 1.328977 0
M  V30 2 C 2.837844 -5.316996 1.612204 0
M  V30 3 Se 3.728633 -3.687587 2.418223 0 VAL=2
M  V30 4 C 2.199072 -2.702808 2.257859 0
M  V30 5 C 2.022000 -1.280565 2.702957 0
M  V30 6 C 1.579011 -0.360542 1.899013 0
M  V30 7 C 1.186182 -0.462865 0.497767 0
M  V30 8 O 1.231510 -1.482601 -0.213346 0
M  V30 9 N 0.729792 0.762628 -0.003806 0
M  V30 10 C 0.822681 1.695294 1.083226 0
M  V30 11 C 0.483847 3.037429 1.078646 0
M  V30 12 C 0.640308 3.783321 2.232690 0
M  V30 13 C 0.267308 5.197534 2.186206 0
M  V30 14 C 0.860279 6.200605 2.925352 0
M  V30 15 C 0.445589 7.513410 2.818841 0
M  V30 16 C -0.591622 7.887009 1.959161 0
M  V30 17 O -0.958046 9.224234 1.900591 0
M  V30 18 C -1.184782 6.879357 1.219164 0
M  V30 19 C -0.769357 5.569721 1.327107 0
M  V30 20 C 1.140881 3.163906 3.389532 0
M  V30 21 C 1.476216 1.801530 3.365494 0
M  V30 22 C 1.325365 1.046502 2.222303 0
M  V30 23 C 1.296107 -3.520049 1.713206 0
M  V30 24 C 1.519863 -4.820397 1.361472 0
M  V30 25 C 0.562380 -5.746249 0.754252 0
M  V30 26 O 0.286592 -6.814528 1.301480 0
M  V30 27 N 0.037638 -5.235674 -0.493100 0
M  V30 28 C -0.939218 -6.099358 -1.176503 0
M  V30 29 C -1.327714 -5.329709 -2.448139 0
M  V30 30 N -1.890333 -4.063797 -2.154360 0
M  V30 31 C -2.293455 -3.280086 -3.268590 0
M  V30 32 C -3.635760 -2.620376 -3.148844 0
M  V30 33 C -4.041362 -2.261074 -1.746510 0
M  V30 34 C -2.899470 -2.581020 -0.812623 0
M  V30 35 O -2.600646 -3.942304 -1.042454 0
M  V30 36 H 3.046309 -7.444434 2.034885 0
M  V30 37 H 4.487237 -6.662185 1.309197 0
M  V30 38 H 3.087338 -6.865200 0.267915 0
M  V30 39 H 2.278784 -1.052744 3.723105 0
M  V30 40 H 0.386143 0.979203 -0.968752 0
M  V30 41 H 0.098315 3.517445 0.188844 0
M  V30 42 H 1.655534 5.922079 3.586960 0
M  V30 43 H 0.936417 8.293194 3.419466 0
M  V30 44 H -1.928612 9.532918 1.835571 0
M  V30 45 H -1.987076 7.215161 0.562896 0
M  V30 46 H -1.323056 4.887806 0.688663 0
M  V30 47 H 1.257892 3.759515 4.281874 0
M  V30 48 H 1.860954 1.311527 4.245516 0
M  V30 49 H 0.267485 -3.147243 1.548453 0
M  V30 50 H 0.339336 -4.296424 -0.890484 0
M  V30 51 H -1.856368 -6.218881 -0.567052 0
M  V30 52 H -0.473255 -7.053992 -1.492653 0
M  V30 53 H -2.030288 -5.919119 -3.075012 0
M  V30 54 H -0.406376 -5.171605 -3.076029 0
M  V30 55 H -1.555775 -2.493818 -3.546948 0
M  V30 56 H -2.335502 -3.945729 -4.182039 0
M  V30 57 H -3.636343 -1.700093 -3.785714 0
M  V30 58 H -4.393884 -3.355716 -3.531352 0
M  V30 59 H -4.336731 -1.189271 -1.681150 0
M  V30 60 H -4.958574 -2.829168 -1.410468 0
M  V30 61 H -3.157198 -2.427402 0.253164 0
M  V30 62 H -2.039944 -1.938976 -1.102596 0
M  V30 END ATOM
M  V30 BEGIN BOND
M  V30 1 1 1 2
M  V30 2 1 2 3
M  V30 3 1 3 4
M  V30 4 1 4 5
M  V30 5 2 5 6
M  V30 6 1 6 7
M  V30 7 2 7 8
M  V30 8 1 7 9
M  V30 9 1 9 10
M  V30 10 2 10 11
M  V30 11 1 11 12
M  V30 12 1 12 13
M  V30 13 2 13 14
M  V30 14 1 14 15
M  V30 15 2 15 16
M  V30 16 1 16 17
M  V30 17 1 16 18
M  V30 18 2 18 19
M  V30 19 2 12 20
M  V30 20 1 20 21
M  V30 21 2 21 22
M  V30 22 2 4 23
M  V30 23 1 23 24
M  V30 24 1 24 25
M  V30 25 2 25 26
M  V30 26 1 25 27
M  V30 27 1 27 28
M  V30 28 1 28 29
M  V30 29 1 29 30
M  V30 30 1 30 31
M  V30 31 1 31 32
M  V30 32 1 32 33
M  V30 33 1 33 34
M  V30 34 1 34 35
M  V30 35 2 24 2
M  V30 36 1 35 30
M  V30 37 1 22 6
M  V30 38 1 22 10
M  V30 39 1 19 13
M  V30 40 1 1 36
M  V30 41 1 1 37
M  V30 42 1 1 38
M  V30 43 1 5 39
M  V30 44 1 9 40
M  V30 45 1 11 41
M  V30 46 1 14 42
M  V30 47 1 15 43
M  V30 48 1 17 44
M  V30 49 1 18 45
M  V30 50 1 19 46
M  V30 51 1 20 47
M  V30 52 1 21 48
M  V30 53 1 23 49
M  V30 54 1 27 50
M  V30 55 1 28 51
M  V30 56 1 28 52
M  V30 57 1 29 53
M  V30 58 1 29 54
M  V30 59 1 31 55
M  V30 60 1 31 56
M  V30 61 1 32 57
M  V30 62 1 32 58
M  V30 63 1 33 59
M  V30 64 1 33 60
M  V30 65 1 34 61
M  V30 66 1 34 62
M  V30 END BOND
M  V30 END CTAB
M  END
>  <Dataset>  (62) 
ChEMBL_Kinases

>  <Ligand_Instance>  (62) 
nan

>  <PDB_ID>  (62) 
nan

>  <Standardized_SMILES>  (62) 
Cc1[se]c(/C=C2\C(=O)Nc3cc(-c4ccc(O)cc4)ccc32)cc1C(=O)NCCN1CCCCO1

>  <Name>  (62) 
nan

>  <Pocket>  (62) 
nan

>  <ATP_Site>  (62) 
nan

>  <Peripheral>  (62) 
nan

>  <Num_H_Atoms_ProtBoundConf>  (62) 
nan

>  <Num_Resolved_Atoms>  (62) 
nan

>  <Num_Not_Resolved_Atoms>  (62) 
nan

$$$$
CHEMBL1223337
     RDKit          3D

  0  0  0  0  0  0  0  0  0  0999 V3000
M  V30 BEGIN CTAB
M  V30 COUNTS 54 57 0 0 0
M  V30 BEGIN ATOM
M  V30 1 C 6.936319 2.176669 5.730339 0
M  V30 2 N 7.250272 2.537759 4.353440 0
M  V30 3 C 8.327691 1.680630 3.912588 0
M  V30 4 C 6.049443 2.293842 3.575562 0
M  V30 5 C 6.241752 2.622032 2.117010 0
M  V30 6 N 4.982914 2.361508 1.444357 0
M  V30 7 C 4.270936 1.138412 1.341375 0
M  V30 8 O 4.790249 0.140541 1.899039 0
M  V30 9 C 3.050368 1.056893 0.650673 0
M  V30 10 C 2.257383 1.909162 -0.038415 0
M  V30 11 C 1.081473 1.584825 -0.632171 0
M  V30 12 C 0.630515 0.223100 -0.526356 0
M  V30 13 C -0.625019 -0.281294 -1.138677 0
M  V30 14 C -1.433971 -1.063892 -0.498674 0
M  V30 15 C -1.352639 -1.600701 0.834404 0
M  V30 16 O -0.435926 -1.370998 1.642501 0
M  V30 17 N -2.502790 -2.412689 1.011600 0
M  V30 18 C -3.307960 -2.396251 -0.188488 0
M  V30 19 C -4.498382 -3.037582 -0.471901 0
M  V30 20 C -5.091883 -2.871132 -1.724185 0
M  V30 21 C -6.337344 -3.604005 -1.907668 0
M  V30 22 C -6.659247 -4.058569 -3.183321 0
M  V30 23 C -7.816095 -4.762727 -3.424979 0
M  V30 24 C -8.724145 -5.057845 -2.411487 0
M  V30 25 O -9.912793 -5.756781 -2.542916 0
M  V30 26 C -8.355494 -4.579113 -1.146595 0
M  V30 27 C -7.204677 -3.870984 -0.870575 0
M  V30 28 C -4.467857 -2.063474 -2.651524 0
M  V30 29 C -3.274679 -1.430160 -2.346114 0
M  V30 30 C -2.658326 -1.575186 -1.109982 0
M  V30 31 Se 2.079323 -0.577449 0.528373 0 VAL=2
M  V30 32 H 5.984587 1.587759 5.797130 0
M  V30 33 H 7.729455 1.495290 6.152146 0
M  V30 34 H 6.809192 3.054665 6.389251 0
M  V30 35 H 8.754367 1.085628 4.773770 0
M  V30 36 H 8.053942 0.939530 3.156934 0
M  V30 37 H 9.185620 2.260636 3.511546 0
M  V30 38 H 5.171968 2.858277 3.935956 0
M  V30 39 H 5.831496 1.201487 3.661486 0
M  V30 40 H 6.618084 3.625779 1.938619 0
M  V30 41 H 7.008532 1.932944 1.657251 0
M  V30 42 H 4.540232 3.189688 0.972814 0
M  V30 43 H 2.654121 2.913879 -0.080062 0
M  V30 44 H 0.468044 2.291113 -1.177162 0
M  V30 45 H -0.720848 0.098724 -2.143598 0
M  V30 46 H -2.687738 -2.922166 1.897727 0
M  V30 47 H -4.957718 -3.671233 0.302833 0
M  V30 48 H -5.977964 -3.857731 -4.025794 0
M  V30 49 H -8.106755 -5.137818 -4.411258 0
M  V30 50 H -9.982384 -6.739583 -2.244959 0
M  V30 51 H -9.035634 -4.788015 -0.332633 0
M  V30 52 H -6.984759 -3.533447 0.131042 0
M  V30 53 H -4.965056 -1.965681 -3.606093 0
M  V30 54 H -2.789236 -0.797721 -3.075480 0
M  V30 END ATOM
M  V30 BEGIN BOND
M  V30 1 1 1 2
M  V30 2 1 2 3
M  V30 3 1 2 4
M  V30 4 1 4 5
M  V30 5 1 5 6
M  V30 6 1 6 7
M  V30 7 2 7 8
M  V30 8 1 7 9
M  V30 9 2 9 10
M  V30 10 1 10 11
M  V30 11 2 11 12
M  V30 12 1 12 13
M  V30 13 2 13 14
M  V30 14 1 14 15
M  V30 15 2 15 16
M  V30 16 1 15 17
M  V30 17 1 17 18
M  V30 18 2 18 19
M  V30 19 1 19 20
M  V30 20 1 20 21
M  V30 21 2 21 22
M  V30 22 1 22 23
M  V30 23 2 23 24
M  V30 24 1 24 25
M  V30 25 1 24 26
M  V30 26 2 26 27
M  V30 27 2 20 28
M  V30 28 1 28 29
M  V30 29 2 29 30
M  V30 30 1 12 31
M  V30 31 1 31 9
M  V30 32 1 30 14
M  V30 33 1 30 18
M  V30 34 1 27 21
M  V30 35 1 1 32
M  V30 36 1 1 33
M  V30 37 1 1 34
M  V30 38 1 3 35
M  V30 39 1 3 36
M  V30 40 1 3 37
M  V30 41 1 4 38
M  V30 42 1 4 39
M  V30 43 1 5 40
M  V30 44 1 5 41
M  V30 45 1 6 42
M  V30 46 1 10 43
M  V30 47 1 11 44
M  V30 48 1 13 45
M  V30 49 1 17 46
M  V30 50 1 19 47
M  V30 51 1 22 48
M  V30 52 1 23 49
M  V30 53 1 25 50
M  V30 54 1 26 51
M  V30 55 1 27 52
M  V30 56 1 28 53
M  V30 57 1 29 54
M  V30 END BOND
M  V30 END CTAB
M  END
>  <Dataset>  (63) 
ChEMBL_Kinases

>  <Ligand_Instance>  (63) 
nan

>  <PDB_ID>  (63) 
nan

>  <Standardized_SMILES>  (63) 
CN(C)CCNC(=O)c1ccc(/C=C2\C(=O)Nc3cc(-c4ccc(O)cc4)ccc32)[se]1

>  <Name>  (63) 
nan

>  <Pocket>  (63) 
nan

>  <ATP_Site>  (63) 
nan

>  <Peripheral>  (63) 
nan

>  <Num_H_Atoms_ProtBoundConf>  (63) 
nan

>  <Num_Resolved_Atoms>  (63) 
nan

>  <Num_Not_Resolved_Atoms>  (63) 
nan

$$$$
CHEMBL1241463
     RDKit          3D

  0  0  0  0  0  0  0  0  0  0999 V3000
M  V30 BEGIN CTAB
M  V30 COUNTS 29 31 0 0 0
M  V30 BEGIN ATOM
M  V30 1 N -0.327402 -3.849876 5.067229 0
M  V30 2 C -0.882861 -3.537329 3.787675 0
M  V30 3 O -1.961243 -4.166498 3.846160 0
M  V30 4 C -0.133646 -2.676923 2.876323 0
M  V30 5 C 1.119745 -2.220067 3.242243 0
M  V30 6 C 1.715729 -1.420468 2.301386 0
M  V30 7 C 1.103571 -1.107066 1.095614 0
M  V30 8 N 1.795181 -0.268486 0.156130 0
M  V30 9 C 1.234926 0.136658 -1.087843 0
M  V30 10 N 1.269252 -0.528200 -2.250286 0
M  V30 11 C 0.708896 -0.050741 -3.375251 0
M  V30 12 N 0.095753 1.149076 -3.293603 0
M  V30 13 C 0.026668 1.864491 -2.160677 0
M  V30 14 N -0.554258 3.062205 -1.971263 0
M  V30 15 C -0.343295 3.342065 -0.657129 0
M  V30 16 N 0.343517 2.345265 -0.071509 0
M  V30 17 C 0.600365 1.381827 -0.995755 0
M  V30 18 C -0.148018 -1.585108 0.772733 0
M  V30 19 C -0.800557 -2.403551 1.693167 0
M  V30 20 H -0.549243 -3.475146 6.034798 0
M  V30 21 H -0.283329 -3.718682 6.099641 0
M  V30 22 H 1.543076 -2.492900 4.185822 0
M  V30 23 H 2.696724 -1.014562 2.498128 0
M  V30 24 H 2.752548 0.072745 0.377647 0
M  V30 25 H 0.772454 -0.641741 -4.289488 0
M  V30 26 H -1.073152 3.732909 -2.571635 0
M  V30 27 H -0.596484 4.165374 0.007182 0
M  V30 28 H -0.636431 -1.355640 -0.146411 0
M  V30 29 H -1.765589 -2.792031 1.477669 0
M  V30 END ATOM
M  V30 BEGIN BOND
M  V30 1 1 1 2
M  V30 2 2 2 3
M  V30 3 1 2 4
M  V30 4 2 4 5
M  V30 5 1 5 6
M  V30 6 2 6 7
M  V30 7 1 7 8
M  V30 8 1 8 9
M  V30 9 2 9 10
M  V30 10 1 10 11
M  V30 11 2 11 12
M  V30 12 1 12 13
M  V30 13 1 13 14
M  V30 14 1 14 15
M  V30 15 2 15 16
M  V30 16 1 16 17
M  V30 17 1 7 18
M  V30 18 2 18 19
M  V30 19 1 19 4
M  V30 20 1 17 9
M  V30 21 2 17 13
M  V30 22 1 1 20
M  V30 23 1 1 21
M  V30 24 1 5 22
M  V30 25 1 6 23
M  V30 26 1 8 24
M  V30 27 1 11 25
M  V30 28 1 14 26
M  V30 29 1 15 27
M  V30 30 1 18 28
M  V30 31 1 19 29
M  V30 END BOND
M  V30 END CTAB
M  END
>  <Dataset>  (64) 
ChEMBL_Kinases

>  <Ligand_Instance>  (64) 
nan

>  <PDB_ID>  (64) 
nan

>  <Standardized_SMILES>  (64) 
NC(=O)c1ccc(Nc2ncnc3[nH]cnc23)cc1

>  <Name>  (64) 
nan

>  <Pocket>  (64) 
nan

>  <ATP_Site>  (64) 
nan

>  <Peripheral>  (64) 
nan

>  <Num_H_Atoms_ProtBoundConf>  (64) 
nan

>  <Num_Resolved_Atoms>  (64) 
nan

>  <Num_Not_Resolved_Atoms>  (64) 
nan

$$$$
CHEMBL1241462
     RDKit          3D

  0  0  0  0  0  0  0  0  0  0999 V3000
M  V30 BEGIN CTAB
M  V30 COUNTS 33 35 0 0 0
M  V30 BEGIN ATOM
M  V30 1 C -3.097491 2.506006 3.833787 0
M  V30 2 C -2.290772 1.462467 3.426837 0
M  V30 3 C -1.870573 1.474160 2.110734 0
M  V30 4 C -1.013784 0.398721 1.613156 0
M  V30 5 C -0.527479 0.293643 0.326107 0
M  V30 6 C 0.220975 -0.851617 0.300643 0
M  V30 7 C 0.987539 -1.471059 -0.825939 0
M  V30 8 C 0.471462 -2.884378 -1.047079 0
M  V30 9 C 1.561913 -3.907801 -0.845984 0
M  V30 10 N 2.704246 -3.648212 -1.695491 0
M  V30 11 C 3.139393 -2.277482 -1.618756 0
M  V30 12 C 2.443233 -1.545366 -0.481569 0
M  V30 13 N 0.173402 -1.394074 1.525452 0
M  V30 14 N -0.576770 -0.642734 2.339358 0
M  V30 15 C -2.259962 2.498917 1.270996 0
M  V30 16 C -3.072918 3.509492 1.762694 0
M  V30 17 N -3.504145 3.532345 3.044037 0
M  V30 18 H -3.458105 2.552131 4.851564 0
M  V30 19 H -2.005456 0.676510 4.111924 0
M  V30 20 H -0.681961 0.956207 -0.515906 0
M  V30 21 H 0.893168 -0.861677 -1.747274 0
M  V30 22 H -0.347844 -3.123051 -0.341624 0
M  V30 23 H 0.067651 -3.012495 -2.075660 0
M  V30 24 H 1.134288 -4.886728 -1.150718 0
M  V30 25 H 1.879987 -3.934264 0.211307 0
M  V30 26 H 2.458395 -3.931043 -2.676350 0
M  V30 27 H 2.878858 -1.706377 -2.542934 0
M  V30 28 H 4.237601 -2.237262 -1.463846 0
M  V30 29 H 2.624004 -2.020968 0.496091 0
M  V30 30 H 2.888855 -0.530187 -0.461086 0
M  V30 31 H -0.768466 -0.854800 3.350649 0
M  V30 32 H -1.948106 2.540662 0.228475 0
M  V30 33 H -3.400157 4.338242 1.121514 0
M  V30 END ATOM
M  V30 BEGIN BOND
M  V30 1 2 1 2
M  V30 2 1 2 3
M  V30 3 1 3 4
M  V30 4 2 4 5
M  V30 5 1 5 6
M  V30 6 1 6 7
M  V30 7 1 7 8
M  V30 8 1 8 9
M  V30 9 1 9 10
M  V30 10 1 10 11
M  V30 11 1 11 12
M  V30 12 2 6 13
M  V30 13 1 13 14
M  V30 14 2 3 15
M  V30 15 1 15 16
M  V30 16 2 16 17
M  V30 17 1 17 1
M  V30 18 1 14 4
M  V30 19 1 12 7
M  V30 20 1 1 18
M  V30 21 1 2 19
M  V30 22 1 5 20
M  V30 23 1 7 21
M  V30 24 1 8 22
M  V30 25 1 8 23
M  V30 26 1 9 24
M  V30 27 1 9 25
M  V30 28 1 10 26
M  V30 29 1 11 27
M  V30 30 1 11 28
M  V30 31 1 12 29
M  V30 32 1 12 30
M  V30 33 1 14 31
M  V30 34 1 15 32
M  V30 35 1 16 33
M  V30 END BOND
M  V30 END CTAB
M  END
>  <Dataset>  (65) 
ChEMBL_Kinases

>  <Ligand_Instance>  (65) 
nan

>  <PDB_ID>  (65) 
nan

>  <Standardized_SMILES>  (65) 
c1cc(-c2cc(C3CCNCC3)n[nH]2)ccn1

>  <Name>  (65) 
nan

>  <Pocket>  (65) 
nan

>  <ATP_Site>  (65) 
nan

>  <Peripheral>  (65) 
nan

>  <Num_H_Atoms_ProtBoundConf>  (65) 
nan

>  <Num_Resolved_Atoms>  (65) 
nan

>  <Num_Not_Resolved_Atoms>  (65) 
nan

$$$$
CHEMBL1241075
     RDKit          3D

  0  0  0  0  0  0  0  0  0  0999 V3000
M  V30 BEGIN CTAB
M  V30 COUNTS 31 34 0 0 0
M  V30 BEGIN ATOM
M  V30 1 C -1.203911 -5.615150 2.004539 0
M  V30 2 C -0.657169 -4.290868 1.644625 0
M  V30 3 C 0.734008 -4.228339 1.601743 0
M  V30 4 C 1.397069 -3.053850 1.279174 0
M  V30 5 C 0.620480 -1.948731 1.002213 0
M  V30 6 C -0.755959 -1.989822 1.039159 0
M  V30 7 C -1.423944 -3.174635 1.364545 0
M  V30 8 N -1.317852 -0.812511 0.739070 0
M  V30 9 C -0.283687 0.010895 0.502128 0
M  V30 10 C 0.922082 -0.647483 0.653040 0
M  V30 11 C 2.149304 -0.028142 0.466298 0
M  V30 12 C 2.190018 1.312889 0.111568 0
M  V30 13 C 1.019283 2.007339 -0.049530 0
M  V30 14 C 0.638163 3.292815 -0.381605 0
M  V30 15 C 1.582039 4.365750 -0.682697 0
M  V30 16 O 2.824040 4.165206 -0.653312 0
M  V30 17 C -0.735060 3.439817 -0.394373 0
M  V30 18 N -1.232722 2.212884 -0.061088 0
M  V30 19 C -0.199104 1.363253 0.143577 0
M  V30 20 H -1.082590 -5.823442 3.103230 0
M  V30 21 H -2.292999 -5.707201 1.827014 0
M  V30 22 H -0.670544 -6.463391 1.502506 0
M  V30 23 H 1.361879 -5.073248 1.812845 0
M  V30 24 H 2.467068 -2.940040 1.228845 0
M  V30 25 H -2.485636 -3.336236 1.427328 0
M  V30 26 H -2.320718 -0.553546 0.689737 0
M  V30 27 H 3.078869 -0.572821 0.592433 0
M  V30 28 H 3.119373 1.843365 -0.046069 0
M  V30 29 H 1.248044 5.362797 -0.939534 0
M  V30 30 H -1.280376 4.343522 -0.622568 0
M  V30 31 H -2.254809 2.014611 0.010623 0
M  V30 END ATOM
M  V30 BEGIN BOND
M  V30 1 1 1 2
M  V30 2 2 2 3
M  V30 3 1 3 4
M  V30 4 2 4 5
M  V30 5 1 5 6
M  V30 6 2 6 7
M  V30 7 1 6 8
M  V30 8 1 8 9
M  V30 9 2 9 10
M  V30 10 1 10 11
M  V30 11 2 11 12
M  V30 12 1 12 13
M  V30 13 1 13 14
M  V30 14 1 14 15
M  V30 15 2 15 16
M  V30 16 2 14 17
M  V30 17 1 17 18
M  V30 18 1 18 19
M  V30 19 1 7 2
M  V30 20 1 19 9
M  V30 21 1 10 5
M  V30 22 2 19 13
M  V30 23 1 1 20
M  V30 24 1 1 21
M  V30 25 1 1 22
M  V30 26 1 3 23
M  V30 27 1 4 24
M  V30 28 1 7 25
M  V30 29 1 8 26
M  V30 30 1 11 27
M  V30 31 1 12 28
M  V30 32 1 15 29
M  V30 33 1 17 30
M  V30 34 1 18 31
M  V30 END BOND
M  V30 END CTAB
M  END
>  <Dataset>  (66) 
ChEMBL_Kinases

>  <Ligand_Instance>  (66) 
nan

>  <PDB_ID>  (66) 
nan

>  <Standardized_SMILES>  (66) 
Cc1ccc2c(c1)[nH]c1c2ccc2c(C=O)c[nH]c21

>  <Name>  (66) 
nan

>  <Pocket>  (66) 
nan

>  <ATP_Site>  (66) 
nan

>  <Peripheral>  (66) 
nan

>  <Num_H_Atoms_ProtBoundConf>  (66) 
nan

>  <Num_Resolved_Atoms>  (66) 
nan

>  <Num_Not_Resolved_Atoms>  (66) 
nan

$$$$
CHEMBL1240962
     RDKit          3D

  0  0  0  0  0  0  0  0  0  0999 V3000
M  V30 BEGIN CTAB
M  V30 COUNTS 28 31 0 0 0
M  V30 BEGIN ATOM
M  V30 1 O -3.088013 -1.197715 4.554353 0
M  V30 2 C -1.981764 -1.668902 4.840372 0
M  V30 3 C -0.826942 -1.646848 3.950550 0
M  V30 4 C 0.408778 -2.172466 4.268426 0
M  V30 5 N 1.140290 -1.921213 3.156087 0
M  V30 6 C 0.445616 -1.291009 2.203371 0
M  V30 7 C -0.840479 -1.095684 2.685861 0
M  V30 8 C -1.771776 -0.459570 1.891338 0
M  V30 9 C -1.441001 -0.011231 0.614315 0
M  V30 10 C -0.136699 -0.222992 0.156610 0
M  V30 11 C 0.535030 0.077435 -1.026029 0
M  V30 12 C -0.002995 0.719329 -2.119586 0
M  V30 13 C 0.871005 0.910225 -3.195869 0
M  V30 14 C 2.179351 0.474807 -3.139316 0
M  V30 15 Br 3.301180 0.778925 -4.657431 0
M  V30 16 C 2.682970 -0.163234 -2.029681 0
M  V30 17 C 1.839371 -0.364307 -0.951947 0
M  V30 18 N 1.973796 -0.930288 0.259215 0
M  V30 19 C 0.819057 -0.864044 0.944785 0
M  V30 20 H -1.933627 -2.111513 5.828892 0
M  V30 21 H 0.757314 -2.666935 5.158683 0
M  V30 22 H 2.156823 -2.201467 3.065793 0
M  V30 23 H -2.786294 -0.309335 2.280832 0
M  V30 24 H -2.142915 0.484545 -0.022303 0
M  V30 25 H -1.027674 1.056666 -2.155376 0
M  V30 26 H 0.512210 1.409911 -4.090760 0
M  V30 27 H 3.699428 -0.507997 -1.970742 0
M  V30 28 H 2.863564 -1.358078 0.602166 0
M  V30 END ATOM
M  V30 BEGIN BOND
M  V30 1 2 1 2
M  V30 2 1 2 3
M  V30 3 2 3 4
M  V30 4 1 4 5
M  V30 5 1 5 6
M  V30 6 2 6 7
M  V30 7 1 7 8
M  V30 8 2 8 9
M  V30 9 1 9 10
M  V30 10 1 10 11
M  V30 11 2 11 12
M  V30 12 1 12 13
M  V30 13 2 13 14
M  V30 14 1 14 15
M  V30 15 1 14 16
M  V30 16 2 16 17
M  V30 17 1 17 18
M  V30 18 1 18 19
M  V30 19 1 7 3
M  V30 20 2 19 10
M  V30 21 1 19 6
M  V30 22 1 17 11
M  V30 23 1 2 20
M  V30 24 1 4 21
M  V30 25 1 5 22
M  V30 26 1 8 23
M  V30 27 1 9 24
M  V30 28 1 12 25
M  V30 29 1 13 26
M  V30 30 1 16 27
M  V30 31 1 18 28
M  V30 END BOND
M  V30 END CTAB
M  END
>  <Dataset>  (67) 
ChEMBL_Kinases

>  <Ligand_Instance>  (67) 
nan

>  <PDB_ID>  (67) 
nan

>  <Standardized_SMILES>  (67) 
O=Cc1c[nH]c2c1ccc1c3ccc(Br)cc3[nH]c12

>  <Name>  (67) 
nan

>  <Pocket>  (67) 
nan

>  <ATP_Site>  (67) 
nan

>  <Peripheral>  (67) 
nan

>  <Num_H_Atoms_ProtBoundConf>  (67) 
nan

>  <Num_Resolved_Atoms>  (67) 
nan

>  <Num_Not_Resolved_Atoms>  (67) 
nan

$$$$
CHEMBL1240591
     RDKit          3D

  0  0  0  0  0  0  0  0  0  0999 V3000
M  V30 BEGIN CTAB
M  V30 COUNTS 23 25 0 0 0
M  V30 BEGIN ATOM
M  V30 1 C 1.250518 -0.942622 4.246803 0
M  V30 2 C 1.813453 -1.413458 3.079928 0
M  V30 3 N 1.393047 -0.955232 1.871603 0
M  V30 4 N 0.421092 -0.040549 1.901262 0
M  V30 5 C -0.126339 0.530848 0.820443 0
M  V30 6 C 0.126780 0.365405 -0.607008 0
M  V30 7 C 0.257355 -0.918850 -1.093940 0
M  V30 8 C 0.498775 -1.174545 -2.434883 0
M  V30 9 N 0.615594 -0.163992 -3.319680 0
M  V30 10 C 0.488987 1.090338 -2.849463 0
M  V30 11 C 0.245814 1.393635 -1.508273 0
M  V30 12 C -1.099981 1.425834 1.265107 0
M  V30 13 N -1.084007 1.342734 2.593144 0
M  V30 14 C -0.163912 0.454210 3.007411 0
M  V30 15 C 0.241078 0.007845 4.267829 0
M  V30 16 H 1.562089 -1.286780 5.231018 0
M  V30 17 H 2.596719 -2.158405 3.208838 0
M  V30 18 H 0.172435 -1.768636 -0.426882 0
M  V30 19 H 0.607755 -2.164121 -2.858422 0
M  V30 20 H 0.579294 1.932228 -3.546130 0
M  V30 21 H 0.146591 2.403932 -1.145451 0
M  V30 22 H -1.796796 2.108004 0.770143 0
M  V30 23 H -0.231694 0.409018 5.135716 0
M  V30 END ATOM
M  V30 BEGIN BOND
M  V30 1 1 1 2
M  V30 2 2 2 3
M  V30 3 1 3 4
M  V30 4 1 4 5
M  V30 5 1 5 6
M  V30 6 2 6 7
M  V30 7 1 7 8
M  V30 8 2 8 9
M  V30 9 1 9 10
M  V30 10 2 10 11
M  V30 11 2 5 12
M  V30 12 1 12 13
M  V30 13 2 13 14
M  V30 14 1 14 15
M  V30 15 2 15 1
M  V30 16 1 14 4
M  V30 17 1 11 6
M  V30 18 1 1 16
M  V30 19 1 2 17
M  V30 20 1 7 18
M  V30 21 1 8 19
M  V30 22 1 10 20
M  V30 23 1 11 21
M  V30 24 1 12 22
M  V30 25 1 15 23
M  V30 END BOND
M  V30 END CTAB
M  END
>  <Dataset>  (68) 
ChEMBL_Kinases

>  <Ligand_Instance>  (68) 
nan

>  <PDB_ID>  (68) 
nan

>  <Standardized_SMILES>  (68) 
c1cnn2c(-c3ccncc3)cnc2c1

>  <Name>  (68) 
nan

>  <Pocket>  (68) 
nan

>  <ATP_Site>  (68) 
nan

>  <Peripheral>  (68) 
nan

>  <Num_H_Atoms_ProtBoundConf>  (68) 
nan

>  <Num_Resolved_Atoms>  (68) 
nan

>  <Num_Not_Resolved_Atoms>  (68) 
nan

$$$$
CHEMBL1237161
     RDKit          3D

  0  0  0  0  0  0  0  0  0  0999 V3000
M  V30 BEGIN CTAB
M  V30 COUNTS 53 57 0 0 0
M  V30 BEGIN ATOM
M  V30 1 C 3.021366 -2.779244 4.296157 0
M  V30 2 C 3.991196 -2.700991 3.318936 0
M  V30 3 C 4.431102 -1.488071 2.836389 0
M  V30 4 C 3.905750 -0.309921 3.324871 0
M  V30 5 C 4.269974 1.053816 2.913471 0
M  V30 6 N 4.816261 2.019413 3.666809 0
M  V30 7 N 5.007341 3.118702 2.965661 0
M  V30 8 C 4.580233 2.905274 1.690363 0
M  V30 9 C 4.110067 1.604497 1.636689 0
M  V30 10 C 3.531310 0.833039 0.517957 0
M  V30 11 C 4.322582 0.625554 -0.592194 0
M  V30 12 C 3.726476 -0.108262 -1.615518 0
M  V30 13 N 2.473158 -0.591847 -1.554265 0
M  V30 14 C 1.688411 -0.391743 -0.465124 0
M  V30 15 C 0.327110 -0.917495 -0.399538 0
M  V30 16 C -0.531861 -0.758330 0.666835 0
M  V30 17 C -1.803330 -1.292140 0.639151 0
M  V30 18 C -2.281034 -2.004778 -0.440490 0
M  V30 19 C -3.651519 -2.578794 -0.470903 0
M  V30 20 N -4.527272 -1.616314 -1.035266 0
M  V30 21 C -4.662110 -0.374509 -0.397116 0
M  V30 22 C -5.912880 0.381764 -0.640670 0
M  V30 23 O -6.784005 -0.147879 -1.566763 0
M  V30 24 C -6.895223 -1.527512 -1.357873 0
M  V30 25 C -5.576900 -2.092243 -1.849773 0
M  V30 26 C -1.428769 -2.180505 -1.535800 0
M  V30 27 C -0.144027 -1.629445 -1.483239 0
M  V30 28 C 2.252754 0.331907 0.564256 0
M  V30 29 N 2.957562 -0.341038 4.278747 0
M  V30 30 C 2.547887 -1.539248 4.730461 0
M  V30 31 H 2.638471 -3.692542 4.711729 0
M  V30 32 H 4.414424 -3.614247 2.924278 0
M  V30 33 H 5.187379 -1.370499 2.072036 0
M  V30 34 H 5.404944 4.047696 3.227122 0
M  V30 35 H 4.562839 3.548555 0.811480 0
M  V30 36 H 5.327770 0.993229 -0.683985 0
M  V30 37 H 4.314012 -0.293178 -2.503961 0
M  V30 38 H -0.182453 -0.204975 1.523693 0
M  V30 39 H -2.419018 -1.127063 1.512515 0
M  V30 40 H -3.614578 -3.442928 -1.188276 0
M  V30 41 H -3.939833 -2.931095 0.546845 0
M  V30 42 H -4.604132 -0.559029 0.714687 0
M  V30 43 H -3.743209 0.245207 -0.616923 0
M  V30 44 H -5.631393 1.397830 -1.048823 0
M  V30 45 H -6.468921 0.626085 0.290877 0
M  V30 46 H -6.965175 -1.732564 -0.283910 0
M  V30 47 H -7.692805 -1.994838 -1.955618 0
M  V30 48 H -5.411466 -1.662499 -2.880576 0
M  V30 49 H -5.578091 -3.184858 -1.934378 0
M  V30 50 H -1.732130 -2.731931 -2.427413 0
M  V30 51 H 0.477198 -1.794225 -2.358775 0
M  V30 52 H 1.707331 0.538731 1.462591 0
M  V30 53 H 1.773290 -1.578506 5.510167 0
M  V30 END ATOM
M  V30 BEGIN BOND
M  V30 1 2 1 2
M  V30 2 1 2 3
M  V30 3 2 3 4
M  V30 4 1 4 5
M  V30 5 2 5 6
M  V30 6 1 6 7
M  V30 7 1 7 8
M  V30 8 2 8 9
M  V30 9 1 9 10
M  V30 10 2 10 11
M  V30 11 1 11 12
M  V30 12 2 12 13
M  V30 13 1 13 14
M  V30 14 1 14 15
M  V30 15 2 15 16
M  V30 16 1 16 17
M  V30 17 2 17 18
M  V30 18 1 18 19
M  V30 19 1 19 20
M  V30 20 1 20 21
M  V30 21 1 21 22
M  V30 22 1 22 23
M  V30 23 1 23 24
M  V30 24 1 24 25
M  V30 25 1 18 26
M  V30 26 2 26 27
M  V30 27 2 14 28
M  V30 28 1 4 29
M  V30 29 2 29 30
M  V30 30 1 30 1
M  V30 31 1 9 5
M  V30 32 1 28 10
M  V30 33 1 27 15
M  V30 34 1 25 20
M  V30 35 1 1 31
M  V30 36 1 2 32
M  V30 37 1 3 33
M  V30 38 1 7 34
M  V30 39 1 8 35
M  V30 40 1 11 36
M  V30 41 1 12 37
M  V30 42 1 16 38
M  V30 43 1 17 39
M  V30 44 1 19 40
M  V30 45 1 19 41
M  V30 46 1 21 42
M  V30 47 1 21 43
M  V30 48 1 22 44
M  V30 49 1 22 45
M  V30 50 1 24 46
M  V30 51 1 24 47
M  V30 52 1 25 48
M  V30 53 1 25 49
M  V30 54 1 26 50
M  V30 55 1 27 51
M  V30 56 1 28 52
M  V30 57 1 30 53
M  V30 END BOND
M  V30 END CTAB
M  END
>  <Dataset>  (69) 
ChEMBL_Kinases

>  <Ligand_Instance>  (69) 
nan

>  <PDB_ID>  (69) 
nan

>  <Standardized_SMILES>  (69) 
c1ccc(-c2n[nH]cc2-c2ccnc(-c3ccc(CN4CCOCC4)cc3)c2)nc1

>  <Name>  (69) 
nan

>  <Pocket>  (69) 
nan

>  <ATP_Site>  (69) 
nan

>  <Peripheral>  (69) 
nan

>  <Num_H_Atoms_ProtBoundConf>  (69) 
nan

>  <Num_Resolved_Atoms>  (69) 
nan

>  <Num_Not_Resolved_Atoms>  (69) 
nan

$$$$
CHEMBL1237135
     RDKit          3D

  0  0  0  0  0  0  0  0  0  0999 V3000
M  V30 BEGIN CTAB
M  V30 COUNTS 44 47 0 0 0
M  V30 BEGIN ATOM
M  V30 1 C -2.634260 -1.669209 3.456999 0
M  V30 2 N -3.087897 -2.097042 2.176700 0
M  V30 3 C -2.133080 -1.802738 1.088081 0
M  V30 4 C -2.100586 -0.332502 0.931068 0
M  V30 5 C -1.284901 0.363627 -0.067548 0
M  V30 6 C 0.157135 0.250294 -0.110784 0
M  V30 7 C 0.748749 1.170803 -1.252750 0
M  V30 8 C 2.225391 1.171839 -1.179768 0
M  V30 9 C 2.803647 0.196953 -0.111337 0
M  V30 10 C 2.209417 0.712237 1.140669 0
M  V30 11 C 3.073731 1.106033 2.099167 0
M  V30 12 C 2.513843 1.692204 3.215651 0
M  V30 13 C 1.155452 1.843726 3.296989 0
M  V30 14 C 0.386042 1.398938 2.250839 0
M  V30 15 C 0.831423 0.788209 1.073503 0
M  V30 16 C 2.137062 -1.079522 -0.451771 0
M  V30 17 C 2.988625 -2.084224 -0.746725 0
M  V30 18 C 2.427171 -3.255763 -1.201867 0
M  V30 19 C 1.063523 -3.364568 -1.339520 0
M  V30 20 C 0.319154 -2.269168 -1.003362 0
M  V30 21 C 0.747842 -1.047073 -0.534950 0
M  V30 22 H -3.137441 -2.344922 4.210900 0
M  V30 23 H -2.978721 -0.637401 3.751346 0
M  V30 24 H -1.547035 -1.820449 3.624634 0
M  V30 25 H -3.251051 -3.122685 2.191879 0
M  V30 26 H -2.611240 -2.259351 0.199662 0
M  V30 27 H -1.187395 -2.311049 1.289974 0
M  V30 28 H -1.983039 0.054660 2.000733 0
M  V30 29 H -3.238934 -0.088582 0.711662 0
M  V30 30 H -1.776351 0.143572 -1.073559 0
M  V30 31 H -1.499266 1.495256 -0.006759 0
M  V30 32 H 0.327883 2.167228 -1.004466 0
M  V30 33 H 0.335545 0.811188 -2.212007 0
M  V30 34 H 2.644455 2.165334 -0.847080 0
M  V30 35 H 2.723870 0.973811 -2.144558 0
M  V30 36 H 3.876783 0.215993 -0.149882 0
M  V30 37 H 4.130257 0.975717 2.009643 0
M  V30 38 H 3.141385 2.029333 4.020830 0
M  V30 39 H 0.699727 2.300457 4.158927 0
M  V30 40 H -0.660104 1.598657 2.373208 0
M  V30 41 H 4.048477 -2.038342 -0.651698 0
M  V30 42 H 3.012154 -4.119984 -1.463223 0
M  V30 43 H 0.525967 -4.231878 -1.687115 0
M  V30 44 H -0.745520 -2.320437 -1.154749 0
M  V30 END ATOM
M  V30 BEGIN BOND
M  V30 1 1 1 2
M  V30 2 1 2 3
M  V30 3 1 3 4
M  V30 4 1 4 5
M  V30 5 1 5 6
M  V30 6 1 6 7
M  V30 7 1 7 8
M  V30 8 1 8 9
M  V30 9 1 9 10
M  V30 10 2 10 11
M  V30 11 1 11 12
M  V30 12 2 12 13
M  V30 13 1 13 14
M  V30 14 2 14 15
M  V30 15 1 9 16
M  V30 16 2 16 17
M  V30 17 1 17 18
M  V30 18 2 18 19
M  V30 19 1 19 20
M  V30 20 2 20 21
M  V30 21 1 15 6
M  V30 22 1 21 16
M  V30 23 1 21 6
M  V30 24 1 15 10
M  V30 25 1 1 22
M  V30 26 1 1 23
M  V30 27 1 1 24
M  V30 28 1 2 25
M  V30 29 1 3 26
M  V30 30 1 3 27
M  V30 31 1 4 28
M  V30 32 1 4 29
M  V30 33 1 5 30
M  V30 34 1 5 31
M  V30 35 1 7 32
M  V30 36 1 7 33
M  V30 37 1 8 34
M  V30 38 1 8 35
M  V30 39 1 9 36
M  V30 40 1 11 37
M  V30 41 1 12 38
M  V30 42 1 13 39
M  V30 43 1 14 40
M  V30 44 1 17 41
M  V30 45 1 18 42
M  V30 46 1 19 43
M  V30 47 1 20 44
M  V30 END BOND
M  V30 END CTAB
M  END
>  <Dataset>  (70) 
ChEMBL_Kinases

>  <Ligand_Instance>  (70) 
nan

>  <PDB_ID>  (70) 
nan

>  <Standardized_SMILES>  (70) 
CNCCCC12CCC(c3ccccc31)c1ccccc12

>  <Name>  (70) 
MAPROTILINE HYDROCHLORIDE

>  <Pocket>  (70) 
nan

>  <ATP_Site>  (70) 
nan

>  <Peripheral>  (70) 
nan

>  <Num_H_Atoms_ProtBoundConf>  (70) 
nan

>  <Num_Resolved_Atoms>  (70) 
nan

>  <Num_Not_Resolved_Atoms>  (70) 
nan

$$$$
CHEMBL1236962
     RDKit          3D

  0  0  0  0  0  0  0  0  0  0999 V3000
M  V30 BEGIN CTAB
M  V30 COUNTS 53 57 0 0 0
M  V30 BEGIN ATOM
M  V30 1 C 2.160585 -4.559259 4.257703 0
M  V30 2 O 1.545394 -4.638875 2.963714 0
M  V30 3 C 1.089980 -3.452350 2.385066 0
M  V30 4 N 1.216763 -2.267584 3.007860 0
M  V30 5 C 0.794021 -1.095375 2.492138 0
M  V30 6 C 0.206331 -1.194649 1.248475 0
M  V30 7 C -0.268476 0.055784 0.647565 0
M  V30 8 C -0.242420 0.157374 -0.741905 0
M  V30 9 C -0.668882 1.295587 -1.399200 0
M  V30 10 C -1.143182 2.388694 -0.683863 0
M  V30 11 N -1.566497 3.496870 -1.295331 0
M  V30 12 C -2.021173 4.524314 -0.575934 0
M  V30 13 C -2.042017 4.415201 0.786379 0
M  V30 14 C -1.613224 3.283822 1.490193 0
M  V30 15 C -1.681525 3.350873 2.942563 0
M  V30 16 C -0.741772 3.120885 3.926108 0
M  V30 17 C -1.128919 3.253048 5.247769 0
M  V30 18 N -2.384018 3.596381 5.586267 0
M  V30 19 N -3.316732 3.826570 4.678118 0
M  V30 20 C -2.969962 3.705199 3.363658 0
M  V30 21 C -1.156695 2.259006 0.689260 0
M  V30 22 C -0.739248 1.140766 1.356252 0
M  V30 23 C 0.049311 -2.380474 0.563020 0
M  V30 24 C 0.496154 -3.563988 1.124941 0
M  V30 25 N 0.334580 -4.767893 0.425491 0
M  V30 26 S -0.340610 -4.925780 -1.148550 0
M  V30 27 O -0.374900 -6.370075 -1.532893 0
M  V30 28 O -1.771730 -4.426594 -1.173894 0
M  V30 29 C 0.566336 -4.077176 -2.369825 0
M  V30 30 C 0.033823 -3.072320 -3.151099 0
M  V30 31 C 0.700903 -2.367195 -4.131060 0
M  V30 32 C 2.031678 -2.702357 -4.348752 0
M  V30 33 F 2.673813 -2.006682 -5.309099 0
M  V30 34 C 2.593430 -3.699185 -3.587644 0
M  V30 35 C 1.888125 -4.384519 -2.611648 0
M  V30 36 F 2.519071 -5.354273 -1.906434 0
M  V30 37 H 2.231162 -5.528500 4.748448 0
M  V30 38 H 1.590718 -3.800090 4.825819 0
M  V30 39 H 3.185115 -4.150349 4.095339 0
M  V30 40 H 0.902658 -0.155513 3.002898 0
M  V30 41 H 0.103128 -0.621549 -1.410802 0
M  V30 42 H -0.659778 1.400529 -2.466934 0
M  V30 43 H -2.365647 5.425319 -1.072986 0
M  V30 44 H -2.423292 5.281634 1.347530 0
M  V30 45 H 0.216985 2.865151 3.523893 0
M  V30 46 H -0.329854 3.054541 5.967304 0
M  V30 47 H -3.825096 3.920435 2.718517 0
M  V30 48 H -0.761613 1.045875 2.426561 0
M  V30 49 H -0.419487 -2.331581 -0.389138 0
M  V30 50 H 0.670380 -5.631804 0.947691 0
M  V30 51 H -1.022518 -2.846114 -2.938872 0
M  V30 52 H 0.124080 -1.609490 -4.647422 0
M  V30 53 H 3.640810 -3.896247 -3.825651 0
M  V30 END ATOM
M  V30 BEGIN BOND
M  V30 1 1 1 2
M  V30 2 1 2 3
M  V30 3 2 3 4
M  V30 4 1 4 5
M  V30 5 2 5 6
M  V30 6 1 6 7
M  V30 7 2 7 8
M  V30 8 1 8 9
M  V30 9 2 9 10
M  V30 10 1 10 11
M  V30 11 2 11 12
M  V30 12 1 12 13
M  V30 13 2 13 14
M  V30 14 1 14 15
M  V30 15 2 15 16
M  V30 16 1 16 17
M  V30 17 2 17 18
M  V30 18 1 18 19
M  V30 19 2 19 20
M  V30 20 1 14 21
M  V30 21 2 21 22
M  V30 22 1 6 23
M  V30 23 2 23 24
M  V30 24 1 24 25
M  V30 25 1 25 26
M  V30 26 2 26 27
M  V30 27 2 26 28
M  V30 28 1 26 29
M  V30 29 2 29 30
M  V30 30 1 30 31
M  V30 31 2 31 32
M  V30 32 1 32 33
M  V30 33 1 32 34
M  V30 34 2 34 35
M  V30 35 1 35 36
M  V30 36 1 24 3
M  V30 37 1 35 29
M  V30 38 1 22 7
M  V30 39 1 21 10
M  V30 40 1 20 15
M  V30 41 1 1 37
M  V30 42 1 1 38
M  V30 43 1 1 39
M  V30 44 1 5 40
M  V30 45 1 8 41
M  V30 46 1 9 42
M  V30 47 1 12 43
M  V30 48 1 13 44
M  V30 49 1 16 45
M  V30 50 1 17 46
M  V30 51 1 20 47
M  V30 52 1 22 48
M  V30 53 1 23 49
M  V30 54 1 25 50
M  V30 55 1 30 51
M  V30 56 1 31 52
M  V30 57 1 34 53
M  V30 END BOND
M  V30 END CTAB
M  END
>  <Dataset>  (71) 
ChEMBL_Kinases

>  <Ligand_Instance>  (71) 
nan

>  <PDB_ID>  (71) 
nan

>  <Standardized_SMILES>  (71) 
COc1ncc(-c2ccc3nccc(-c4ccnnc4)c3c2)cc1NS(=O)(=O)c1ccc(F)cc1F

>  <Name>  (71) 
OMIPALISIB

>  <Pocket>  (71) 
nan

>  <ATP_Site>  (71) 
nan

>  <Peripheral>  (71) 
nan

>  <Num_H_Atoms_ProtBoundConf>  (71) 
nan

>  <Num_Resolved_Atoms>  (71) 
nan

>  <Num_Not_Resolved_Atoms>  (71) 
nan

$$$$
CHEMBL1236539
     RDKit          3D

  0  0  0  0  0  0  0  0  0  0999 V3000
M  V30 BEGIN CTAB
M  V30 COUNTS 62 69 0 0 0
M  V30 BEGIN ATOM
M  V30 1 C 4.961729 -2.604351 0.670031 0
M  V30 2 N 4.280102 -1.463408 0.090409 0
M  V30 3 C 3.120548 -1.102127 0.846260 0 CFG=2
M  V30 4 C 2.086308 -2.240144 0.927606 0
M  V30 5 C 1.105416 -1.742754 1.950262 0 CFG=1
M  V30 6 O 1.182979 -0.443694 2.255840 0
M  V30 7 C 1.342300 0.511671 1.271238 0 CFG=1
M  V30 8 C 1.994721 1.737836 1.887390 0
M  V30 9 C 2.339567 0.038701 0.241991 0 CFG=2
M  V30 10 O 1.784023 -0.273649 -0.975513 0
M  V30 11 C 2.296505 0.393407 -2.058547 0
M  V30 12 N 0.038653 0.750643 0.705400 0
M  V30 13 C -0.420220 1.877453 0.133157 0
M  V30 14 C 0.152094 3.104811 -0.124726 0
M  V30 15 C -0.446731 4.168704 -0.725698 0
M  V30 16 C -1.764444 4.029960 -1.129069 0
M  V30 17 C -2.390841 2.822801 -0.898293 0
M  V30 18 C -1.731025 1.781849 -0.285132 0
M  V30 19 C -2.143461 0.508706 0.034930 0
M  V30 20 C -3.334348 -0.213830 -0.120120 0
M  V30 21 C -3.375415 -1.512534 0.335053 0
M  V30 22 C -2.292236 -2.086002 0.917140 0
M  V30 23 C -2.130154 -3.344827 1.413228 0
M  V30 24 C -2.795090 -4.520297 1.597135 0
M  V30 25 C -2.290563 -5.666033 2.169529 0
M  V30 26 C -0.975274 -5.639470 2.608773 0
M  V30 27 C -0.245299 -4.482314 2.453350 0
M  V30 28 C -0.829540 -3.383201 1.870088 0
M  V30 29 N -0.250125 -2.212937 1.658028 0
M  V30 30 C -1.149537 -1.376064 1.058987 0
M  V30 31 C -1.038483 -0.057771 0.624733 0
M  V30 32 C -4.713500 -1.968758 0.076226 0
M  V30 33 O -5.361237 -3.007985 0.244377 0
M  V30 34 N -5.473370 -0.947067 -0.529758 0
M  V30 35 C -4.617103 0.227104 -0.769094 0 CFG=2
M  V30 36 O -4.498503 0.463221 -2.127022 0
M  V30 37 H 4.507220 -2.815555 1.677618 0
M  V30 38 H 6.027736 -2.391437 0.881232 0
M  V30 39 H 4.840902 -3.515834 0.071091 0
M  V30 40 H 4.135579 -1.559508 -0.914687 0
M  V30 41 H 3.392492 -0.874682 1.890982 0
M  V30 42 H 2.568511 -3.189198 1.162121 0
M  V30 43 H 1.577759 -2.261119 -0.070268 0
M  V30 44 H 1.380379 -2.304522 2.892841 0
M  V30 45 H 2.520306 1.423459 2.863858 0
M  V30 46 H 1.251874 2.432169 2.318781 0
M  V30 47 H 2.829626 2.149942 1.337589 0
M  V30 48 H 3.125988 0.815662 0.002684 0
M  V30 49 H 1.754457 0.043592 -2.985538 0
M  V30 50 H 3.362965 0.277144 -2.249488 0
M  V30 51 H 2.045226 1.471389 -1.913002 0
M  V30 52 H 1.179415 3.263122 0.154017 0
M  V30 53 H 0.041822 5.108784 -0.905484 0
M  V30 54 H -2.258872 4.863348 -1.608253 0
M  V30 55 H -3.418616 2.737935 -1.214328 0
M  V30 56 H -3.804721 -4.573641 1.269601 0
M  V30 57 H -2.886522 -6.559209 2.278397 0
M  V30 58 H -0.575372 -6.537524 3.058952 0
M  V30 59 H 0.769107 -4.489304 2.801698 0
M  V30 60 H -6.475565 -0.829691 -0.842085 0
M  V30 61 H -5.095923 1.070611 -0.244146 0
M  V30 62 H -5.015399 1.294179 -2.328666 0
M  V30 END ATOM
M  V30 BEGIN BOND
M  V30 1 1 1 2
M  V30 2 1 2 3
M  V30 3 1 3 4
M  V30 4 1 4 5
M  V30 5 1 5 6
M  V30 6 1 6 7
M  V30 7 1 7 8 CFG=1
M  V30 8 1 7 9
M  V30 9 1 9 10
M  V30 10 1 10 11
M  V30 11 1 7 12
M  V30 12 1 12 13
M  V30 13 2 13 14
M  V30 14 1 14 15
M  V30 15 2 15 16
M  V30 16 1 16 17
M  V30 17 2 17 18
M  V30 18 1 18 19
M  V30 19 2 19 20
M  V30 20 1 20 21
M  V30 21 2 21 22
M  V30 22 1 22 23
M  V30 23 2 23 24
M  V30 24 1 24 25
M  V30 25 2 25 26
M  V30 26 1 26 27
M  V30 27 2 27 28
M  V30 28 1 28 29
M  V30 29 1 29 30
M  V30 30 2 30 31
M  V30 31 1 21 32
M  V30 32 2 32 33
M  V30 33 1 32 34
M  V30 34 1 34 35
M  V30 35 1 35 36
M  V30 36 1 9 3
M  V30 37 1 31 12
M  V30 38 1 29 5
M  V30 39 1 18 13
M  V30 40 1 31 19
M  V30 41 1 35 20
M  V30 42 1 30 22
M  V30 43 1 28 23
M  V30 44 1 1 37
M  V30 45 1 1 38
M  V30 46 1 1 39
M  V30 47 1 2 40
M  V30 48 1 3 41 CFG=1
M  V30 49 1 4 42
M  V30 50 1 4 43
M  V30 51 1 5 44 CFG=1
M  V30 52 1 8 45
M  V30 53 1 8 46
M  V30 54 1 8 47
M  V30 55 1 9 48 CFG=3
M  V30 56 1 11 49
M  V30 57 1 11 50
M  V30 58 1 11 51
M  V30 59 1 14 52
M  V30 60 1 15 53
M  V30 61 1 16 54
M  V30 62 1 17 55
M  V30 63 1 24 56
M  V30 64 1 25 57
M  V30 65 1 26 58
M  V30 66 1 27 59
M  V30 67 1 34 60
M  V30 68 1 35 61 CFG=1
M  V30 69 1 36 62
M  V30 END BOND
M  V30 END CTAB
M  END
>  <Dataset>  (72) 
ChEMBL_Kinases

>  <Ligand_Instance>  (72) 
nan

>  <PDB_ID>  (72) 
nan

>  <Standardized_SMILES>  (72) 
CN[C@@H]1C[C@H]2O[C@@](C)([C@@H]1OC)n1c3ccccc3c3c4c(c5c6ccccc6n2c5c31)C(=O)N[C@@H]4O

>  <Name>  (72) 
nan

>  <Pocket>  (72) 
nan

>  <ATP_Site>  (72) 
nan

>  <Peripheral>  (72) 
nan

>  <Num_H_Atoms_ProtBoundConf>  (72) 
nan

>  <Num_Resolved_Atoms>  (72) 
nan

>  <Num_Not_Resolved_Atoms>  (72) 
nan

$$$$
CHEMBL1236095
     RDKit          3D

  0  0  0  0  0  0  0  0  0  0999 V3000
M  V30 BEGIN CTAB
M  V30 COUNTS 88 93 0 0 0
M  V30 BEGIN ATOM
M  V30 1 C 3.384532 2.629453 0.769970 0
M  V30 2 C 3.002097 4.099425 0.903569 0
M  V30 3 C 3.327831 4.605173 2.284951 0
M  V30 4 C 4.455061 5.433030 2.383953 0
M  V30 5 C 4.696012 5.868682 3.667279 0
M  V30 6 C 3.959451 5.571690 4.789353 0
M  V30 7 C 2.861495 4.754434 4.635582 0
M  V30 8 C 1.969361 4.350953 5.728906 0
M  V30 9 C 2.126892 2.954532 6.215793 0
M  V30 10 C 2.531776 4.261162 3.387293 0
M  V30 11 N 1.463518 3.409411 3.034661 0
M  V30 12 C 0.107212 3.373550 2.614929 0
M  V30 13 O -0.530996 4.448697 2.454548 0
M  V30 14 C -0.464532 2.044918 2.390150 0
M  V30 15 N 0.125761 0.821438 2.567652 0
M  V30 16 N -0.724982 -0.126164 2.226673 0
M  V30 17 C -0.288428 -1.480806 2.334887 0
M  V30 18 C -1.840829 0.471202 1.837732 0
M  V30 19 C -1.743509 1.844775 1.916696 0
M  V30 20 C -2.785822 2.815034 1.554621 0
M  V30 21 C -4.065764 2.196862 1.120201 0
M  V30 22 C -4.088265 0.737988 1.016159 0
M  V30 23 C -5.250849 0.159476 0.528934 0
M  V30 24 N -5.351016 -1.174309 0.413158 0
M  V30 25 C -4.366517 -2.019067 0.749897 0
M  V30 26 N -4.248870 -3.436122 0.687064 0
M  V30 27 C -3.405960 -4.109586 -0.269692 0
M  V30 28 C -2.668168 -3.239736 -1.088017 0
M  V30 29 C -1.825503 -3.853458 -1.992986 0
M  V30 30 C -1.666802 -5.199956 -2.140311 0
M  V30 31 C -0.787815 -5.836352 -3.098215 0
M  V30 32 O -0.676080 -7.081661 -3.248913 0
M  V30 33 N 0.014394 -5.016363 -3.936472 0
M  V30 34 C 0.987979 -5.208812 -4.988387 0
M  V30 35 C 2.381652 -4.799566 -4.567788 0
M  V30 36 C 2.747076 -3.398888 -4.931010 0
M  V30 37 N 1.530118 -2.639406 -5.122358 0
M  V30 38 C 1.881330 -1.249360 -5.249244 0
M  V30 39 C 0.910122 -3.094575 -6.337427 0
M  V30 40 C 0.578830 -4.569760 -6.296874 0
M  V30 41 C -2.391384 -6.038025 -1.336960 0
M  V30 42 C -3.252991 -5.482425 -0.411437 0
M  V30 43 O -4.039744 -6.269016 0.448899 0
M  V30 44 C -5.317417 -6.724852 0.027530 0
M  V30 45 F -6.095470 -5.619676 -0.245333 0
M  V30 46 F -5.193816 -7.466194 -1.149607 0
M  V30 47 F -5.892133 -7.559468 0.953541 0
M  V30 48 N -3.193588 -1.498760 1.237856 0
M  V30 49 C -3.073354 -0.141288 1.361809 0
M  V30 50 H 2.487785 1.979177 0.870605 0
M  V30 51 H 3.963123 2.413387 -0.137387 0
M  V30 52 H 4.040214 2.369030 1.624323 0
M  V30 53 H 3.558628 4.661332 0.145993 0
M  V30 54 H 1.909964 4.248093 0.690296 0
M  V30 55 H 5.047246 5.682012 1.529295 0
M  V30 56 H 5.575894 6.520657 3.769092 0
M  V30 57 H 4.202022 5.946877 5.774855 0
M  V30 58 H 0.931518 4.587034 5.419932 0
M  V30 59 H 2.161683 5.026078 6.616277 0
M  V30 60 H 3.032271 2.432897 5.884477 0
M  V30 61 H 2.147457 2.895808 7.340446 0
M  V30 62 H 1.184478 2.395281 5.948204 0
M  V30 63 H 1.990059 2.491400 3.174153 0
M  V30 64 H -0.029571 -1.700343 3.384846 0
M  V30 65 H -0.988666 -2.225837 1.960334 0
M  V30 66 H 0.665966 -1.623827 1.751594 0
M  V30 67 H -2.395695 3.558817 0.810927 0
M  V30 68 H -2.992306 3.440189 2.469802 0
M  V30 69 H -4.913377 2.534769 1.796263 0
M  V30 70 H -4.354409 2.686357 0.141251 0
M  V30 71 H -6.131517 0.678629 0.216720 0
M  V30 72 H -4.864237 -3.779236 1.429521 0
M  V30 73 H -2.759343 -2.187104 -1.006845 0
M  V30 74 H -1.269669 -3.176205 -2.612069 0
M  V30 75 H 0.023568 -3.990152 -3.912972 0
M  V30 76 H 1.052216 -6.303815 -5.174724 0
M  V30 77 H 2.456930 -4.940797 -3.469662 0
M  V30 78 H 3.152881 -5.495288 -5.001674 0
M  V30 79 H 3.284467 -3.388623 -5.921489 0
M  V30 80 H 3.388621 -2.971856 -4.134673 0
M  V30 81 H 1.686658 -0.764995 -4.248858 0
M  V30 82 H 1.319550 -0.737463 -6.063298 0
M  V30 83 H 2.976095 -1.087363 -5.440375 0
M  V30 84 H 0.034896 -2.452055 -6.525464 0
M  V30 85 H 1.621158 -2.918984 -7.173282 0
M  V30 86 H 0.961071 -5.107551 -7.190760 0
M  V30 87 H -0.528977 -4.639829 -6.326333 0
M  V30 88 H -2.316015 -7.116594 -1.397906 0
M  V30 END ATOM
M  V30 BEGIN BOND
M  V30 1 1 1 2
M  V30 2 1 2 3
M  V30 3 2 3 4
M  V30 4 1 4 5
M  V30 5 2 5 6
M  V30 6 1 6 7
M  V30 7 1 7 8
M  V30 8 1 8 9
M  V30 9 2 7 10
M  V30 10 1 10 11
M  V30 11 1 11 12
M  V30 12 2 12 13
M  V30 13 1 12 14
M  V30 14 2 14 15
M  V30 15 1 15 16
M  V30 16 1 16 17
M  V30 17 1 16 18
M  V30 18 2 18 19
M  V30 19 1 19 20
M  V30 20 1 20 21
M  V30 21 1 21 22
M  V30 22 2 22 23
M  V30 23 1 23 24
M  V30 24 2 24 25
M  V30 25 1 25 26
M  V30 26 1 26 27
M  V30 27 2 27 28
M  V30 28 1 28 29
M  V30 29 2 29 30
M  V30 30 1 30 31
M  V30 31 2 31 32
M  V30 32 1 31 33
M  V30 33 1 33 34
M  V30 34 1 34 35
M  V30 35 1 35 36
M  V30 36 1 36 37
M  V30 37 1 37 38
M  V30 38 1 37 39
M  V30 39 1 39 40
M  V30 40 1 30 41
M  V30 41 2 41 42
M  V30 42 1 42 43
M  V30 43 1 43 44
M  V30 44 1 44 45
M  V30 45 1 44 46
M  V30 46 1 44 47
M  V30 47 1 25 48
M  V30 48 2 48 49
M  V30 49 1 10 3
M  V30 50 1 19 14
M  V30 51 1 49 22
M  V30 52 1 49 18
M  V30 53 1 42 27
M  V30 54 1 40 34
M  V30 55 1 1 50
M  V30 56 1 1 51
M  V30 57 1 1 52
M  V30 58 1 2 53
M  V30 59 1 2 54
M  V30 60 1 4 55
M  V30 61 1 5 56
M  V30 62 1 6 57
M  V30 63 1 8 58
M  V30 64 1 8 59
M  V30 65 1 9 60
M  V30 66 1 9 61
M  V30 67 1 9 62
M  V30 68 1 11 63
M  V30 69 1 17 64
M  V30 70 1 17 65
M  V30 71 1 17 66
M  V30 72 1 20 67
M  V30 73 1 20 68
M  V30 74 1 21 69
M  V30 75 1 21 70
M  V30 76 1 23 71
M  V30 77 1 26 72
M  V30 78 1 28 73
M  V30 79 1 29 74
M  V30 80 1 33 75
M  V30 81 1 34 76
M  V30 82 1 35 77
M  V30 83 1 35 78
M  V30 84 1 36 79
M  V30 85 1 36 80
M  V30 86 1 38 81
M  V30 87 1 38 82
M  V30 88 1 38 83
M  V30 89 1 39 84
M  V30 90 1 39 85
M  V30 91 1 40 86
M  V30 92 1 40 87
M  V30 93 1 41 88
M  V30 END BOND
M  V30 END CTAB
M  END
>  <Dataset>  (73) 
ChEMBL_Kinases

>  <Ligand_Instance>  (73) 
nan

>  <PDB_ID>  (73) 
nan

>  <Standardized_SMILES>  (73) 
CCc1cccc(CC)c1NC(=O)c1nn(C)c2c1CCc1cnc(Nc3ccc(C(=O)NC4CCN(C)CC4)cc3OC(F)(F)F)nc1-2

>  <Name>  (73) 
nan

>  <Pocket>  (73) 
nan

>  <ATP_Site>  (73) 
nan

>  <Peripheral>  (73) 
nan

>  <Num_H_Atoms_ProtBoundConf>  (73) 
nan

>  <Num_Resolved_Atoms>  (73) 
nan

>  <Num_Not_Resolved_Atoms>  (73) 
nan

$$$$
CHEMBL1235698
     RDKit          3D

  0  0  0  0  0  0  0  0  0  0999 V3000
M  V30 BEGIN CTAB
M  V30 COUNTS 24 25 0 0 0
M  V30 BEGIN ATOM
M  V30 1 C 1.782704 -2.449404 1.825984 0
M  V30 2 N 0.973699 -2.233083 0.644228 0
M  V30 3 C -0.106534 -1.302538 0.877962 0 CFG=2
M  V30 4 C -0.876840 -1.156572 -0.416615 0
M  V30 5 C -0.271683 0.041891 -1.103151 0
M  V30 6 C 0.257563 0.826536 0.043088 0
M  V30 7 C 0.621151 2.158364 0.020679 0
M  V30 8 C 1.105273 2.812276 1.134340 0
M  V30 9 C 1.204180 2.047000 2.280039 0
M  V30 10 C 0.842423 0.696684 2.328064 0
M  V30 11 C 0.361301 0.072404 1.195181 0
M  V30 12 H 1.192555 -2.280316 2.763263 0
M  V30 13 H 2.673677 -1.805836 1.743238 0
M  V30 14 H 2.074450 -3.505686 1.854580 0
M  V30 15 H 0.520043 -3.112831 0.307905 0
M  V30 16 H -0.802909 -1.688638 1.653648 0
M  V30 17 H -0.725754 -2.054659 -1.078918 0
M  V30 18 H -1.953529 -0.952635 -0.245719 0
M  V30 19 H -1.013654 0.613562 -1.691925 0
M  V30 20 H 0.548852 -0.278628 -1.758426 0
M  V30 21 H 0.547346 2.776343 -0.882173 0
M  V30 22 H 1.408158 3.833186 1.206169 0
M  V30 23 H 1.568354 2.428243 3.230838 0
M  V30 24 H 0.921314 0.106083 3.221732 0
M  V30 END ATOM
M  V30 BEGIN BOND
M  V30 1 1 1 2
M  V30 2 1 2 3
M  V30 3 1 3 4
M  V30 4 1 4 5
M  V30 5 1 5 6
M  V30 6 2 6 7
M  V30 7 1 7 8
M  V30 8 2 8 9
M  V30 9 1 9 10
M  V30 10 2 10 11
M  V30 11 1 11 3
M  V30 12 1 11 6
M  V30 13 1 1 12
M  V30 14 1 1 13
M  V30 15 1 1 14
M  V30 16 1 2 15
M  V30 17 1 3 16 CFG=1
M  V30 18 1 4 17
M  V30 19 1 4 18
M  V30 20 1 5 19
M  V30 21 1 5 20
M  V30 22 1 7 21
M  V30 23 1 8 22
M  V30 24 1 9 23
M  V30 25 1 10 24
M  V30 END BOND
M  V30 END CTAB
M  END
>  <Dataset>  (74) 
ChEMBL_Kinases

>  <Ligand_Instance>  (74) 
nan

>  <PDB_ID>  (74) 
nan

>  <Standardized_SMILES>  (74) 
CN[C@@H]1CCc2ccccc21

>  <Name>  (74) 
nan

>  <Pocket>  (74) 
nan

>  <ATP_Site>  (74) 
nan

>  <Peripheral>  (74) 
nan

>  <Num_H_Atoms_ProtBoundConf>  (74) 
nan

>  <Num_Resolved_Atoms>  (74) 
nan

>  <Num_Not_Resolved_Atoms>  (74) 
nan

$$$$
CHEMBL1235226
     RDKit          3D

  0  0  0  0  0  0  0  0  0  0999 V3000
M  V30 BEGIN CTAB
M  V30 COUNTS 17 16 0 0 0
M  V30 BEGIN ATOM
M  V30 1 O -0.483184 -0.347691 2.725677 0
M  V30 2 C -0.039693 -1.019698 1.580906 0
M  V30 3 C -0.145024 -0.172843 0.337898 0
M  V30 4 O 0.491575 0.940397 0.291654 0
M  V30 5 C 1.665178 1.459021 0.317955 0
M  V30 6 C 2.617643 1.347418 1.457800 0
M  V30 7 O 3.028212 0.089322 1.816470 0
M  V30 8 H -1.450520 -0.465479 2.780935 0
M  V30 9 H 0.955391 -1.414583 1.771102 0
M  V30 10 H -0.731821 -1.923924 1.455240 0
M  V30 11 H -1.279233 0.003321 0.181578 0
M  V30 12 H 0.041656 -0.901382 -0.523660 0
M  V30 13 H 2.255560 1.252571 -0.664761 0
M  V30 14 H 1.540770 2.609568 0.194183 0
M  V30 15 H 3.514390 1.981843 1.238896 0
M  V30 16 H 2.138552 1.815465 2.353970 0
M  V30 17 H 3.597498 -0.346271 1.161183 0
M  V30 END ATOM
M  V30 BEGIN BOND
M  V30 1 1 1 2
M  V30 2 1 2 3
M  V30 3 1 3 4
M  V30 4 1 4 5
M  V30 5 1 5 6
M  V30 6 1 6 7
M  V30 7 1 1 8
M  V30 8 1 2 9
M  V30 9 1 2 10
M  V30 10 1 3 11
M  V30 11 1 3 12
M  V30 12 1 5 13
M  V30 13 1 5 14
M  V30 14 1 6 15
M  V30 15 1 6 16
M  V30 16 1 7 17
M  V30 END BOND
M  V30 END CTAB
M  END
>  <Dataset>  (75) 
ChEMBL_Kinases

>  <Ligand_Instance>  (75) 
nan

>  <PDB_ID>  (75) 
nan

>  <Standardized_SMILES>  (75) 
OCCOCCO

>  <Name>  (75) 
DI(HYDROXYETHYL)ETHER

>  <Pocket>  (75) 
nan

>  <ATP_Site>  (75) 
nan

>  <Peripheral>  (75) 
nan

>  <Num_H_Atoms_ProtBoundConf>  (75) 
nan

>  <Num_Resolved_Atoms>  (75) 
nan

>  <Num_Not_Resolved_Atoms>  (75) 
nan

$$$$
CHEMBL1235110
     RDKit          3D

  0  0  0  0  0  0  0  0  0  0999 V3000
M  V30 BEGIN CTAB
M  V30 COUNTS 49 51 0 0 0
M  V30 BEGIN ATOM
M  V30 1 C 1.225884 -6.127377 2.249300 0
M  V30 2 C 1.003428 -4.666568 2.049039 0
M  V30 3 C 1.730907 -3.749751 2.776124 0
M  V30 4 C 1.498549 -2.407683 2.564322 0
M  V30 5 C 0.546240 -2.068320 1.631761 0
M  V30 6 C -0.216383 -2.924048 0.870598 0
M  V30 7 N -1.179421 -2.526787 -0.085291 0
M  V30 8 C -1.458367 -1.239270 -0.572669 0
M  V30 9 N -0.847553 -0.088728 -0.246375 0
M  V30 10 C -1.195438 1.091802 -0.779380 0
M  V30 11 N -0.556231 2.310406 -0.447398 0
M  V30 12 C 0.534734 2.527431 0.475433 0 CFG=2
M  V30 13 C 1.726518 1.696681 0.044572 0
M  V30 14 C 2.987399 2.147195 0.777558 0
M  V30 15 C 2.635406 2.659256 2.162426 0
M  V30 16 C 1.460051 1.803413 2.634087 0
M  V30 17 C 0.234686 2.276205 1.902971 0 CFG=2
M  V30 18 N -0.861548 1.373814 2.161488 0
M  V30 19 N -2.200427 1.182936 -1.691177 0
M  V30 20 C -2.862739 0.082618 -2.072508 0
M  V30 21 C -2.466362 -1.097722 -1.496514 0
M  V30 22 C -3.248656 -2.229509 -1.974243 0
M  V30 23 N -4.299611 -2.181059 -2.931422 0
M  V30 24 O -3.452951 -3.460937 -1.911112 0
M  V30 25 C 0.066131 -4.249811 1.132103 0
M  V30 26 H 0.283841 -6.676896 2.008889 0
M  V30 27 H 2.056748 -6.444252 1.603355 0
M  V30 28 H 1.482653 -6.322694 3.305068 0
M  V30 29 H 2.464503 -4.060288 3.493994 0
M  V30 30 H 2.055179 -1.684616 3.121067 0
M  V30 31 H 0.407216 -1.005789 1.513911 0
M  V30 32 H -1.729310 -3.336033 -0.443662 0
M  V30 33 H -0.900080 3.204976 -0.920534 0
M  V30 34 H 0.872352 3.607247 0.390107 0
M  V30 35 H 1.892011 1.908637 -1.028522 0
M  V30 36 H 1.513703 0.645265 0.225718 0
M  V30 37 H 3.629868 1.256273 0.876391 0
M  V30 38 H 3.469263 2.933662 0.193967 0
M  V30 39 H 2.252233 3.708494 2.072795 0
M  V30 40 H 3.436337 2.560441 2.897156 0
M  V30 41 H 1.325520 2.060666 3.708088 0
M  V30 42 H 1.692287 0.752801 2.470709 0
M  V30 43 H -0.088774 3.256220 2.364503 0
M  V30 44 H -1.761866 1.867054 2.335847 0
M  V30 45 H -0.648175 0.654404 2.886667 0
M  V30 46 H -3.650593 0.200820 -2.796194 0
M  V30 47 H -4.437573 -2.286816 -3.959844 0
M  V30 48 H -5.348011 -2.007978 -2.881931 0
M  V30 49 H -0.480677 -5.033237 0.584361 0
M  V30 END ATOM
M  V30 BEGIN BOND
M  V30 1 1 1 2
M  V30 2 2 2 3
M  V30 3 1 3 4
M  V30 4 2 4 5
M  V30 5 1 5 6
M  V30 6 1 6 7
M  V30 7 1 7 8
M  V30 8 2 8 9
M  V30 9 1 9 10
M  V30 10 1 10 11
M  V30 11 1 11 12
M  V30 12 1 12 13
M  V30 13 1 13 14
M  V30 14 1 14 15
M  V30 15 1 15 16
M  V30 16 1 16 17
M  V30 17 1 17 18
M  V30 18 2 10 19
M  V30 19 1 19 20
M  V30 20 2 20 21
M  V30 21 1 21 22
M  V30 22 1 22 23
M  V30 23 2 22 24
M  V30 24 2 6 25
M  V30 25 1 25 2
M  V30 26 1 21 8
M  V30 27 1 17 12
M  V30 28 1 1 26
M  V30 29 1 1 27
M  V30 30 1 1 28
M  V30 31 1 3 29
M  V30 32 1 4 30
M  V30 33 1 5 31
M  V30 34 1 7 32
M  V30 35 1 11 33
M  V30 36 1 12 34 CFG=1
M  V30 37 1 13 35
M  V30 38 1 13 36
M  V30 39 1 14 37
M  V30 40 1 14 38
M  V30 41 1 15 39
M  V30 42 1 15 40
M  V30 43 1 16 41
M  V30 44 1 16 42
M  V30 45 1 17 43 CFG=1
M  V30 46 1 18 44
M  V30 47 1 18 45
M  V30 48 1 20 46
M  V30 49 1 23 47
M  V30 50 1 23 48
M  V30 51 1 25 49
M  V30 END BOND
M  V30 END CTAB
M  END
>  <Dataset>  (76) 
ChEMBL_Kinases

>  <Ligand_Instance>  (76) 
nan

>  <PDB_ID>  (76) 
nan

>  <Standardized_SMILES>  (76) 
Cc1cccc(Nc2nc(N[C@@H]3CCCC[C@@H]3N)ncc2C(N)=O)c1

>  <Name>  (76) 
nan

>  <Pocket>  (76) 
nan

>  <ATP_Site>  (76) 
nan

>  <Peripheral>  (76) 
nan

>  <Num_H_Atoms_ProtBoundConf>  (76) 
nan

>  <Num_Resolved_Atoms>  (76) 
nan

>  <Num_Not_Resolved_Atoms>  (76) 
nan

$$$$
CHEMBL1234931
     RDKit          3D

  0  0  0  0  0  0  0  0  0  0999 V3000
M  V30 BEGIN CTAB
M  V30 COUNTS 48 51 0 0 0
M  V30 BEGIN ATOM
M  V30 1 C 2.311446 1.612380 3.225796 0
M  V30 2 C 2.086114 2.089203 1.841166 0
M  V30 3 C 2.876071 3.009752 1.183938 0
M  V30 4 C 2.589746 3.404861 -0.128359 0
M  V30 5 C 1.480456 2.830628 -0.734397 0
M  V30 6 C 1.216270 3.266895 -2.099523 0
M  V30 7 O 1.979749 4.114984 -2.631797 0
M  V30 8 N 0.146747 2.818135 -2.923116 0
M  V30 9 C 0.238379 3.487853 -4.194013 0
M  V30 10 C -0.414918 4.696273 -4.368952 0
M  V30 11 C -0.156265 5.100857 -5.661275 0
M  V30 12 O 0.603432 4.177550 -6.200912 0
M  V30 13 N 0.853597 3.215021 -5.363175 0
M  V30 14 C 0.686416 1.910267 -0.084219 0
M  V30 15 C 0.989165 1.536088 1.210685 0
M  V30 16 N 0.104368 0.583004 1.782822 0
M  V30 17 C 0.396725 -0.794021 1.616000 0
M  V30 18 O 1.399322 -1.179706 0.986684 0
M  V30 19 C -0.503843 -1.782583 2.198707 0
M  V30 20 C -1.651142 -1.534962 2.926959 0
M  V30 21 N -2.204975 -2.719124 3.291407 0
M  V30 22 N -1.458761 -3.719638 2.826029 0
M  V30 23 C -1.783025 -5.088318 3.046460 0
M  V30 24 C -1.602709 -5.787422 4.241037 0
M  V30 25 C -1.975128 -7.117289 4.274322 0
M  V30 26 C -2.508741 -7.765658 3.188740 0
M  V30 27 C -2.701654 -7.096894 1.981932 0
M  V30 28 C -2.315352 -5.756614 1.982790 0
M  V30 29 C -0.429127 -3.160750 2.164671 0
M  V30 30 N 0.594784 -3.906245 1.519055 0
M  V30 31 H 2.074242 0.563167 3.382663 0
M  V30 32 H 1.760328 2.307293 3.892394 0
M  V30 33 H 3.389751 1.771632 3.451737 0
M  V30 34 H 3.709617 3.387130 1.754547 0
M  V30 35 H 3.242045 4.129240 -0.594187 0
M  V30 36 H -0.505123 2.120234 -2.523535 0
M  V30 37 H -1.027748 5.312535 -3.737642 0
M  V30 38 H -0.405101 5.934184 -6.302740 0
M  V30 39 H -0.146143 1.515220 -0.614763 0
M  V30 40 H -0.769601 0.840696 2.332264 0
M  V30 41 H -2.057481 -0.552095 3.176418 0
M  V30 42 H -1.178822 -5.222437 5.059636 0
M  V30 43 H -1.829311 -7.649492 5.210362 0
M  V30 44 H -2.784073 -8.793749 3.253916 0
M  V30 45 H -3.117089 -7.580514 1.118029 0
M  V30 46 H -2.481693 -5.267052 1.021654 0
M  V30 47 H 0.752435 -4.920049 1.681529 0
M  V30 48 H 1.270648 -3.507680 0.832977 0
M  V30 END ATOM
M  V30 BEGIN BOND
M  V30 1 1 1 2
M  V30 2 2 2 3
M  V30 3 1 3 4
M  V30 4 2 4 5
M  V30 5 1 5 6
M  V30 6 2 6 7
M  V30 7 1 6 8
M  V30 8 1 8 9
M  V30 9 1 9 10
M  V30 10 2 10 11
M  V30 11 1 11 12
M  V30 12 1 12 13
M  V30 13 1 5 14
M  V30 14 2 14 15
M  V30 15 1 15 16
M  V30 16 1 16 17
M  V30 17 2 17 18
M  V30 18 1 17 19
M  V30 19 1 19 20
M  V30 20 2 20 21
M  V30 21 1 21 22
M  V30 22 1 22 23
M  V30 23 2 23 24
M  V30 24 1 24 25
M  V30 25 2 25 26
M  V30 26 1 26 27
M  V30 27 2 27 28
M  V30 28 1 22 29
M  V30 29 1 29 30
M  V30 30 1 15 2
M  V30 31 2 29 19
M  V30 32 2 13 9
M  V30 33 1 28 23
M  V30 34 1 1 31
M  V30 35 1 1 32
M  V30 36 1 1 33
M  V30 37 1 3 34
M  V30 38 1 4 35
M  V30 39 1 8 36
M  V30 40 1 10 37
M  V30 41 1 11 38
M  V30 42 1 14 39
M  V30 43 1 16 40
M  V30 44 1 20 41
M  V30 45 1 24 42
M  V30 46 1 25 43
M  V30 47 1 26 44
M  V30 48 1 27 45
M  V30 49 1 28 46
M  V30 50 1 30 47
M  V30 51 1 30 48
M  V30 END BOND
M  V30 END CTAB
M  END
>  <Dataset>  (77) 
ChEMBL_Kinases

>  <Ligand_Instance>  (77) 
nan

>  <PDB_ID>  (77) 
nan

>  <Standardized_SMILES>  (77) 
Cc1ccc(C(=O)Nc2ccon2)cc1NC(=O)c1cnn(-c2ccccc2)c1N

>  <Name>  (77) 
nan

>  <Pocket>  (77) 
nan

>  <ATP_Site>  (77) 
nan

>  <Peripheral>  (77) 
nan

>  <Num_H_Atoms_ProtBoundConf>  (77) 
nan

>  <Num_Resolved_Atoms>  (77) 
nan

>  <Num_Not_Resolved_Atoms>  (77) 
nan

$$$$
CHEMBL1234720
     RDKit          3D

  0  0  0  0  0  0  0  0  0  0999 V3000
M  V30 BEGIN CTAB
M  V30 COUNTS 29 30 0 0 0
M  V30 BEGIN ATOM
M  V30 1 C -0.136433 -1.262452 2.646745 0
M  V30 2 C -0.309673 -0.496159 1.368775 0 CFG=2
M  V30 3 C -0.903527 0.818867 1.646771 0
M  V30 4 O -2.023144 1.162852 1.135626 0
M  V30 5 O -0.349986 1.792937 2.454200 0
M  V30 6 C -1.165125 -1.207138 0.342248 0 CFG=2
M  V30 7 C -0.675261 -2.592826 0.089771 0
M  V30 8 C 0.460141 -2.340003 -0.900712 0
M  V30 9 C 0.584486 -0.825402 -0.786434 0 CFG=1
M  V30 10 O -0.768632 -0.474943 -0.801788 0
M  V30 11 C 0.986297 -0.381687 0.583724 0 CFG=2
M  V30 12 C 2.121802 -1.133870 1.186808 0
M  V30 13 C 1.361130 1.055238 0.506191 0
M  V30 14 O 2.455690 1.480040 0.980295 0
M  V30 15 O 0.502278 1.960776 -0.095937 0
M  V30 16 H 0.587201 -2.075581 2.605403 0
M  V30 17 H 0.186408 -0.554954 3.428272 0
M  V30 18 H -1.146210 -1.636205 2.954392 0
M  V30 19 H -0.721745 2.726777 2.543063 0
M  V30 20 H -2.242534 -1.108239 0.532458 0
M  V30 21 H -0.268960 -3.101466 0.977506 0
M  V30 22 H -1.501623 -3.173816 -0.371314 0
M  V30 23 H 0.048561 -2.535441 -1.897482 0
M  V30 24 H 1.375858 -2.870109 -0.662846 0
M  V30 25 H 1.164022 -0.371415 -1.608474 0
M  V30 26 H 2.028537 -2.226349 1.159661 0
M  V30 27 H 3.056332 -0.761329 0.725161 0
M  V30 28 H 2.170961 -0.809189 2.264486 0
M  V30 29 H 0.846045 2.888684 -0.357876 0
M  V30 END ATOM
M  V30 BEGIN BOND
M  V30 1 1 2 1 CFG=1
M  V30 2 1 2 3
M  V30 3 2 3 4
M  V30 4 1 3 5
M  V30 5 1 2 6
M  V30 6 1 6 7
M  V30 7 1 7 8
M  V30 8 1 8 9
M  V30 9 1 9 10
M  V30 10 1 9 11
M  V30 11 1 11 12 CFG=1
M  V30 12 1 11 13
M  V30 13 2 13 14
M  V30 14 1 13 15
M  V30 15 1 11 2
M  V30 16 1 10 6
M  V30 17 1 1 16
M  V30 18 1 1 17
M  V30 19 1 1 18
M  V30 20 1 5 19
M  V30 21 1 6 20 CFG=1
M  V30 22 1 7 21
M  V30 23 1 7 22
M  V30 24 1 8 23
M  V30 25 1 8 24
M  V30 26 1 9 25 CFG=3
M  V30 27 1 12 26
M  V30 28 1 12 27
M  V30 29 1 12 28
M  V30 30 1 15 29
M  V30 END BOND
M  V30 END CTAB
M  END
>  <Dataset>  (78) 
ChEMBL_Kinases

>  <Ligand_Instance>  (78) 
nan

>  <PDB_ID>  (78) 
nan

>  <Standardized_SMILES>  (78) 
C[C@]1(C(=O)O)[C@@H]2CC[C@@H](O2)[C@@]1(C)C(=O)O

>  <Name>  (78) 
nan

>  <Pocket>  (78) 
nan

>  <ATP_Site>  (78) 
nan

>  <Peripheral>  (78) 
nan

>  <Num_H_Atoms_ProtBoundConf>  (78) 
nan

>  <Num_Resolved_Atoms>  (78) 
nan

>  <Num_Not_Resolved_Atoms>  (78) 
nan

$$$$
CHEMBL1230881
     RDKit          3D

  0  0  0  0  0  0  0  0  0  0999 V3000
M  V30 BEGIN CTAB
M  V30 COUNTS 52 54 0 0 0
M  V30 BEGIN ATOM
M  V30 1 C 2.734892 -1.930617 5.966359 0
M  V30 2 C 3.711755 -1.354932 4.936651 0
M  V30 3 C 4.095369 0.009589 5.419515 0
M  V30 4 C 4.921113 -2.273512 4.943898 0
M  V30 5 C 3.073004 -1.268311 3.592194 0
M  V30 6 C 2.955462 -0.038450 2.977902 0
M  V30 7 C 2.373205 0.109108 1.734983 0
M  V30 8 C 1.903763 -1.032033 1.114390 0
M  V30 9 C 1.253537 -1.136322 -0.193127 0
M  V30 10 O 0.821982 -2.185403 -0.780659 0
M  V30 11 N 1.046286 0.035159 -0.954251 0
M  V30 12 N 0.495577 0.358161 -2.181491 0
M  V30 13 C -0.898631 0.657517 -2.188455 0
M  V30 14 O -1.442912 0.580466 -1.036974 0
M  V30 15 N -1.669284 1.016932 -3.346714 0
M  V30 16 C -3.072079 1.278875 -3.129245 0
M  V30 17 C -3.594711 2.537809 -2.821086 0
M  V30 18 C -4.962630 2.659129 -2.634339 0
M  V30 19 C -5.804578 1.573444 -2.746010 0
M  V30 20 C -5.313429 0.310495 -3.051311 0
M  V30 21 C -6.148357 -0.788575 -3.166695 0
M  V30 22 C -5.570946 -2.022686 -3.476756 0
M  V30 23 C -4.212474 -2.179266 -3.669200 0
M  V30 24 C -3.454276 -1.034659 -3.535830 0
M  V30 25 C -3.952814 0.212760 -3.232571 0
M  V30 26 C 2.017442 -2.268686 1.722634 0
M  V30 27 C 2.602166 -2.404739 2.967214 0
M  V30 28 N 2.756902 -3.651994 3.663749 0 CHG=1 VAL=4
M  V30 29 O 1.812551 -4.429470 3.383508 0
M  V30 30 O 1.769212 -4.565985 3.418336 0 CHG=-1 VAL=1
M  V30 31 H 2.971929 -2.974649 6.189382 0
M  V30 32 H 1.736738 -1.928348 5.479700 0
M  V30 33 H 2.657694 -1.290696 6.868460 0
M  V30 34 H 4.423208 -0.098783 6.493275 0
M  V30 35 H 4.905340 0.490003 4.853094 0
M  V30 36 H 3.183525 0.643443 5.453862 0
M  V30 37 H 5.460798 -2.227029 3.986066 0
M  V30 38 H 4.566447 -3.297432 5.165495 0
M  V30 39 H 5.532024 -1.958042 5.825854 0
M  V30 40 H 3.309016 0.880605 3.427106 0
M  V30 41 H 2.231731 1.012393 1.170863 0
M  V30 42 H 1.327289 1.006784 -0.651983 0
M  V30 43 H 0.987593 0.407141 -3.105112 0
M  V30 44 H -1.138319 1.058131 -4.260248 0
M  V30 45 H -2.840308 3.299526 -2.762187 0
M  V30 46 H -5.304307 3.652607 -2.399519 0
M  V30 47 H -6.883043 1.725697 -2.587708 0
M  V30 48 H -7.229136 -0.681492 -3.017215 0
M  V30 49 H -6.277565 -2.830441 -3.550678 0
M  V30 50 H -3.801551 -3.150043 -3.908042 0
M  V30 51 H -2.377845 -1.184505 -3.693214 0
M  V30 52 H 1.675984 -3.225215 1.309820 0
M  V30 END ATOM
M  V30 BEGIN BOND
M  V30 1 1 1 2
M  V30 2 1 2 3
M  V30 3 1 2 4
M  V30 4 1 2 5
M  V30 5 2 5 6
M  V30 6 1 6 7
M  V30 7 2 7 8
M  V30 8 1 8 9
M  V30 9 2 9 10
M  V30 10 1 9 11
M  V30 11 1 11 12
M  V30 12 1 12 13
M  V30 13 2 13 14
M  V30 14 1 13 15
M  V30 15 1 15 16
M  V30 16 2 16 17
M  V30 17 1 17 18
M  V30 18 2 18 19
M  V30 19 1 19 20
M  V30 20 2 20 21
M  V30 21 1 21 22
M  V30 22 2 22 23
M  V30 23 1 23 24
M  V30 24 2 24 25
M  V30 25 1 8 26
M  V30 26 2 26 27
M  V30 27 1 27 28
M  V30 28 2 28 29
M  V30 29 1 28 30
M  V30 30 1 27 5
M  V30 31 1 25 16
M  V30 32 1 25 20
M  V30 33 1 1 31
M  V30 34 1 1 32
M  V30 35 1 1 33
M  V30 36 1 3 34
M  V30 37 1 3 35
M  V30 38 1 3 36
M  V30 39 1 4 37
M  V30 40 1 4 38
M  V30 41 1 4 39
M  V30 42 1 6 40
M  V30 43 1 7 41
M  V30 44 1 11 42
M  V30 45 1 12 43
M  V30 46 1 15 44
M  V30 47 1 17 45
M  V30 48 1 18 46
M  V30 49 1 19 47
M  V30 50 1 21 48
M  V30 51 1 22 49
M  V30 52 1 23 50
M  V30 53 1 24 51
M  V30 54 1 26 52
M  V30 END BOND
M  V30 END CTAB
M  END
>  <Dataset>  (79) 
ChEMBL_Kinases

>  <Ligand_Instance>  (79) 
nan

>  <PDB_ID>  (79) 
nan

>  <Standardized_SMILES>  (79) 
CC(C)(C)c1ccc(C(=O)NNC(=O)Nc2cccc3ccccc23)cc1[N+](=O)[O-]

>  <Name>  (79) 
nan

>  <Pocket>  (79) 
nan

>  <ATP_Site>  (79) 
nan

>  <Peripheral>  (79) 
nan

>  <Num_H_Atoms_ProtBoundConf>  (79) 
nan

>  <Num_Resolved_Atoms>  (79) 
nan

>  <Num_Not_Resolved_Atoms>  (79) 
nan

$$$$
CHEMBL1231352
     RDKit          3D

  0  0  0  0  0  0  0  0  0  0999 V3000
M  V30 BEGIN CTAB
M  V30 COUNTS 74 80 0 0 0
M  V30 BEGIN ATOM
M  V30 1 C -0.604909 -3.784143 0.611191 0
M  V30 2 N -0.310837 -3.972660 -0.807340 0
M  V30 3 C -0.522041 -5.292716 -1.358610 0
M  V30 4 C 0.143014 -3.238200 -1.892196 0
M  V30 5 N 1.244972 -2.920260 -1.222045 0
M  V30 6 C 2.266714 -2.184454 -1.604266 0
M  V30 7 C 2.721355 -1.472672 -2.667264 0
M  V30 8 C 1.602874 -1.767066 -3.396733 0
M  V30 9 C 0.585024 -2.524102 -2.946083 0
M  V30 10 C -0.765119 -2.528040 -3.651482 0
M  V30 11 C -1.412453 -1.221035 -3.176029 0
M  V30 12 C -2.846554 -1.034035 -3.391094 0
M  V30 13 C -3.301389 0.360158 -2.897554 0
M  V30 14 N -2.871471 0.582488 -1.530852 0
M  V30 15 C -2.737673 -0.298985 -0.534053 0
M  V30 16 C -2.268279 0.328270 0.621005 0
M  V30 17 C -2.117271 1.652907 0.290360 0
M  V30 18 C -1.677493 2.729511 1.071875 0
M  V30 19 C -1.648792 3.939968 0.414408 0
M  V30 20 C -1.995133 4.202974 -0.891526 0
M  V30 21 C -2.416356 3.081532 -1.584809 0
M  V30 22 C -2.487982 1.803420 -1.027619 0
M  V30 23 C -2.048646 -0.450475 1.830616 0
M  V30 24 C -1.044519 -0.717935 2.643723 0
M  V30 25 C -1.539981 -1.621380 3.724831 0
M  V30 26 O -0.917478 -2.121005 4.705218 0
M  V30 27 N -2.920768 -1.904873 3.539688 0
M  V30 28 C -3.230651 -1.172151 2.358055 0
M  V30 29 O -4.448017 -1.257365 1.959389 0
M  V30 30 C 0.350462 -0.295635 2.629247 0
M  V30 31 C 1.242844 -0.351975 1.588959 0
M  V30 32 N 2.449762 0.107278 1.939856 0
M  V30 33 C 2.401830 0.485583 3.225347 0
M  V30 34 C 3.291411 1.027074 4.143211 0
M  V30 35 C 3.007380 1.340816 5.435807 0
M  V30 36 C 1.703015 1.090689 5.860532 0
M  V30 37 C 0.788443 0.550702 4.971244 0
M  V30 38 C 1.144143 0.249193 3.652779 0
M  V30 39 C 3.579667 0.180298 1.012055 0
M  V30 40 C 3.256488 -0.359113 -0.319575 0
M  V30 41 C 3.072947 -1.888467 -0.359080 0
M  V30 42 H -0.155744 -4.649307 1.185488 0
M  V30 43 H -1.676215 -3.784069 0.844492 0
M  V30 44 H -0.172706 -2.826358 0.958173 0
M  V30 45 H -0.831540 -6.007954 -0.546458 0
M  V30 46 H -1.329940 -5.274696 -2.103269 0
M  V30 47 H 0.410649 -5.733587 -1.769808 0
M  V30 48 H 3.603508 -0.930503 -2.863624 0
M  V30 49 H 1.486215 -1.402081 -4.375713 0
M  V30 50 H -0.460264 -2.389721 -4.736148 0
M  V30 51 H -1.346176 -3.402430 -3.607820 0
M  V30 52 H -0.804488 -0.433266 -3.740572 0
M  V30 53 H -1.130854 -1.019360 -2.121185 0
M  V30 54 H -3.506317 -1.788531 -2.950009 0
M  V30 55 H -3.056248 -1.014988 -4.483616 0
M  V30 56 H -4.413026 0.398458 -2.884124 0
M  V30 57 H -2.952952 1.139357 -3.568915 0
M  V30 58 H -2.965537 -1.357615 -0.620167 0
M  V30 59 H -1.385866 2.630101 2.094345 0
M  V30 60 H -1.306007 4.801503 1.011070 0
M  V30 61 H -1.945935 5.173151 -1.329852 0
M  V30 62 H -2.702170 3.252593 -2.632929 0
M  V30 63 H -3.520309 -2.508265 4.149169 0
M  V30 64 H 0.883306 -0.726453 0.666583 0
M  V30 65 H 4.304889 1.213153 3.785249 0
M  V30 66 H 3.716498 1.761915 6.129648 0
M  V30 67 H 1.449520 1.332872 6.892108 0
M  V30 68 H -0.187686 0.405349 5.410938 0
M  V30 69 H 3.971982 1.210223 0.894197 0
M  V30 70 H 4.416533 -0.423835 1.426899 0
M  V30 71 H 2.362495 0.058029 -0.801598 0
M  V30 72 H 4.083967 -0.174093 -1.051212 0
M  V30 73 H 4.050547 -2.381932 -0.558590 0
M  V30 74 H 2.627549 -2.296983 0.517524 0
M  V30 END ATOM
M  V30 BEGIN BOND
M  V30 1 1 1 2
M  V30 2 1 2 3
M  V30 3 1 2 4
M  V30 4 2 4 5
M  V30 5 1 5 6
M  V30 6 2 6 7
M  V30 7 1 7 8
M  V30 8 2 8 9
M  V30 9 1 9 10
M  V30 10 1 10 11
M  V30 11 1 11 12
M  V30 12 1 12 13
M  V30 13 1 13 14
M  V30 14 1 14 15
M  V30 15 2 15 16
M  V30 16 1 16 17
M  V30 17 2 17 18
M  V30 18 1 18 19
M  V30 19 2 19 20
M  V30 20 1 20 21
M  V30 21 2 21 22
M  V30 22 1 16 23
M  V30 23 2 23 24
M  V30 24 1 24 25
M  V30 25 2 25 26
M  V30 26 1 25 27
M  V30 27 1 27 28
M  V30 28 2 28 29
M  V30 29 1 24 30
M  V30 30 2 30 31
M  V30 31 1 31 32
M  V30 32 1 32 33
M  V30 33 2 33 34
M  V30 34 1 34 35
M  V30 35 2 35 36
M  V30 36 1 36 37
M  V30 37 2 37 38
M  V30 38 1 32 39
M  V30 39 1 39 40
M  V30 40 1 40 41
M  V30 41 1 9 4
M  V30 42 1 22 14
M  V30 43 1 28 23
M  V30 44 1 38 30
M  V30 45 1 41 6
M  V30 46 1 22 17
M  V30 47 1 38 33
M  V30 48 1 1 42
M  V30 49 1 1 43
M  V30 50 1 1 44
M  V30 51 1 3 45
M  V30 52 1 3 46
M  V30 53 1 3 47
M  V30 54 1 7 48
M  V30 55 1 8 49
M  V30 56 1 10 50
M  V30 57 1 10 51
M  V30 58 1 11 52
M  V30 59 1 11 53
M  V30 60 1 12 54
M  V30 61 1 12 55
M  V30 62 1 13 56
M  V30 63 1 13 57
M  V30 64 1 15 58
M  V30 65 1 18 59
M  V30 66 1 19 60
M  V30 67 1 20 61
M  V30 68 1 21 62
M  V30 69 1 27 63
M  V30 70 1 31 64
M  V30 71 1 34 65
M  V30 72 1 35 66
M  V30 73 1 36 67
M  V30 74 1 37 68
M  V30 75 1 39 69
M  V30 76 1 39 70
M  V30 77 1 40 71
M  V30 78 1 40 72
M  V30 79 1 41 73
M  V30 80 1 41 74
M  V30 END BOND
M  V30 END CTAB
M  END
>  <Dataset>  (80) 
ChEMBL_Kinases

>  <Ligand_Instance>  (80) 
nan

>  <PDB_ID>  (80) 
nan

>  <Standardized_SMILES>  (80) 
CN(C)c1nc2ccc1CCCCn1cc(c3ccccc31)C1=C(C(=O)NC1=O)c1cn(c3ccccc13)CCC2

>  <Name>  (80) 
nan

>  <Pocket>  (80) 
nan

>  <ATP_Site>  (80) 
nan

>  <Peripheral>  (80) 
nan

>  <Num_H_Atoms_ProtBoundConf>  (80) 
nan

>  <Num_Resolved_Atoms>  (80) 
nan

>  <Num_Not_Resolved_Atoms>  (80) 
nan

$$$$
CHEMBL1231667
     RDKit          3D

  0  0  0  0  0  0  0  0  0  0999 V3000
M  V30 BEGIN CTAB
M  V30 COUNTS 29 30 0 0 0
M  V30 BEGIN ATOM
M  V30 1 C -0.967753 -1.623522 3.195470 0
M  V30 2 C 0.432342 -1.154529 3.442929 0
M  V30 3 C 0.947713 -0.877241 2.271274 0
M  V30 4 C 0.643647 -0.865765 0.865203 0
M  V30 5 O 1.399939 -0.523875 -0.108581 0
M  V30 6 N -0.514695 -1.205005 0.137208 0
M  V30 7 C -0.500836 -1.082697 -1.284708 0
M  V30 8 C -0.899785 0.146060 -1.814278 0
M  V30 9 C -0.923723 0.373836 -3.190983 0
M  V30 10 C -0.547400 -0.627727 -4.066544 0
M  V30 11 C -0.156006 -1.835180 -3.529841 0
M  V30 12 C -0.124053 -2.084326 -2.171455 0
M  V30 13 S 2.663900 -0.308040 2.497267 0
M  V30 14 C 2.488216 0.966115 3.807534 0
M  V30 15 C 1.776401 0.232666 4.921537 0
M  V30 16 O 1.210140 -0.974288 4.550544 0
M  V30 17 H -0.985229 -2.569749 2.665059 0
M  V30 18 H -1.380674 -1.858654 4.222919 0
M  V30 19 H -1.623127 -0.825492 2.827678 0
M  V30 20 H -1.365510 -1.538622 0.635713 0
M  V30 21 H -1.217132 1.005817 -1.208216 0
M  V30 22 H -1.231980 1.323903 -3.605741 0
M  V30 23 H -0.530539 -0.555607 -5.127203 0
M  V30 24 H 0.150398 -2.661961 -4.144165 0
M  V30 25 H 0.171296 -3.001280 -1.715850 0
M  V30 26 H 3.448593 1.361483 4.128826 0
M  V30 27 H 1.816274 1.736079 3.361936 0
M  V30 28 H 2.543067 0.078544 5.741393 0
M  V30 29 H 0.999413 0.896657 5.343771 0
M  V30 END ATOM
M  V30 BEGIN BOND
M  V30 1 1 1 2
M  V30 2 2 2 3
M  V30 3 1 3 4
M  V30 4 2 4 5
M  V30 5 1 4 6
M  V30 6 1 6 7
M  V30 7 2 7 8
M  V30 8 1 8 9
M  V30 9 2 9 10
M  V30 10 1 10 11
M  V30 11 2 11 12
M  V30 12 1 3 13
M  V30 13 1 13 14
M  V30 14 1 14 15
M  V30 15 1 15 16
M  V30 16 1 16 2
M  V30 17 1 12 7
M  V30 18 1 1 17
M  V30 19 1 1 18
M  V30 20 1 1 19
M  V30 21 1 6 20
M  V30 22 1 8 21
M  V30 23 1 9 22
M  V30 24 1 10 23
M  V30 25 1 11 24
M  V30 26 1 12 25
M  V30 27 1 14 26
M  V30 28 1 14 27
M  V30 29 1 15 28
M  V30 30 1 15 29
M  V30 END BOND
M  V30 END CTAB
M  END
>  <Dataset>  (81) 
ChEMBL_Kinases

>  <Ligand_Instance>  (81) 
nan

>  <PDB_ID>  (81) 
nan

>  <Standardized_SMILES>  (81) 
CC1=C(C(=O)Nc2ccccc2)SCCO1

>  <Name>  (81) 
CARBOXIN

>  <Pocket>  (81) 
nan

>  <ATP_Site>  (81) 
nan

>  <Peripheral>  (81) 
nan

>  <Num_H_Atoms_ProtBoundConf>  (81) 
nan

>  <Num_Resolved_Atoms>  (81) 
nan

>  <Num_Not_Resolved_Atoms>  (81) 
nan

$$$$
CHEMBL1231683
     RDKit          3D

  0  0  0  0  0  0  0  0  0  0999 V3000
M  V30 BEGIN CTAB
M  V30 COUNTS 48 51 0 0 0
M  V30 BEGIN ATOM
M  V30 1 C 0.219758 -2.948495 1.426920 0
M  V30 2 C 1.192615 -3.082335 2.573124 0
M  V30 3 C 1.042201 -1.975354 3.578406 0
M  V30 4 N 2.562868 -3.146663 2.124537 0
M  V30 5 C 3.161176 -2.093244 1.385910 0
M  V30 6 C 4.474803 -2.140076 0.947098 0
M  V30 7 C 5.078407 -1.138006 0.232798 0
M  V30 8 C 4.370235 0.000350 -0.088149 0
M  V30 9 C 4.701610 1.152850 -0.781998 0
M  V30 10 N 3.584841 1.908703 -0.767569 0
M  V30 11 N 2.617264 1.291038 -0.117711 0
M  V30 12 C 1.315094 1.836556 0.067321 0
M  V30 13 C 1.143062 3.215784 0.102519 0
M  V30 14 N -0.038133 3.844283 0.271451 0
M  V30 15 C -1.136980 3.070526 0.417430 0
M  V30 16 C -1.018619 1.685411 0.389624 0
M  V30 17 N -2.189234 0.888687 0.545353 0
M  V30 18 C -2.473634 -0.004378 1.537156 0
M  V30 19 C -3.720919 -0.564155 1.308753 0
M  V30 20 C -4.186438 0.016455 0.146747 0
M  V30 21 C -5.533247 -0.353917 -0.419109 0
M  V30 22 C -5.234424 -1.510006 -1.337900 0
M  V30 23 O -4.055648 -1.929803 -1.470113 0
M  V30 24 O -5.536365 -2.515067 -2.242370 0
M  V30 25 C -3.240880 0.912224 -0.323003 0
M  V30 26 N 0.198651 1.101239 0.216051 0
M  V30 27 C 3.060159 0.099526 0.323203 0
M  V30 28 C 2.513481 -0.931423 1.031941 0
M  V30 29 H -0.418500 -3.873180 1.310874 0
M  V30 30 H 0.792881 -2.915261 0.459738 0
M  V30 31 H -0.495061 -2.127291 1.533906 0
M  V30 32 H 0.909981 -4.025170 3.117211 0
M  V30 33 H 1.976900 -1.382442 3.592598 0
M  V30 34 H 0.909367 -2.349883 4.622441 0
M  V30 35 H 0.220065 -1.284623 3.303014 0
M  V30 36 H 3.160913 -3.975334 2.330541 0
M  V30 37 H 5.064619 -3.033170 1.186836 0
M  V30 38 H 6.112084 -1.216513 -0.091615 0
M  V30 39 H 5.662445 1.367229 -1.227504 0
M  V30 40 H 2.012857 3.833682 -0.012989 0
M  V30 41 H -2.124496 3.489282 0.557783 0
M  V30 42 H -1.775625 -0.179606 2.331180 0
M  V30 43 H -4.160185 -1.305732 1.970825 0
M  V30 44 H -6.222157 -0.637994 0.376333 0
M  V30 45 H -5.869269 0.474899 -1.060802 0
M  V30 46 H -5.966784 -3.413675 -1.976536 0
M  V30 47 H -3.400001 1.485249 -1.231027 0
M  V30 48 H 1.482285 -0.788388 1.323498 0
M  V30 END ATOM
M  V30 BEGIN BOND
M  V30 1 1 1 2
M  V30 2 1 2 3
M  V30 3 1 2 4
M  V30 4 1 4 5
M  V30 5 2 5 6
M  V30 6 1 6 7
M  V30 7 2 7 8
M  V30 8 1 8 9
M  V30 9 2 9 10
M  V30 10 1 10 11
M  V30 11 1 11 12
M  V30 12 2 12 13
M  V30 13 1 13 14
M  V30 14 2 14 15
M  V30 15 1 15 16
M  V30 16 1 16 17
M  V30 17 1 17 18
M  V30 18 2 18 19
M  V30 19 1 19 20
M  V30 20 1 20 21
M  V30 21 1 21 22
M  V30 22 2 22 23
M  V30 23 1 22 24
M  V30 24 2 20 25
M  V30 25 2 16 26
M  V30 26 1 11 27
M  V30 27 2 27 28
M  V30 28 1 28 5
M  V30 29 1 27 8
M  V30 30 1 26 12
M  V30 31 1 25 17
M  V30 32 1 1 29
M  V30 33 1 1 30
M  V30 34 1 1 31
M  V30 35 1 2 32
M  V30 36 1 3 33
M  V30 37 1 3 34
M  V30 38 1 3 35
M  V30 39 1 4 36
M  V30 40 1 6 37
M  V30 41 1 7 38
M  V30 42 1 9 39
M  V30 43 1 13 40
M  V30 44 1 15 41
M  V30 45 1 18 42
M  V30 46 1 19 43
M  V30 47 1 21 44
M  V30 48 1 21 45
M  V30 49 1 24 46
M  V30 50 1 25 47
M  V30 51 1 28 48
M  V30 END BOND
M  V30 END CTAB
M  END
>  <Dataset>  (82) 
ChEMBL_Kinases

>  <Ligand_Instance>  (82) 
nan

>  <PDB_ID>  (82) 
nan

>  <Standardized_SMILES>  (82) 
CC(C)Nc1ccc2cnn(-c3cncc(-n4ccc(CC(=O)O)c4)n3)c2c1

>  <Name>  (82) 
nan

>  <Pocket>  (82) 
nan

>  <ATP_Site>  (82) 
nan

>  <Peripheral>  (82) 
nan

>  <Num_H_Atoms_ProtBoundConf>  (82) 
nan

>  <Num_Resolved_Atoms>  (82) 
nan

>  <Num_Not_Resolved_Atoms>  (82) 
nan

$$$$
CHEMBL1232474
     RDKit          3D

  0  0  0  0  0  0  0  0  0  0999 V3000
M  V30 BEGIN CTAB
M  V30 COUNTS 39 41 0 0 0
M  V30 BEGIN ATOM
M  V30 1 Cl -1.173894 -3.747314 5.727752 0
M  V30 2 C -0.120130 -3.148824 4.465737 0
M  V30 3 C 0.279687 -3.931056 3.422469 0
M  V30 4 C 1.122610 -3.419621 2.431031 0
M  V30 5 C 1.584515 -2.095675 2.471295 0
M  V30 6 C 2.451529 -1.812855 1.326181 0
M  V30 7 O 1.865634 -1.381301 0.181799 0
M  V30 8 C 1.154383 -0.224678 0.192183 0 CFG=1
M  V30 9 C 1.764074 0.861545 -0.677559 0
M  V30 10 N 0.987614 2.058465 -0.632186 0
M  V30 11 C -0.045709 2.458312 -1.391686 0
M  V30 12 C -0.419659 3.701339 -0.931217 0
M  V30 13 N 0.389021 4.031318 0.093586 0
M  V30 14 C 1.264458 3.022998 0.288766 0
M  V30 15 C -0.281283 -0.405080 -0.158677 0
M  V30 16 C -0.367687 -1.223826 -1.289949 0
M  V30 17 C -1.597112 -1.560126 -1.858364 0
M  V30 18 C -2.752828 -1.062279 -1.275471 0
M  V30 19 Cl -4.386373 -1.371785 -1.842642 0
M  V30 20 C -2.645464 -0.262457 -0.168004 0
M  V30 21 C -1.451578 0.071044 0.393812 0
M  V30 22 Cl -1.162008 1.061600 1.800272 0
M  V30 23 C 1.167696 -1.322979 3.535417 0
M  V30 24 C 0.336262 -1.845341 4.503137 0
M  V30 25 H -0.090298 -4.939908 3.419067 0
M  V30 26 H 1.351400 -4.169625 1.664956 0
M  V30 27 H 3.187316 -2.647193 1.158073 0
M  V30 28 H 3.122752 -0.964031 1.664831 0
M  V30 29 H 1.185084 0.196240 1.217740 0
M  V30 30 H 2.816334 1.020250 -0.335068 0
M  V30 31 H 1.856964 0.534821 -1.735285 0
M  V30 32 H -0.395117 1.811218 -2.172255 0
M  V30 33 H -1.237441 4.253428 -1.374530 0
M  V30 34 H 2.027018 3.039626 1.057944 0
M  V30 35 H 0.441680 -1.690949 -1.860770 0
M  V30 36 H -1.746927 -2.173023 -2.712608 0
M  V30 37 H -3.506254 0.165092 0.344061 0
M  V30 38 H 1.566152 -0.328968 3.495776 0
M  V30 39 H 0.044546 -1.199211 5.306499 0
M  V30 END ATOM
M  V30 BEGIN BOND
M  V30 1 1 1 2
M  V30 2 2 2 3
M  V30 3 1 3 4
M  V30 4 2 4 5
M  V30 5 1 5 6
M  V30 6 1 6 7
M  V30 7 1 7 8
M  V30 8 1 8 9
M  V30 9 1 9 10
M  V30 10 1 10 11
M  V30 11 2 11 12
M  V30 12 1 12 13
M  V30 13 2 13 14
M  V30 14 1 8 15
M  V30 15 2 15 16
M  V30 16 1 16 17
M  V30 17 2 17 18
M  V30 18 1 18 19
M  V30 19 1 18 20
M  V30 20 2 20 21
M  V30 21 1 21 22
M  V30 22 1 5 23
M  V30 23 2 23 24
M  V30 24 1 24 2
M  V30 25 1 14 10
M  V30 26 1 21 15
M  V30 27 1 3 25
M  V30 28 1 4 26
M  V30 29 1 6 27
M  V30 30 1 6 28
M  V30 31 1 8 29 CFG=1
M  V30 32 1 9 30
M  V30 33 1 9 31
M  V30 34 1 11 32
M  V30 35 1 12 33
M  V30 36 1 14 34
M  V30 37 1 16 35
M  V30 38 1 17 36
M  V30 39 1 20 37
M  V30 40 1 23 38
M  V30 41 1 24 39
M  V30 END BOND
M  V30 END CTAB
M  END
>  <Dataset>  (83) 
ChEMBL_Kinases

>  <Ligand_Instance>  (83) 
nan

>  <PDB_ID>  (83) 
nan

>  <Standardized_SMILES>  (83) 
Clc1ccc(CO[C@@H](Cn2ccnc2)c2ccc(Cl)cc2Cl)cc1

>  <Name>  (83) 
nan

>  <Pocket>  (83) 
nan

>  <ATP_Site>  (83) 
nan

>  <Peripheral>  (83) 
nan

>  <Num_H_Atoms_ProtBoundConf>  (83) 
nan

>  <Num_Resolved_Atoms>  (83) 
nan

>  <Num_Not_Resolved_Atoms>  (83) 
nan

$$$$
CHEMBL1232751
     RDKit          3D

  0  0  0  0  0  0  0  0  0  0999 V3000
M  V30 BEGIN CTAB
M  V30 COUNTS 59 63 0 0 0
M  V30 BEGIN ATOM
M  V30 1 C 2.544241 0.839393 -1.640861 0
M  V30 2 C 3.143389 0.686160 -0.288102 0
M  V30 3 C 4.410431 1.153347 -0.002865 0
M  V30 4 C 4.948424 1.000831 1.259974 0
M  V30 5 C 4.203111 0.373446 2.239466 0
M  V30 6 C 4.605165 0.122650 3.627331 0
M  V30 7 O 3.918802 -0.449383 4.514044 0
M  V30 8 N 5.890818 0.531928 4.122241 0
M  V30 9 C 6.304593 0.296497 5.476915 0
M  V30 10 C 7.344449 1.150957 6.103942 0
M  V30 11 C 7.743511 -0.185739 5.595818 0
M  V30 12 C 2.924788 -0.090864 1.928888 0
M  V30 13 C 2.370554 0.053304 0.670013 0
M  V30 14 C 1.031443 -0.434974 0.349558 0
M  V30 15 C -0.165457 0.232237 0.454120 0
M  V30 16 C -1.335809 -0.430870 0.090061 0
M  V30 17 C -2.515823 0.273584 0.209606 0
M  V30 18 N -3.642623 -0.393544 -0.151088 0
M  V30 19 C -3.616735 -1.661669 -0.597719 0
M  V30 20 N -4.803685 -2.346180 -0.971334 0
M  V30 21 C -6.095398 -1.697110 -0.885548 0
M  V30 22 C -6.176002 -0.464101 -1.755852 0
M  V30 23 C -6.076722 -0.855135 -3.225755 0
M  V30 24 O -6.039850 -2.245871 -3.307308 0
M  V30 25 C -7.222749 -2.737081 -2.790414 0
M  V30 26 C -7.217056 -2.631499 -1.279203 0
M  V30 27 N -2.428208 -2.283478 -0.687046 0
M  V30 28 C -1.247983 -1.729041 -0.360398 0
M  V30 29 N -0.081801 -2.389328 -0.465865 0
M  V30 30 C -0.099505 -3.762981 -0.954671 0
M  V30 31 C 1.052963 -1.754731 -0.115845 0
M  V30 32 O 2.098938 -2.468638 -0.253586 0
M  V30 33 H 1.808326 1.694339 -1.635276 0
M  V30 34 H 2.077194 -0.095340 -2.022092 0
M  V30 35 H 3.295459 1.139751 -2.405190 0
M  V30 36 H 5.009339 1.644530 -0.748045 0
M  V30 37 H 5.930309 1.334739 1.572820 0
M  V30 38 H 6.569767 1.020203 3.497437 0
M  V30 39 H 5.628692 -0.216964 6.188649 0
M  V30 40 H 7.370793 1.280968 7.195623 0
M  V30 41 H 7.666266 2.024709 5.495352 0
M  V30 42 H 8.375591 -0.225879 4.672863 0
M  V30 43 H 8.014452 -0.965435 6.317538 0
M  V30 44 H 2.287325 -0.594392 2.659039 0
M  V30 45 H -0.085104 1.231301 0.817066 0
M  V30 46 H -2.539700 1.294852 0.568923 0
M  V30 47 H -4.756827 -3.324540 -1.311739 0
M  V30 48 H -6.225262 -1.344330 0.162260 0
M  V30 49 H -5.478858 0.324419 -1.475127 0
M  V30 50 H -7.205578 -0.049896 -1.607946 0
M  V30 51 H -5.137836 -0.467529 -3.636137 0
M  V30 52 H -6.908260 -0.435505 -3.831613 0
M  V30 53 H -7.276555 -3.808702 -3.111788 0
M  V30 54 H -8.091664 -2.168234 -3.161870 0
M  V30 55 H -7.055412 -3.594300 -0.778832 0
M  V30 56 H -8.172469 -2.185352 -0.908805 0
M  V30 57 H -0.051851 -3.669526 -2.078160 0
M  V30 58 H -0.999310 -4.310001 -0.672436 0
M  V30 59 H 0.849828 -4.250938 -0.661487 0
M  V30 END ATOM
M  V30 BEGIN BOND
M  V30 1 1 1 2
M  V30 2 2 2 3
M  V30 3 1 3 4
M  V30 4 2 4 5
M  V30 5 1 5 6
M  V30 6 2 6 7
M  V30 7 1 6 8
M  V30 8 1 8 9
M  V30 9 1 9 10
M  V30 10 1 10 11
M  V30 11 1 5 12
M  V30 12 2 12 13
M  V30 13 1 13 14
M  V30 14 2 14 15
M  V30 15 1 15 16
M  V30 16 2 16 17
M  V30 17 1 17 18
M  V30 18 2 18 19
M  V30 19 1 19 20
M  V30 20 1 20 21
M  V30 21 1 21 22
M  V30 22 1 22 23
M  V30 23 1 23 24
M  V30 24 1 24 25
M  V30 25 1 25 26
M  V30 26 1 19 27
M  V30 27 2 27 28
M  V30 28 1 28 29
M  V30 29 1 29 30
M  V30 30 1 29 31
M  V30 31 2 31 32
M  V30 32 1 13 2
M  V30 33 1 31 14
M  V30 34 1 11 9
M  V30 35 1 28 16
M  V30 36 1 26 21
M  V30 37 1 1 33
M  V30 38 1 1 34
M  V30 39 1 1 35
M  V30 40 1 3 36
M  V30 41 1 4 37
M  V30 42 1 8 38
M  V30 43 1 9 39
M  V30 44 1 10 40
M  V30 45 1 10 41
M  V30 46 1 11 42
M  V30 47 1 11 43
M  V30 48 1 12 44
M  V30 49 1 15 45
M  V30 50 1 17 46
M  V30 51 1 20 47
M  V30 52 1 21 48
M  V30 53 1 22 49
M  V30 54 1 22 50
M  V30 55 1 23 51
M  V30 56 1 23 52
M  V30 57 1 25 53
M  V30 58 1 25 54
M  V30 59 1 26 55
M  V30 60 1 26 56
M  V30 61 1 30 57
M  V30 62 1 30 58
M  V30 63 1 30 59
M  V30 END BOND
M  V30 END CTAB
M  END
>  <Dataset>  (84) 
ChEMBL_Kinases

>  <Ligand_Instance>  (84) 
nan

>  <PDB_ID>  (84) 
nan

>  <Standardized_SMILES>  (84) 
Cc1ccc(C(=O)NC2CC2)cc1-c1cc2cnc(NC3CCOCC3)nc2n(C)c1=O

>  <Name>  (84) 
nan

>  <Pocket>  (84) 
nan

>  <ATP_Site>  (84) 
nan

>  <Peripheral>  (84) 
nan

>  <Num_H_Atoms_ProtBoundConf>  (84) 
nan

>  <Num_Resolved_Atoms>  (84) 
nan

>  <Num_Not_Resolved_Atoms>  (84) 
nan

$$$$
CHEMBL1232769
     RDKit          3D

  0  0  0  0  0  0  0  0  0  0999 V3000
M  V30 BEGIN CTAB
M  V30 COUNTS 47 49 0 0 0
M  V30 BEGIN ATOM
M  V30 1 C 1.636797 0.928870 3.595645 0
M  V30 2 C 2.676288 -0.172796 3.585907 0 CFG=2
M  V30 3 C 3.677466 -0.022685 4.678925 0
M  V30 4 S 4.878820 -1.301549 4.636953 0
M  V30 5 C 5.826060 -1.348504 3.149399 0
M  V30 6 O 5.824890 -1.097236 5.817321 0
M  V30 7 O 4.227537 -2.635676 4.848469 0
M  V30 8 N 3.203481 -0.257685 2.256409 0
M  V30 9 C 1.989949 -0.300417 1.477796 0
M  V30 10 N 1.734014 0.832374 0.751707 0
M  V30 11 C 0.616657 0.938292 -0.013911 0
M  V30 12 C -0.215588 -0.168522 0.005122 0
M  V30 13 C -1.339805 -0.024164 -0.779619 0
M  V30 14 C -2.226422 -1.083692 -0.813807 0
M  V30 15 O -3.424492 -1.242303 -1.495566 0
M  V30 16 C -4.022850 -0.350416 -2.332189 0
M  V30 17 C -4.317904 -0.578040 -3.680800 0
M  V30 18 C -4.938057 0.409117 -4.452717 0
M  V30 19 C -5.273736 1.641800 -3.887979 0
M  V30 20 F -5.870697 2.488547 -4.761203 0
M  V30 21 C -4.989269 1.898060 -2.540080 0
M  V30 22 C -4.377148 0.880925 -1.838144 0
M  V30 23 F -4.151049 1.251260 -0.534676 0
M  V30 24 C -1.970812 -2.243225 -0.073599 0
M  V30 25 O -2.699961 -3.283052 -0.015965 0
M  V30 26 N -0.851464 -2.368041 0.698558 0
M  V30 27 C -0.561373 -3.557238 1.481660 0
M  V30 28 C 0.009443 -1.329564 0.726546 0
M  V30 29 N 1.142177 -1.344547 1.456350 0
M  V30 30 H 1.958784 1.808070 3.003084 0
M  V30 31 H 0.707770 0.567760 3.066222 0
M  V30 32 H 1.395035 1.297916 4.608899 0
M  V30 33 H 2.128557 -1.136185 3.795911 0
M  V30 34 H 4.168963 0.979298 4.681767 0
M  V30 35 H 3.117477 -0.136893 5.642583 0
M  V30 36 H 5.409726 -2.014523 2.389989 0
M  V30 37 H 6.841794 -1.735310 3.435252 0
M  V30 38 H 5.950143 -0.293927 2.798720 0
M  V30 39 H 3.948913 -0.306367 1.515966 0
M  V30 40 H 0.429266 1.829068 -0.573351 0
M  V30 41 H -1.656243 0.790204 -1.387487 0
M  V30 42 H -4.029773 -1.561472 -4.063642 0
M  V30 43 H -5.126936 0.133610 -5.488996 0
M  V30 44 H -5.274560 2.862304 -2.181712 0
M  V30 45 H 0.480562 -3.843694 1.374261 0
M  V30 46 H -1.180000 -4.376348 1.033362 0
M  V30 47 H -0.892344 -3.367678 2.524255 0
M  V30 END ATOM
M  V30 BEGIN BOND
M  V30 1 1 1 2
M  V30 2 1 2 3
M  V30 3 1 3 4
M  V30 4 1 4 5
M  V30 5 2 4 6
M  V30 6 2 4 7
M  V30 7 1 2 8
M  V30 8 1 8 9
M  V30 9 2 9 10
M  V30 10 1 10 11
M  V30 11 2 11 12
M  V30 12 1 12 13
M  V30 13 2 13 14
M  V30 14 1 14 15
M  V30 15 1 15 16
M  V30 16 2 16 17
M  V30 17 1 17 18
M  V30 18 2 18 19
M  V30 19 1 19 20
M  V30 20 1 19 21
M  V30 21 2 21 22
M  V30 22 1 22 23
M  V30 23 1 14 24
M  V30 24 2 24 25
M  V30 25 1 24 26
M  V30 26 1 26 27
M  V30 27 1 26 28
M  V30 28 2 28 29
M  V30 29 1 29 9
M  V30 30 1 28 12
M  V30 31 1 22 16
M  V30 32 1 1 30
M  V30 33 1 1 31
M  V30 34 1 1 32
M  V30 35 1 2 33 CFG=1
M  V30 36 1 3 34
M  V30 37 1 3 35
M  V30 38 1 5 36
M  V30 39 1 5 37
M  V30 40 1 5 38
M  V30 41 1 8 39
M  V30 42 1 11 40
M  V30 43 1 13 41
M  V30 44 1 17 42
M  V30 45 1 18 43
M  V30 46 1 21 44
M  V30 47 1 27 45
M  V30 48 1 27 46
M  V30 49 1 27 47
M  V30 END BOND
M  V30 END CTAB
M  END
>  <Dataset>  (85) 
ChEMBL_Kinases

>  <Ligand_Instance>  (85) 
nan

>  <PDB_ID>  (85) 
nan

>  <Standardized_SMILES>  (85) 
C[C@H](CS(C)(=O)=O)Nc1ncc2cc(Oc3ccc(F)cc3F)c(=O)n(C)c2n1

>  <Name>  (85) 
nan

>  <Pocket>  (85) 
nan

>  <ATP_Site>  (85) 
nan

>  <Peripheral>  (85) 
nan

>  <Num_H_Atoms_ProtBoundConf>  (85) 
nan

>  <Num_Resolved_Atoms>  (85) 
nan

>  <Num_Not_Resolved_Atoms>  (85) 
nan

$$$$
CHEMBL1232773
     RDKit          3D

  0  0  0  0  0  0  0  0  0  0999 V3000
M  V30 BEGIN CTAB
M  V30 COUNTS 46 49 0 0 0
M  V30 BEGIN ATOM
M  V30 1 C 2.879824 -3.313353 2.681848 0
M  V30 2 N 2.596577 -2.338621 1.656255 0
M  V30 3 C 3.521753 -2.013630 0.706971 0
M  V30 4 O 4.638041 -2.560843 0.712524 0
M  V30 5 C 3.144024 -1.068109 -0.226539 0
M  V30 6 O 4.080029 -0.714025 -1.217916 0
M  V30 7 C 3.738220 0.235454 -2.177595 0
M  V30 8 C 3.150983 -0.246017 -3.332709 0
M  V30 9 C 2.788323 0.653170 -4.325656 0
M  V30 10 C 2.998818 2.010715 -4.188487 0
M  V30 11 C 3.593092 2.470148 -3.013033 0
M  V30 12 C 3.959621 1.588884 -2.015921 0
M  V30 13 C 1.924644 -0.425529 -0.287538 0
M  V30 14 C 1.020614 -0.789809 0.697289 0
M  V30 15 C -0.219637 -0.182010 0.691326 0
M  V30 16 N -1.121188 -0.513713 1.634747 0
M  V30 17 C -0.783107 -1.428849 2.554643 0
M  V30 18 N -1.758577 -1.773535 3.557969 0
M  V30 19 C -3.058557 -1.123407 3.535624 0
M  V30 20 C -2.976119 0.351717 3.676029 0
M  V30 21 C -4.003635 1.125238 2.888817 0
M  V30 22 O -4.034134 0.687348 1.584968 0
M  V30 23 C -4.597111 -0.567210 1.602412 0
M  V30 24 C -3.839640 -1.606862 2.350613 0
M  V30 25 N 0.413933 -2.007693 2.550870 0
M  V30 26 C 1.383645 -1.733012 1.636717 0
M  V30 27 H 3.987851 -3.519314 2.661291 0
M  V30 28 H 2.698906 -2.904707 3.693995 0
M  V30 29 H 2.310658 -4.255435 2.548160 0
M  V30 30 H 2.943371 -1.294908 -3.535772 0
M  V30 31 H 2.327514 0.375578 -5.255502 0
M  V30 32 H 2.729750 2.747284 -4.941417 0
M  V30 33 H 3.799956 3.531324 -2.814459 0
M  V30 34 H 4.425117 1.948214 -1.095063 0
M  V30 35 H 1.690837 0.301310 -1.038834 0
M  V30 36 H -0.484046 0.560290 -0.060692 0
M  V30 37 H -1.496940 -2.497595 4.289327 0
M  V30 38 H -3.613888 -1.497966 4.446058 0
M  V30 39 H -3.136246 0.685250 4.744620 0
M  V30 40 H -1.994410 0.799882 3.416893 0
M  V30 41 H -5.022084 1.026191 3.313948 0
M  V30 42 H -3.679106 2.191007 2.860328 0
M  V30 43 H -4.662256 -0.892530 0.525388 0
M  V30 44 H -5.661160 -0.538969 1.937842 0
M  V30 45 H -4.576134 -2.400858 2.617786 0
M  V30 46 H -3.139830 -2.126964 1.639776 0
M  V30 END ATOM
M  V30 BEGIN BOND
M  V30 1 1 1 2
M  V30 2 1 2 3
M  V30 3 2 3 4
M  V30 4 1 3 5
M  V30 5 1 5 6
M  V30 6 1 6 7
M  V30 7 2 7 8
M  V30 8 1 8 9
M  V30 9 2 9 10
M  V30 10 1 10 11
M  V30 11 2 11 12
M  V30 12 2 5 13
M  V30 13 1 13 14
M  V30 14 2 14 15
M  V30 15 1 15 16
M  V30 16 2 16 17
M  V30 17 1 17 18
M  V30 18 1 18 19
M  V30 19 1 19 20
M  V30 20 1 20 21
M  V30 21 1 21 22
M  V30 22 1 22 23
M  V30 23 1 23 24
M  V30 24 1 17 25
M  V30 25 2 25 26
M  V30 26 1 26 2
M  V30 27 1 12 7
M  V30 28 1 26 14
M  V30 29 1 24 19
M  V30 30 1 1 27
M  V30 31 1 1 28
M  V30 32 1 1 29
M  V30 33 1 8 30
M  V30 34 1 9 31
M  V30 35 1 10 32
M  V30 36 1 11 33
M  V30 37 1 12 34
M  V30 38 1 13 35
M  V30 39 1 15 36
M  V30 40 1 18 37
M  V30 41 1 19 38
M  V30 42 1 20 39
M  V30 43 1 20 40
M  V30 44 1 21 41
M  V30 45 1 21 42
M  V30 46 1 23 43
M  V30 47 1 23 44
M  V30 48 1 24 45
M  V30 49 1 24 46
M  V30 END BOND
M  V30 END CTAB
M  END
>  <Dataset>  (86) 
ChEMBL_Kinases

>  <Ligand_Instance>  (86) 
nan

>  <PDB_ID>  (86) 
nan

>  <Standardized_SMILES>  (86) 
Cn1c(=O)c(Oc2ccccc2)cc2cnc(NC3CCOCC3)nc21

>  <Name>  (86) 
nan

>  <Pocket>  (86) 
nan

>  <ATP_Site>  (86) 
nan

>  <Peripheral>  (86) 
nan

>  <Num_H_Atoms_ProtBoundConf>  (86) 
nan

>  <Num_Resolved_Atoms>  (86) 
nan

>  <Num_Not_Resolved_Atoms>  (86) 
nan

$$$$
CHEMBL123469
     RDKit          3D

  0  0  0  0  0  0  0  0  0  0999 V3000
M  V30 BEGIN CTAB
M  V30 COUNTS 45 48 0 0 0
M  V30 BEGIN ATOM
M  V30 1 O -1.124661 -3.522174 4.659481 0
M  V30 2 C -0.350880 -2.857575 3.926566 0
M  V30 3 N 0.779283 -2.214460 4.486897 0
M  V30 4 C 1.780931 -1.412609 3.829279 0
M  V30 5 C 1.514883 -1.297575 2.370873 0
M  V30 6 C 2.415559 -0.547308 1.633740 0
M  V30 7 C 2.217261 -0.405856 0.269344 0
M  V30 8 N 3.030673 0.322457 -0.648943 0
M  V30 9 S 2.429499 1.386725 -1.865824 0
M  V30 10 O 1.633790 0.683091 -2.917741 0
M  V30 11 O 3.632517 1.971698 -2.557195 0
M  V30 12 C 1.538549 2.735584 -1.192355 0
M  V30 13 C 1.355946 2.899760 0.163441 0
M  V30 14 C 0.637826 3.993291 0.637781 0
M  V30 15 Cl 0.445079 4.138578 2.372504 0
M  V30 16 C 0.084846 4.947140 -0.209397 0
M  V30 17 C 0.304495 4.723174 -1.553062 0
M  V30 18 C 1.007278 3.658469 -2.076610 0
M  V30 19 O 1.193494 3.489542 -3.442988 0
M  V30 20 C 1.125539 -1.008743 -0.363290 0
M  V30 21 C 0.236146 -1.759400 0.413341 0
M  V30 22 C 0.429833 -1.902599 1.771084 0
M  V30 23 N -0.500963 -2.675272 2.519399 0
M  V30 24 C -1.623785 -3.299023 1.886952 0
M  V30 25 C -1.337289 -4.589277 1.437853 0
M  V30 26 Cl 0.224121 -5.370369 1.623006 0
M  V30 27 C -2.327317 -5.326498 0.801363 0
M  V30 28 C -3.593163 -4.781933 0.613920 0
M  V30 29 C -3.855830 -3.498900 1.067824 0
M  V30 30 C -2.879628 -2.756718 1.701852 0
M  V30 31 Cl -3.105873 -1.130673 2.312226 0
M  V30 32 H 0.974643 -2.290764 5.517028 0
M  V30 33 H 1.673899 -0.367175 4.227358 0
M  V30 34 H 2.814282 -1.780575 3.992641 0
M  V30 35 H 3.275624 -0.048107 2.011496 0
M  V30 36 H 4.022196 0.053328 -0.399844 0
M  V30 37 H 1.775197 2.172988 0.844760 0
M  V30 38 H -0.466050 5.785462 0.160673 0
M  V30 39 H -0.107631 5.441148 -2.261272 0
M  V30 40 H 0.589658 2.979144 -4.061128 0
M  V30 41 H 0.898907 -0.949140 -1.414520 0
M  V30 42 H -0.621282 -2.235181 -0.072145 0
M  V30 43 H -2.120172 -6.338090 0.443504 0
M  V30 44 H -4.369615 -5.358755 0.115312 0
M  V30 45 H -4.828980 -3.029836 0.944962 0
M  V30 END ATOM
M  V30 BEGIN BOND
M  V30 1 2 1 2
M  V30 2 1 2 3
M  V30 3 1 3 4
M  V30 4 1 4 5
M  V30 5 2 5 6
M  V30 6 1 6 7
M  V30 7 1 7 8
M  V30 8 1 8 9
M  V30 9 2 9 10
M  V30 10 2 9 11
M  V30 11 1 9 12
M  V30 12 2 12 13
M  V30 13 1 13 14
M  V30 14 1 14 15
M  V30 15 2 14 16
M  V30 16 1 16 17
M  V30 17 2 17 18
M  V30 18 1 18 19
M  V30 19 2 7 20
M  V30 20 1 20 21
M  V30 21 2 21 22
M  V30 22 1 22 23
M  V30 23 1 23 24
M  V30 24 2 24 25
M  V30 25 1 25 26
M  V30 26 1 25 27
M  V30 27 2 27 28
M  V30 28 1 28 29
M  V30 29 2 29 30
M  V30 30 1 30 31
M  V30 31 1 23 2
M  V30 32 1 30 24
M  V30 33 1 22 5
M  V30 34 1 18 12
M  V30 35 1 3 32
M  V30 36 1 4 33
M  V30 37 1 4 34
M  V30 38 1 6 35
M  V30 39 1 8 36
M  V30 40 1 13 37
M  V30 41 1 16 38
M  V30 42 1 17 39
M  V30 43 1 19 40
M  V30 44 1 20 41
M  V30 45 1 21 42
M  V30 46 1 27 43
M  V30 47 1 28 44
M  V30 48 1 29 45
M  V30 END BOND
M  V30 END CTAB
M  END
>  <Dataset>  (87) 
ChEMBL_Kinases

>  <Ligand_Instance>  (87) 
nan

>  <PDB_ID>  (87) 
nan

>  <Standardized_SMILES>  (87) 
O=C1NCc2cc(NS(=O)(=O)c3cc(Cl)ccc3O)ccc2N1c1c(Cl)cccc1Cl

>  <Name>  (87) 
nan

>  <Pocket>  (87) 
nan

>  <ATP_Site>  (87) 
nan

>  <Peripheral>  (87) 
nan

>  <Num_H_Atoms_ProtBoundConf>  (87) 
nan

>  <Num_Resolved_Atoms>  (87) 
nan

>  <Num_Not_Resolved_Atoms>  (87) 
nan

$$$$
CHEMBL1232887
     RDKit          3D

  0  0  0  0  0  0  0  0  0  0999 V3000
M  V30 BEGIN CTAB
M  V30 COUNTS 49 52 0 0 0
M  V30 BEGIN ATOM
M  V30 1 C 0.490112 0.125604 4.807629 0
M  V30 2 C 1.527483 0.479731 3.804956 0
M  V30 3 C 2.677556 1.169257 4.211727 0
M  V30 4 C 3.719776 1.558036 3.373863 0
M  V30 5 C 3.587396 1.227083 2.041311 0
M  V30 6 C 4.674018 1.630728 1.159107 0
M  V30 7 O 5.648668 2.242979 1.647633 0
M  V30 8 N 4.737124 1.390744 -0.239549 0
M  V30 9 C 5.848087 1.820078 -1.056518 0
M  V30 10 C 6.249165 1.056620 -2.259439 0
M  V30 11 C 5.462438 2.294609 -2.432079 0
M  V30 12 C 2.464597 0.548979 1.618977 0
M  V30 13 C 1.443246 0.172672 2.464050 0
M  V30 14 C 0.270362 -0.543582 1.982208 0
M  V30 15 C 0.073291 -0.905270 0.668051 0
M  V30 16 C -1.036595 -1.584165 0.206733 0
M  V30 17 C -2.031463 -1.938029 1.094654 0
M  V30 18 C -3.262836 -2.653085 0.778753 0
M  V30 19 O -4.131529 -2.941115 1.666303 0
M  V30 20 N -3.617392 -3.095530 -0.525653 0
M  V30 21 C -4.836331 -3.801669 -0.829987 0
M  V30 22 C -6.055222 -3.001674 -0.487751 0
M  V30 23 C -7.380584 -3.620191 -0.754378 0
M  V30 24 C -6.939016 -2.518666 -1.663054 0
M  V30 25 C -1.833148 -1.575167 2.411352 0
M  V30 26 N -0.729236 -0.913470 2.800980 0
M  V30 27 H 0.451671 -0.986100 4.856721 0
M  V30 28 H 0.851856 0.453485 5.814594 0
M  V30 29 H -0.482217 0.597286 4.613083 0
M  V30 30 H 2.760793 1.421428 5.274630 0
M  V30 31 H 4.555531 2.088182 3.817844 0
M  V30 32 H 3.950038 0.886699 -0.683158 0
M  V30 33 H 6.639181 2.351319 -0.487073 0
M  V30 34 H 7.317840 1.134522 -2.571588 0
M  V30 35 H 5.781261 0.099034 -2.493623 0
M  V30 36 H 5.964161 3.206746 -2.810703 0
M  V30 37 H 4.400226 2.223870 -2.751372 0
M  V30 38 H 2.445241 0.331916 0.561988 0
M  V30 39 H 0.809159 -0.661279 -0.079421 0
M  V30 40 H -1.190308 -1.866790 -0.820857 0
M  V30 41 H -2.905324 -2.864873 -1.281075 0
M  V30 42 H -4.855732 -3.995330 -1.919299 0
M  V30 43 H -4.861123 -4.808665 -0.333895 0
M  V30 44 H -5.997148 -2.356610 0.389820 0
M  V30 45 H -8.237435 -3.339497 -0.093664 0
M  V30 46 H -7.386929 -4.627885 -1.228739 0
M  V30 47 H -7.295933 -1.486662 -1.541725 0
M  V30 48 H -6.586121 -2.731472 -2.686240 0
M  V30 49 H -2.555757 -1.802282 3.209471 0
M  V30 END ATOM
M  V30 BEGIN BOND
M  V30 1 1 1 2
M  V30 2 2 2 3
M  V30 3 1 3 4
M  V30 4 2 4 5
M  V30 5 1 5 6
M  V30 6 2 6 7
M  V30 7 1 6 8
M  V30 8 1 8 9
M  V30 9 1 9 10
M  V30 10 1 10 11
M  V30 11 1 5 12
M  V30 12 2 12 13
M  V30 13 1 13 14
M  V30 14 2 14 15
M  V30 15 1 15 16
M  V30 16 2 16 17
M  V30 17 1 17 18
M  V30 18 2 18 19
M  V30 19 1 18 20
M  V30 20 1 20 21
M  V30 21 1 21 22
M  V30 22 1 22 23
M  V30 23 1 23 24
M  V30 24 1 17 25
M  V30 25 2 25 26
M  V30 26 1 13 2
M  V30 27 1 26 14
M  V30 28 1 11 9
M  V30 29 1 24 22
M  V30 30 1 1 27
M  V30 31 1 1 28
M  V30 32 1 1 29
M  V30 33 1 3 30
M  V30 34 1 4 31
M  V30 35 1 8 32
M  V30 36 1 9 33
M  V30 37 1 10 34
M  V30 38 1 10 35
M  V30 39 1 11 36
M  V30 40 1 11 37
M  V30 41 1 12 38
M  V30 42 1 15 39
M  V30 43 1 16 40
M  V30 44 1 20 41
M  V30 45 1 21 42
M  V30 46 1 21 43
M  V30 47 1 22 44
M  V30 48 1 23 45
M  V30 49 1 23 46
M  V30 50 1 24 47
M  V30 51 1 24 48
M  V30 52 1 25 49
M  V30 END BOND
M  V30 END CTAB
M  END
>  <Dataset>  (88) 
ChEMBL_Kinases

>  <Ligand_Instance>  (88) 
nan

>  <PDB_ID>  (88) 
nan

>  <Standardized_SMILES>  (88) 
Cc1ccc(C(=O)NC2CC2)cc1-c1ccc(C(=O)NCC2CC2)cn1

>  <Name>  (88) 
nan

>  <Pocket>  (88) 
nan

>  <ATP_Site>  (88) 
nan

>  <Peripheral>  (88) 
nan

>  <Num_H_Atoms_ProtBoundConf>  (88) 
nan

>  <Num_Resolved_Atoms>  (88) 
nan

>  <Num_Not_Resolved_Atoms>  (88) 
nan

$$$$
CHEMBL1232916
     RDKit          3D

  0  0  0  0  0  0  0  0  0  0999 V3000
M  V30 BEGIN CTAB
M  V30 COUNTS 38 41 0 0 0
M  V30 BEGIN ATOM
M  V30 1 C 1.799040 -3.744408 5.087759 0
M  V30 2 C 2.050020 -2.297956 4.837388 0
M  V30 3 N 2.715123 -1.519224 5.723080 0
M  V30 4 N 2.745481 -0.316133 5.171331 0
M  V30 5 C 2.122772 -0.324067 3.976323 0
M  V30 6 C 1.941408 0.797644 3.058177 0
M  V30 7 C 2.411162 2.069783 3.317620 0
M  V30 8 C 2.192554 3.086172 2.381210 0
M  V30 9 C 1.509197 2.855175 1.182434 0
M  V30 10 O 1.165307 3.570441 0.157473 0
M  V30 11 C 0.514945 2.849318 -0.729201 0
M  V30 12 C 0.398666 1.543577 -0.290924 0
M  V30 13 C -0.245867 0.423243 -0.963915 0
M  V30 14 C -1.092066 -0.468559 -0.337174 0
M  V30 15 C -1.694790 -1.524792 -0.988644 0
M  V30 16 C -1.456837 -1.723748 -2.337629 0
M  V30 17 S -2.279580 -3.100772 -3.057845 0 CHG=1 VAL=3
M  V30 18 C -3.851755 -2.522182 -3.653758 0
M  V30 19 O -2.525064 -4.293110 -1.911454 0 CHG=-1 VAL=1
M  V30 20 C -0.620821 -0.852976 -2.983701 0
M  V30 21 C -0.031156 0.195008 -2.308185 0
M  V30 22 C 1.049760 1.572833 0.948027 0
M  V30 23 C 1.266602 0.569249 1.874550 0
M  V30 24 O 1.710697 -1.571985 3.815811 0
M  V30 25 H 1.375195 -3.938057 6.074186 0
M  V30 26 H 1.051444 -4.071987 4.308490 0
M  V30 27 H 2.697613 -4.365913 4.866003 0
M  V30 28 H 2.940031 2.264441 4.237309 0
M  V30 29 H 2.556238 4.092742 2.571065 0
M  V30 30 H 0.134407 3.243521 -1.661907 0
M  V30 31 H -1.298726 -0.340755 0.717030 0
M  V30 32 H -2.351330 -2.182617 -0.413427 0
M  V30 33 H -4.194348 -3.152816 -4.501049 0
M  V30 34 H -4.585602 -2.545842 -2.828328 0
M  V30 35 H -3.707789 -1.491310 -4.039026 0
M  V30 36 H -0.469429 -1.055663 -4.040457 0
M  V30 37 H 0.631381 0.873699 -2.849885 0
M  V30 38 H 0.900836 -0.423111 1.673424 0
M  V30 END ATOM
M  V30 BEGIN BOND
M  V30 1 1 1 2
M  V30 2 2 2 3
M  V30 3 1 3 4
M  V30 4 2 4 5
M  V30 5 1 5 6
M  V30 6 2 6 7
M  V30 7 1 7 8
M  V30 8 2 8 9
M  V30 9 1 9 10
M  V30 10 1 10 11
M  V30 11 2 11 12
M  V30 12 1 12 13
M  V30 13 2 13 14
M  V30 14 1 14 15
M  V30 15 2 15 16
M  V30 16 1 16 17
M  V30 17 1 17 18
M  V30 18 1 17 19 CFG=1
M  V30 19 1 16 20
M  V30 20 2 20 21
M  V30 21 1 12 22
M  V30 22 2 22 23
M  V30 23 1 5 24
M  V30 24 1 24 2
M  V30 25 1 23 6
M  V30 26 1 22 9
M  V30 27 1 21 13
M  V30 28 1 1 25
M  V30 29 1 1 26
M  V30 30 1 1 27
M  V30 31 1 7 28
M  V30 32 1 8 29
M  V30 33 1 11 30
M  V30 34 1 14 31
M  V30 35 1 15 32
M  V30 36 1 18 33
M  V30 37 1 18 34
M  V30 38 1 18 35
M  V30 39 1 20 36
M  V30 40 1 21 37
M  V30 41 1 23 38
M  V30 END BOND
M  V30 END CTAB
M  END
>  <Dataset>  (89) 
ChEMBL_Kinases

>  <Ligand_Instance>  (89) 
nan

>  <PDB_ID>  (89) 
nan

>  <Standardized_SMILES>  (89) 
Cc1nnc(-c2ccc3occ(-c4ccc([S@+](C)[O-])cc4)c3c2)o1

>  <Name>  (89) 
nan

>  <Pocket>  (89) 
nan

>  <ATP_Site>  (89) 
nan

>  <Peripheral>  (89) 
nan

>  <Num_H_Atoms_ProtBoundConf>  (89) 
nan

>  <Num_Resolved_Atoms>  (89) 
nan

>  <Num_Not_Resolved_Atoms>  (89) 
nan

$$$$
CHEMBL1233024
     RDKit          3D

  0  0  0  0  0  0  0  0  0  0999 V3000
M  V30 BEGIN CTAB
M  V30 COUNTS 28 30 0 0 0
M  V30 BEGIN ATOM
M  V30 1 F -0.632647 -5.600025 1.802198 0
M  V30 2 C -0.107961 -4.376575 1.584936 0
M  V30 3 C 0.001858 -3.801054 0.332797 0
M  V30 4 C 0.554313 -2.542721 0.217479 0
M  V30 5 C 1.016494 -1.804331 1.308197 0
M  V30 6 C 1.606813 -0.482977 1.241246 0
M  V30 7 N 2.880197 -0.354164 1.652715 0
M  V30 8 N 3.266918 0.923549 1.525719 0
M  V30 9 C 2.241124 1.668824 1.021665 0
M  V30 10 C 1.185638 0.766697 0.842426 0
M  V30 11 C -0.162399 0.979648 0.331472 0
M  V30 12 C -0.101012 1.470632 -0.981179 0
M  V30 13 C -1.253412 1.754033 -1.685451 0
M  V30 14 N -2.468495 1.554875 -1.100217 0
M  V30 15 C -2.525248 1.087927 0.147079 0
M  V30 16 C -1.408423 0.790560 0.890410 0
M  V30 17 C 0.887524 -2.422100 2.558446 0
M  V30 18 C 0.335847 -3.682377 2.686016 0
M  V30 19 H -0.343403 -4.342561 -0.534813 0
M  V30 20 H 0.661394 -2.047464 -0.759600 0
M  V30 21 H 4.165740 1.375522 1.742273 0
M  V30 22 H 2.178628 2.715408 0.787196 0
M  V30 23 H 0.797662 1.678540 -1.578216 0
M  V30 24 H -1.286681 2.131904 -2.691820 0
M  V30 25 H -3.460960 0.898347 0.694932 0
M  V30 26 H -1.318504 0.413124 1.893749 0
M  V30 27 H 1.225721 -1.909639 3.471488 0
M  V30 28 H 0.268881 -4.096587 3.701466 0
M  V30 END ATOM
M  V30 BEGIN BOND
M  V30 1 1 1 2
M  V30 2 2 2 3
M  V30 3 1 3 4
M  V30 4 2 4 5
M  V30 5 1 5 6
M  V30 6 2 6 7
M  V30 7 1 7 8
M  V30 8 1 8 9
M  V30 9 2 9 10
M  V30 10 1 10 11
M  V30 11 2 11 12
M  V30 12 1 12 13
M  V30 13 2 13 14
M  V30 14 1 14 15
M  V30 15 2 15 16
M  V30 16 1 5 17
M  V30 17 2 17 18
M  V30 18 1 18 2
M  V30 19 1 10 6
M  V30 20 1 16 11
M  V30 21 1 3 19
M  V30 22 1 4 20
M  V30 23 1 8 21
M  V30 24 1 9 22
M  V30 25 1 12 23
M  V30 26 1 13 24
M  V30 27 1 15 25
M  V30 28 1 16 26
M  V30 29 1 17 27
M  V30 30 1 18 28
M  V30 END BOND
M  V30 END CTAB
M  END
>  <Dataset>  (90) 
ChEMBL_Kinases

>  <Ligand_Instance>  (90) 
nan

>  <PDB_ID>  (90) 
nan

>  <Standardized_SMILES>  (90) 
Fc1ccc(-c2n[nH]cc2-c2ccncc2)cc1

>  <Name>  (90) 
nan

>  <Pocket>  (90) 
nan

>  <ATP_Site>  (90) 
nan

>  <Peripheral>  (90) 
nan

>  <Num_H_Atoms_ProtBoundConf>  (90) 
nan

>  <Num_Resolved_Atoms>  (90) 
nan

>  <Num_Not_Resolved_Atoms>  (90) 
nan

$$$$
CHEMBL1233654
     RDKit          3D

  0  0  0  0  0  0  0  0  0  0999 V3000
M  V30 BEGIN CTAB
M  V30 COUNTS 37 39 0 0 0
M  V30 BEGIN ATOM
M  V30 1 C -2.523921 -1.973704 0.520700 0
M  V30 2 C -1.104949 -2.238491 1.000675 0 CFG=1
M  V30 3 C -1.126406 -3.590073 1.641074 0
M  V30 4 N 0.140401 -4.103172 2.019812 0
M  V30 5 C 1.265425 -3.646693 1.313294 0
M  V30 6 C 1.149238 -2.366045 0.548193 0
M  V30 7 N -0.098195 -2.056748 -0.011219 0
M  V30 8 S -0.306737 -0.738238 -1.016710 0
M  V30 9 O 0.427083 -0.874405 -2.340021 0
M  V30 10 O -1.745008 -0.692476 -1.476040 0
M  V30 11 C 0.028115 0.804017 -0.269041 0
M  V30 12 C -1.056448 1.601858 0.146437 0
M  V30 13 C -0.964605 2.802230 0.818824 0
M  V30 14 C 0.280899 3.273678 1.115491 0
M  V30 15 C 1.382764 2.548690 0.738716 0
M  V30 16 C 2.657558 3.008845 0.999766 0
M  V30 17 N 3.755396 2.300213 0.600717 0
M  V30 18 C 3.602760 1.126375 -0.062910 0
M  V30 19 C 2.337419 0.691629 -0.308704 0
M  V30 20 C 1.231567 1.374479 0.078685 0
M  V30 21 H -2.719584 -2.502465 -0.434448 0
M  V30 22 H -2.819997 -0.924733 0.553448 0
M  V30 23 H -3.245392 -2.483175 1.235887 0
M  V30 24 H -0.901583 -1.491813 1.797700 0
M  V30 25 H -1.650468 -4.290216 0.970354 0
M  V30 26 H -1.756177 -3.496971 2.558261 0
M  V30 27 H 0.114471 -5.149454 2.093419 0
M  V30 28 H 1.566451 -4.463574 0.593104 0
M  V30 29 H 2.131935 -3.567894 2.002828 0
M  V30 30 H 1.990431 -2.416601 -0.209723 0
M  V30 31 H 1.450413 -1.556848 1.246663 0
M  V30 32 H -2.061482 1.262705 -0.070766 0
M  V30 33 H -1.845516 3.343813 1.097341 0
M  V30 34 H 0.433811 4.200902 1.638500 0
M  V30 35 H 2.837278 3.940911 1.526201 0
M  V30 36 H 4.477143 0.597117 -0.362115 0
M  V30 37 H 2.263556 -0.210098 -0.851420 0
M  V30 END ATOM
M  V30 BEGIN BOND
M  V30 1 1 1 2
M  V30 2 1 2 3
M  V30 3 1 3 4
M  V30 4 1 4 5
M  V30 5 1 5 6
M  V30 6 1 6 7
M  V30 7 1 7 8
M  V30 8 2 8 9
M  V30 9 2 8 10
M  V30 10 1 8 11
M  V30 11 2 11 12
M  V30 12 1 12 13
M  V30 13 2 13 14
M  V30 14 1 14 15
M  V30 15 2 15 16
M  V30 16 1 16 17
M  V30 17 2 17 18
M  V30 18 1 18 19
M  V30 19 2 19 20
M  V30 20 1 7 2
M  V30 21 1 20 11
M  V30 22 1 20 15
M  V30 23 1 1 21
M  V30 24 1 1 22
M  V30 25 1 1 23
M  V30 26 1 2 24 CFG=1
M  V30 27 1 3 25
M  V30 28 1 3 26
M  V30 29 1 4 27
M  V30 30 1 5 28
M  V30 31 1 5 29
M  V30 32 1 6 30
M  V30 33 1 6 31
M  V30 34 1 12 32
M  V30 35 1 13 33
M  V30 36 1 14 34
M  V30 37 1 16 35
M  V30 38 1 18 36
M  V30 39 1 19 37
M  V30 END BOND
M  V30 END CTAB
M  END
>  <Dataset>  (91) 
ChEMBL_Kinases

>  <Ligand_Instance>  (91) 
nan

>  <PDB_ID>  (91) 
nan

>  <Standardized_SMILES>  (91) 
C[C@H]1CNCCN1S(=O)(=O)c1cccc2cnccc12

>  <Name>  (91) 
nan

>  <Pocket>  (91) 
nan

>  <ATP_Site>  (91) 
nan

>  <Peripheral>  (91) 
nan

>  <Num_H_Atoms_ProtBoundConf>  (91) 
nan

>  <Num_Resolved_Atoms>  (91) 
nan

>  <Num_Not_Resolved_Atoms>  (91) 
nan

$$$$
CHEMBL1233853
     RDKit          3D

  0  0  0  0  0  0  0  0  0  0999 V3000
M  V30 BEGIN CTAB
M  V30 COUNTS 41 43 0 0 0
M  V30 BEGIN ATOM
M  V30 1 O -0.252947 -1.136341 1.926722 0
M  V30 2 C 0.478033 -1.771900 2.758737 0
M  V30 3 N 1.842628 -1.375381 2.890976 0
M  V30 4 C 2.305097 -0.292130 2.084008 0
M  V30 5 C 2.314941 1.060359 2.354661 0
M  V30 6 C 2.819317 1.926680 1.406374 0
M  V30 7 C 3.311115 1.470664 0.200111 0
M  V30 8 O 3.812148 2.369478 -0.733609 0
M  V30 9 C 2.981408 2.946785 -1.709558 0
M  V30 10 C 2.918364 2.198829 -2.885267 0
M  V30 11 C 2.125812 2.686570 -3.904041 0
M  V30 12 N 1.439554 3.852012 -3.752234 0
M  V30 13 C 1.533972 4.534874 -2.599901 0
M  V30 14 C 2.294677 4.130671 -1.533099 0
M  V30 15 C 3.308137 0.116998 -0.086261 0
M  V30 16 C 2.799836 -0.765359 0.867397 0
M  V30 17 N -0.198443 -2.812172 3.450525 0
M  V30 18 C -1.593230 -2.984589 3.106288 0
M  V30 19 C -2.511707 -2.264162 3.843255 0
M  V30 20 C -3.838852 -2.448035 3.492807 0
M  V30 21 C -4.199826 -3.313753 2.454933 0
M  V30 22 C -3.219443 -3.999531 1.764443 0
M  V30 23 C -3.609340 -4.925887 0.653503 0
M  V30 24 F -4.616314 -4.343390 -0.083156 0
M  V30 25 F -2.517654 -5.015939 -0.219192 0
M  V30 26 F -4.036161 -6.143028 1.088846 0
M  V30 27 C -1.882538 -3.852255 2.073615 0
M  V30 28 H 2.344923 -1.960395 3.595824 0
M  V30 29 H 1.907264 1.296612 3.323886 0
M  V30 30 H 2.802040 2.967475 1.670622 0
M  V30 31 H 3.452267 1.273271 -3.029605 0
M  V30 32 H 2.076697 2.101911 -4.822703 0
M  V30 33 H 0.975601 5.459304 -2.509529 0
M  V30 34 H 2.396754 4.649645 -0.592404 0
M  V30 35 H 3.700559 -0.211047 -1.041004 0
M  V30 36 H 2.844289 -1.801311 0.543006 0
M  V30 37 H 0.410542 -3.340850 4.142958 0
M  V30 38 H -2.205309 -1.602219 4.639993 0
M  V30 39 H -4.627744 -1.920663 4.020167 0
M  V30 40 H -5.229099 -3.476850 2.159457 0
M  V30 41 H -1.104531 -4.381002 1.543530 0
M  V30 END ATOM
M  V30 BEGIN BOND
M  V30 1 2 1 2
M  V30 2 1 2 3
M  V30 3 1 3 4
M  V30 4 2 4 5
M  V30 5 1 5 6
M  V30 6 2 6 7
M  V30 7 1 7 8
M  V30 8 1 8 9
M  V30 9 2 9 10
M  V30 10 1 10 11
M  V30 11 2 11 12
M  V30 12 1 12 13
M  V30 13 2 13 14
M  V30 14 1 7 15
M  V30 15 2 15 16
M  V30 16 1 2 17
M  V30 17 1 17 18
M  V30 18 2 18 19
M  V30 19 1 19 20
M  V30 20 2 20 21
M  V30 21 1 21 22
M  V30 22 1 22 23
M  V30 23 1 23 24
M  V30 24 1 23 25
M  V30 25 1 23 26
M  V30 26 2 22 27
M  V30 27 1 16 4
M  V30 28 1 27 18
M  V30 29 1 14 9
M  V30 30 1 3 28
M  V30 31 1 5 29
M  V30 32 1 6 30
M  V30 33 1 10 31
M  V30 34 1 11 32
M  V30 35 1 13 33
M  V30 36 1 14 34
M  V30 37 1 15 35
M  V30 38 1 16 36
M  V30 39 1 17 37
M  V30 40 1 19 38
M  V30 41 1 20 39
M  V30 42 1 21 40
M  V30 43 1 27 41
M  V30 END BOND
M  V30 END CTAB
M  END
>  <Dataset>  (92) 
ChEMBL_Kinases

>  <Ligand_Instance>  (92) 
nan

>  <PDB_ID>  (92) 
nan

>  <Standardized_SMILES>  (92) 
O=C(Nc1ccc(Oc2ccncc2)cc1)Nc1cccc(C(F)(F)F)c1

>  <Name>  (92) 
nan

>  <Pocket>  (92) 
nan

>  <ATP_Site>  (92) 
nan

>  <Peripheral>  (92) 
nan

>  <Num_H_Atoms_ProtBoundConf>  (92) 
nan

>  <Num_Resolved_Atoms>  (92) 
nan

>  <Num_Not_Resolved_Atoms>  (92) 
nan

$$$$
CHEMBL1233942
     RDKit          3D

  0  0  0  0  0  0  0  0  0  0999 V3000
M  V30 BEGIN CTAB
M  V30 COUNTS 50 55 0 0 0
M  V30 BEGIN ATOM
M  V30 1 C 1.613542 -4.433820 -0.132037 0
M  V30 2 N 2.813684 -3.946016 -0.784671 0
M  V30 3 C 3.595706 -3.140580 0.113863 0
M  V30 4 C 3.253615 -1.918802 -0.727054 0
M  V30 5 C 4.519258 -1.280483 -1.218633 0
M  V30 6 N 5.181187 -0.674135 -0.069149 0
M  V30 7 C 4.387067 0.299434 0.613248 0
M  V30 8 O 4.874218 1.302922 1.221561 0
M  V30 9 C 2.925042 0.146168 0.621394 0
M  V30 10 C 2.396893 -0.942245 -0.038344 0
M  V30 11 N 1.067546 -0.943613 0.057591 0
M  V30 12 C 0.713230 0.127287 0.770330 0
M  V30 13 C 1.833792 0.838230 1.144822 0
M  V30 14 C 1.965108 2.093072 1.941127 0
M  V30 15 C 0.657654 2.650560 2.386855 0
M  V30 16 C -0.524264 1.851336 1.963570 0
M  V30 17 C -1.757183 2.314351 2.350688 0
M  V30 18 N -2.901511 1.683629 2.030951 0
M  V30 19 C -2.968509 0.554690 1.312995 0
M  V30 20 C -4.280532 -0.002318 1.052740 0
M  V30 21 C -5.377996 0.657021 1.555292 0
M  V30 22 C -6.667809 0.213720 1.366231 0
M  V30 23 C -6.929836 -0.932008 0.652153 0
M  V30 24 C -5.852624 -1.608251 0.140268 0
M  V30 25 C -4.580693 -1.139703 0.346800 0
M  V30 26 F -3.594254 -1.859030 -0.185983 0
M  V30 27 C -1.746993 0.082907 0.921134 0
M  V30 28 C -0.551545 0.691192 1.222770 0
M  V30 29 C 2.568723 -2.843641 -1.676339 0
M  V30 30 H 1.491506 -4.001947 0.876196 0
M  V30 31 H 0.751470 -4.058350 -0.721465 0
M  V30 32 H 1.514507 -5.520266 -0.105370 0
M  V30 33 H 4.670376 -3.405928 0.140036 0
M  V30 34 H 3.207575 -3.024385 1.134751 0
M  V30 35 H 5.209438 -2.054536 -1.617782 0
M  V30 36 H 4.337512 -0.515670 -1.971670 0
M  V30 37 H 6.147739 -0.835075 0.341293 0
M  V30 38 H 0.359575 -1.603732 -0.314285 0
M  V30 39 H 2.574392 2.821849 1.357159 0
M  V30 40 H 2.570292 1.832171 2.832395 0
M  V30 41 H 0.672359 2.762834 3.494956 0
M  V30 42 H 0.580192 3.676032 1.938747 0
M  V30 43 H -1.849980 3.220743 2.937896 0
M  V30 44 H -5.287776 1.572295 2.134482 0
M  V30 45 H -7.508414 0.750385 1.771407 0
M  V30 46 H -7.953713 -1.251053 0.523105 0
M  V30 47 H -6.045611 -2.507406 -0.421046 0
M  V30 48 H -1.714083 -0.820188 0.340452 0
M  V30 49 H 3.044067 -2.940022 -2.676580 0
M  V30 50 H 1.497584 -2.581059 -1.779586 0
M  V30 END ATOM
M  V30 BEGIN BOND
M  V30 1 1 1 2
M  V30 2 1 2 3
M  V30 3 1 3 4
M  V30 4 1 4 5
M  V30 5 1 5 6
M  V30 6 1 6 7
M  V30 7 2 7 8
M  V30 8 1 7 9
M  V30 9 2 9 10
M  V30 10 1 10 11
M  V30 11 1 11 12
M  V30 12 2 12 13
M  V30 13 1 13 14
M  V30 14 1 14 15
M  V30 15 1 15 16
M  V30 16 2 16 17
M  V30 17 1 17 18
M  V30 18 2 18 19
M  V30 19 1 19 20
M  V30 20 2 20 21
M  V30 21 1 21 22
M  V30 22 2 22 23
M  V30 23 1 23 24
M  V30 24 2 24 25
M  V30 25 1 25 26
M  V30 26 1 19 27
M  V30 27 2 27 28
M  V30 28 1 4 29
M  V30 29 1 29 2
M  V30 30 1 10 4
M  V30 31 1 28 12
M  V30 32 1 13 9
M  V30 33 1 28 16
M  V30 34 1 25 20
M  V30 35 1 1 30
M  V30 36 1 1 31
M  V30 37 1 1 32
M  V30 38 1 3 33
M  V30 39 1 3 34
M  V30 40 1 5 35
M  V30 41 1 5 36
M  V30 42 1 6 37
M  V30 43 1 11 38
M  V30 44 1 14 39
M  V30 45 1 14 40
M  V30 46 1 15 41
M  V30 47 1 15 42
M  V30 48 1 17 43
M  V30 49 1 21 44
M  V30 50 1 22 45
M  V30 51 1 23 46
M  V30 52 1 24 47
M  V30 53 1 27 48
M  V30 54 1 29 49
M  V30 55 1 29 50
M  V30 END BOND
M  V30 END CTAB
M  END
>  <Dataset>  (93) 
ChEMBL_Kinases

>  <Ligand_Instance>  (93) 
nan

>  <PDB_ID>  (93) 
nan

>  <Standardized_SMILES>  (93) 
CN1CC2(CNC(=O)c3c2[nH]c2c3CCc3cnc(-c4ccccc4F)cc3-2)C1

>  <Name>  (93) 
nan

>  <Pocket>  (93) 
nan

>  <ATP_Site>  (93) 
nan

>  <Peripheral>  (93) 
nan

>  <Num_H_Atoms_ProtBoundConf>  (93) 
nan

>  <Num_Resolved_Atoms>  (93) 
nan

>  <Num_Not_Resolved_Atoms>  (93) 
nan

$$$$
CHEMBL1234032
     RDKit          3D

  0  0  0  0  0  0  0  0  0  0999 V3000
M  V30 BEGIN CTAB
M  V30 COUNTS 24 26 0 0 0
M  V30 BEGIN ATOM
M  V30 1 C 2.540680 -1.120121 3.754467 0
M  V30 2 C 1.663721 -1.943968 3.044180 0
M  V30 3 C 0.954038 -1.471249 1.936710 0
M  V30 4 C 1.171057 -0.156265 1.593060 0
M  V30 5 C 0.603913 0.549287 0.554810 0
M  V30 6 C -0.361894 0.184508 -0.481058 0
M  V30 7 C -0.179489 -1.017822 -1.130936 0
M  V30 8 C -1.116905 -1.334205 -2.111293 0
M  V30 9 N -2.162903 -0.561398 -2.456393 0
M  V30 10 C -2.309361 0.605244 -1.800728 0
M  V30 11 C -1.429423 1.019605 -0.802412 0
M  V30 12 N 1.107714 1.796713 0.600986 0
M  V30 13 N 1.947769 1.864153 1.618784 0
M  V30 14 C 2.033766 0.690285 2.274940 0
M  V30 15 C 2.716963 0.189418 3.362479 0
M  V30 16 H 3.089299 -1.484113 4.609916 0
M  V30 17 H 1.541252 -2.954900 3.363793 0
M  V30 18 H 0.276289 -2.115115 1.391115 0
M  V30 19 H 0.608998 -1.724759 -0.953534 0
M  V30 20 H -1.037171 -2.266766 -2.666063 0
M  V30 21 H -3.138052 1.275665 -2.035446 0
M  V30 22 H -1.532645 1.955490 -0.264725 0
M  V30 23 H 2.484690 2.727106 1.886041 0
M  V30 24 H 3.379831 0.884952 3.865317 0
M  V30 END ATOM
M  V30 BEGIN BOND
M  V30 1 2 1 2
M  V30 2 1 2 3
M  V30 3 2 3 4
M  V30 4 1 4 5
M  V30 5 1 5 6
M  V30 6 2 6 7
M  V30 7 1 7 8
M  V30 8 2 8 9
M  V30 9 1 9 10
M  V30 10 2 10 11
M  V30 11 2 5 12
M  V30 12 1 12 13
M  V30 13 1 13 14
M  V30 14 2 14 15
M  V30 15 1 15 1
M  V30 16 1 14 4
M  V30 17 1 11 6
M  V30 18 1 1 16
M  V30 19 1 2 17
M  V30 20 1 3 18
M  V30 21 1 7 19
M  V30 22 1 8 20
M  V30 23 1 10 21
M  V30 24 1 11 22
M  V30 25 1 13 23
M  V30 26 1 15 24
M  V30 END BOND
M  V30 END CTAB
M  END
>  <Dataset>  (94) 
ChEMBL_Kinases

>  <Ligand_Instance>  (94) 
nan

>  <PDB_ID>  (94) 
nan

>  <Standardized_SMILES>  (94) 
c1ccc2c(-c3ccncc3)n[nH]c2c1

>  <Name>  (94) 
nan

>  <Pocket>  (94) 
nan

>  <ATP_Site>  (94) 
nan

>  <Peripheral>  (94) 
nan

>  <Num_H_Atoms_ProtBoundConf>  (94) 
nan

>  <Num_Resolved_Atoms>  (94) 
nan

>  <Num_Not_Resolved_Atoms>  (94) 
nan

$$$$
CHEMBL1234429
     RDKit          3D

  0  0  0  0  0  0  0  0  0  0999 V3000
M  V30 BEGIN CTAB
M  V30 COUNTS 60 64 0 0 0
M  V30 BEGIN ATOM
M  V30 1 O -1.368078 -4.047020 2.115557 0
M  V30 2 C -0.593692 -3.400602 1.329916 0
M  V30 3 N -0.469620 -2.076802 1.795248 0
M  V30 4 C -1.109622 -1.523024 2.972713 0 CFG=1
M  V30 5 C -0.157677 -1.114032 4.042619 0
M  V30 6 O 0.776066 -0.164718 3.806263 0
M  V30 7 C 0.878422 1.127001 3.515750 0
M  V30 8 C 2.246177 1.425749 3.379153 0
M  V30 9 C 2.689301 2.716851 3.073104 0
M  V30 10 C 1.764924 3.717608 2.901788 0
M  V30 11 N 1.842105 5.045348 2.606411 0
M  V30 12 C 0.581009 5.550595 2.561510 0
M  V30 13 O 0.270942 6.756462 2.313038 0
M  V30 14 N -0.336518 4.579596 2.822603 0
M  V30 15 C 0.413652 3.484904 3.023526 0
M  V30 16 C 0.047761 2.203357 3.323884 0
M  V30 17 C -2.119435 -0.542649 2.547191 0
M  V30 18 C -1.979237 0.285083 1.423569 0
M  V30 19 C -2.947044 1.196732 1.049819 0
M  V30 20 C -4.100398 1.307783 1.801293 0
M  V30 21 C -4.318496 0.532521 2.920572 0
M  V30 22 C -3.318489 -0.359655 3.245614 0
M  V30 23 C 0.040704 -3.972193 0.152493 0
M  V30 24 C -0.278833 -5.322797 -0.049663 0
M  V30 25 C 0.233853 -6.015580 -1.113514 0
M  V30 26 C 1.076951 -5.435050 -2.028154 0
M  V30 27 N 1.370671 -4.139790 -1.816348 0
M  V30 28 C 2.242170 -3.468841 -2.729064 0
M  V30 29 C 1.460412 -2.857704 -3.830622 0
M  V30 30 C 0.935457 -1.591773 -3.879768 0
M  V30 31 C 0.224862 -1.095726 -4.927187 0
M  V30 32 C -0.017643 -1.864251 -6.040376 0
M  V30 33 F -0.721786 -1.343083 -7.054656 0
M  V30 34 C 0.487239 -3.147008 -6.045727 0
M  V30 35 F 0.243313 -3.894074 -7.145497 0
M  V30 36 C 1.211779 -3.637547 -4.965297 0
M  V30 37 C 0.888532 -3.426551 -0.785853 0
M  V30 38 O 1.150285 -2.227344 -0.574920 0
M  V30 39 H 0.127383 -1.401106 1.274976 0
M  V30 40 H -1.739303 -2.350971 3.472094 0
M  V30 41 H -0.781574 -0.913488 4.976081 0
M  V30 42 H 0.376422 -2.080948 4.353274 0
M  V30 43 H 3.120044 0.781843 3.475020 0
M  V30 44 H 3.709833 3.044340 2.948424 0
M  V30 45 H 2.730989 5.572838 2.444131 0
M  V30 46 H -1.366183 4.614326 2.868842 0
M  V30 47 H -0.972847 1.937674 3.456491 0
M  V30 48 H -1.076422 0.199082 0.834277 0
M  V30 49 H -2.825280 1.824254 0.185782 0
M  V30 50 H -4.848228 2.022144 1.500381 0
M  V30 51 H -5.204280 0.609344 3.508180 0
M  V30 52 H -3.479202 -0.979460 4.130008 0
M  V30 53 H -0.944800 -5.885255 0.622728 0
M  V30 54 H -0.019956 -7.051831 -1.256509 0
M  V30 55 H 1.517793 -5.927968 -2.893286 0
M  V30 56 H 2.957016 -4.198558 -3.196288 0
M  V30 57 H 2.903152 -2.725575 -2.233096 0
M  V30 58 H 1.117227 -0.972219 -3.013625 0
M  V30 59 H -0.164592 -0.079489 -4.901323 0
M  V30 60 H 1.579467 -4.645721 -5.028678 0
M  V30 END ATOM
M  V30 BEGIN BOND
M  V30 1 2 1 2
M  V30 2 1 2 3
M  V30 3 1 3 4
M  V30 4 1 4 5
M  V30 5 1 5 6
M  V30 6 1 6 7
M  V30 7 2 7 8
M  V30 8 1 8 9
M  V30 9 2 9 10
M  V30 10 1 10 11
M  V30 11 1 11 12
M  V30 12 2 12 13
M  V30 13 1 12 14
M  V30 14 1 14 15
M  V30 15 2 15 16
M  V30 16 1 4 17
M  V30 17 2 17 18
M  V30 18 1 18 19
M  V30 19 2 19 20
M  V30 20 1 20 21
M  V30 21 2 21 22
M  V30 22 1 2 23
M  V30 23 2 23 24
M  V30 24 1 24 25
M  V30 25 2 25 26
M  V30 26 1 26 27
M  V30 27 1 27 28
M  V30 28 1 28 29
M  V30 29 2 29 30
M  V30 30 1 30 31
M  V30 31 2 31 32
M  V30 32 1 32 33
M  V30 33 1 32 34
M  V30 34 1 34 35
M  V30 35 2 34 36
M  V30 36 1 27 37
M  V30 37 2 37 38
M  V30 38 1 16 7
M  V30 39 1 22 17
M  V30 40 1 37 23
M  V30 41 1 15 10
M  V30 42 1 36 29
M  V30 43 1 3 39
M  V30 44 1 4 40 CFG=1
M  V30 45 1 5 41
M  V30 46 1 5 42
M  V30 47 1 8 43
M  V30 48 1 9 44
M  V30 49 1 11 45
M  V30 50 1 14 46
M  V30 51 1 16 47
M  V30 52 1 18 48
M  V30 53 1 19 49
M  V30 54 1 20 50
M  V30 55 1 21 51
M  V30 56 1 22 52
M  V30 57 1 24 53
M  V30 58 1 25 54
M  V30 59 1 26 55
M  V30 60 1 28 56
M  V30 61 1 28 57
M  V30 62 1 30 58
M  V30 63 1 31 59
M  V30 64 1 36 60
M  V30 END BOND
M  V30 END CTAB
M  END
>  <Dataset>  (95) 
ChEMBL_Kinases

>  <Ligand_Instance>  (95) 
nan

>  <PDB_ID>  (95) 
nan

>  <Standardized_SMILES>  (95) 
O=C(N[C@@H](COc1ccc2[nH]c(=O)[nH]c2c1)c1ccccc1)c1cccn(Cc2ccc(F)c(F)c2)c1=O

>  <Name>  (95) 
nan

>  <Pocket>  (95) 
nan

>  <ATP_Site>  (95) 
nan

>  <Peripheral>  (95) 
nan

>  <Num_H_Atoms_ProtBoundConf>  (95) 
nan

>  <Num_Resolved_Atoms>  (95) 
nan

>  <Num_Not_Resolved_Atoms>  (95) 
nan

$$$$
CHEMBL1232784
     RDKit          3D

  0  0  0  0  0  0  0  0  0  0999 V3000
M  V30 BEGIN CTAB
M  V30 COUNTS 46 49 0 0 0
M  V30 BEGIN ATOM
M  V30 1 C 4.303614 1.415633 0.911501 0
M  V30 2 C 4.237331 0.689054 -0.437059 0 CFG=1
M  V30 3 C 3.798087 -0.721364 -0.101998 0
M  V30 4 N 4.824954 -1.265248 0.794502 0
M  V30 5 N 4.886297 -1.219156 2.103697 0
M  V30 6 C 6.019769 -1.858516 2.470775 0
M  V30 7 N 6.607582 -2.272593 1.342681 0
M  V30 8 N 5.870110 -1.906485 0.306788 0
M  V30 9 N 3.324733 1.343992 -1.341470 0
M  V30 10 C 2.014254 1.358047 -0.767289 0
M  V30 11 N 1.547535 2.360343 0.026889 0
M  V30 12 C 0.277140 2.250186 0.510366 0
M  V30 13 C -0.490856 1.148396 0.190562 0
M  V30 14 C -1.780632 0.997529 0.658462 0
M  V30 15 C -2.586009 -0.102900 0.355695 0
M  V30 16 O -3.847295 -0.058576 0.926369 0
M  V30 17 C -4.344304 -0.996214 1.816889 0
M  V30 18 C -3.795411 -2.135623 2.361151 0
M  V30 19 C -4.537654 -2.894421 3.239635 0
M  V30 20 C -5.825678 -2.571262 3.612908 0
M  V30 21 F -6.444470 -3.403768 4.485609 0
M  V30 22 C -6.381538 -1.430700 3.071248 0
M  V30 23 C -5.650611 -0.642235 2.177111 0
M  V30 24 F -6.358491 0.442937 1.745197 0
M  V30 25 C -2.026885 -1.067627 -0.456449 0
M  V30 26 O -2.783999 -2.038112 -0.704103 0
M  V30 27 N -0.770356 -0.924673 -0.914523 0
M  V30 28 C -0.230871 -1.967467 -1.764030 0
M  V30 29 C -0.003600 0.139555 -0.616334 0
M  V30 30 N 1.252172 0.270472 -1.081227 0
M  V30 31 H 3.417828 1.139221 1.506578 0
M  V30 32 H 4.405953 2.508552 0.744354 0
M  V30 33 H 5.207940 1.042576 1.435318 0
M  V30 34 H 5.243945 0.729395 -0.857005 0
M  V30 35 H 2.871514 -0.698054 0.500943 0
M  V30 36 H 3.634776 -1.353979 -0.973508 0
M  V30 37 H 6.315838 -1.966316 3.512650 0
M  V30 38 H 3.387395 1.799943 -2.292093 0
M  V30 39 H -0.112106 3.032941 1.141271 0
M  V30 40 H -2.130247 1.814834 1.292745 0
M  V30 41 H -2.800144 -2.300292 2.016044 0
M  V30 42 H -3.983486 -3.767620 3.594477 0
M  V30 43 H -7.391632 -1.207848 3.385494 0
M  V30 44 H -0.879813 -2.872288 -1.742543 0
M  V30 45 H -0.214038 -1.635457 -2.824849 0
M  V30 46 H 0.809656 -2.251281 -1.475528 0
M  V30 END ATOM
M  V30 BEGIN BOND
M  V30 1 1 1 2
M  V30 2 1 2 3
M  V30 3 1 3 4
M  V30 4 1 4 5
M  V30 5 2 5 6
M  V30 6 1 6 7
M  V30 7 2 7 8
M  V30 8 1 2 9
M  V30 9 1 9 10
M  V30 10 2 10 11
M  V30 11 1 11 12
M  V30 12 2 12 13
M  V30 13 1 13 14
M  V30 14 2 14 15
M  V30 15 1 15 16
M  V30 16 1 16 17
M  V30 17 2 17 18
M  V30 18 1 18 19
M  V30 19 2 19 20
M  V30 20 1 20 21
M  V30 21 1 20 22
M  V30 22 2 22 23
M  V30 23 1 23 24
M  V30 24 1 15 25
M  V30 25 2 25 26
M  V30 26 1 25 27
M  V30 27 1 27 28
M  V30 28 1 27 29
M  V30 29 2 29 30
M  V30 30 1 8 4
M  V30 31 1 30 10
M  V30 32 1 29 13
M  V30 33 1 23 17
M  V30 34 1 1 31
M  V30 35 1 1 32
M  V30 36 1 1 33
M  V30 37 1 2 34 CFG=3
M  V30 38 1 3 35
M  V30 39 1 3 36
M  V30 40 1 6 37
M  V30 41 1 9 38
M  V30 42 1 12 39
M  V30 43 1 14 40
M  V30 44 1 18 41
M  V30 45 1 19 42
M  V30 46 1 22 43
M  V30 47 1 28 44
M  V30 48 1 28 45
M  V30 49 1 28 46
M  V30 END BOND
M  V30 END CTAB
M  END
>  <Dataset>  (96) 
ChEMBL_Kinases

>  <Ligand_Instance>  (96) 
nan

>  <PDB_ID>  (96) 
nan

>  <Standardized_SMILES>  (96) 
C[C@@H](Cn1ncnn1)Nc1ncc2cc(Oc3ccc(F)cc3F)c(=O)n(C)c2n1

>  <Name>  (96) 
nan

>  <Pocket>  (96) 
nan

>  <ATP_Site>  (96) 
nan

>  <Peripheral>  (96) 
nan

>  <Num_H_Atoms_ProtBoundConf>  (96) 
nan

>  <Num_Resolved_Atoms>  (96) 
nan

>  <Num_Not_Resolved_Atoms>  (96) 
nan

$$$$
CHEMBL1302158
     RDKit          3D

  0  0  0  0  0  0  0  0  0  0999 V3000
M  V30 BEGIN CTAB
M  V30 COUNTS 53 56 0 0 0
M  V30 BEGIN ATOM
M  V30 1 C -0.128170 -2.965934 2.891523 0
M  V30 2 C 0.992532 -3.891250 3.203107 0
M  V30 3 C 2.255316 -3.679406 2.443356 0
M  V30 4 N 2.183124 -3.797099 1.030401 0
M  V30 5 C 1.968359 -2.873253 0.083172 0
M  V30 6 N 1.744922 -1.480416 0.197844 0
M  V30 7 C 0.666634 -0.566473 0.293726 0
M  V30 8 O -0.478311 -1.110591 0.272468 0
M  V30 9 C 0.930961 0.860147 0.404374 0
M  V30 10 C 2.129386 1.542119 0.435070 0
M  V30 11 C 2.149769 2.916266 0.546553 0
M  V30 12 C 0.985534 3.678839 0.632750 0
M  V30 13 Cl 1.158908 5.415759 0.770635 0
M  V30 14 C -0.225557 2.994974 0.602143 0
M  V30 15 S -1.638572 3.976929 0.712479 0
M  V30 16 O -1.654015 4.767589 1.998409 0
M  V30 17 O -1.620917 5.013332 -0.397356 0
M  V30 18 N -3.076384 3.067399 0.660209 0
M  V30 19 C -3.292147 2.320573 -0.533755 0
M  V30 20 C -4.564484 2.834390 -1.168052 0
M  V30 21 C -5.307915 3.517479 -0.061022 0
M  V30 22 C -4.248150 3.812050 0.974590 0
M  V30 23 C -0.224798 1.620832 0.490277 0
M  V30 24 N 1.984601 -3.457635 -1.121906 0
M  V30 25 C 2.212159 -4.796614 -1.010682 0
M  V30 26 C 2.331275 -5.867775 -1.870628 0
M  V30 27 C 2.573652 -7.147764 -1.389600 0
M  V30 28 C 2.696630 -7.347573 -0.030458 0
M  V30 29 C 2.572987 -6.254670 0.815290 0
M  V30 30 C 2.331913 -4.975042 0.353050 0
M  V30 31 H -0.870395 -2.917776 3.733946 0
M  V30 32 H 0.263728 -1.953834 2.786312 0
M  V30 33 H -0.700645 -3.225896 1.994173 0
M  V30 34 H 0.610574 -4.932585 3.023807 0
M  V30 35 H 1.186543 -3.876903 4.310728 0
M  V30 36 H 3.028552 -4.419550 2.799797 0
M  V30 37 H 2.661052 -2.662912 2.703425 0
M  V30 38 H 2.707540 -1.083075 0.207010 0
M  V30 39 H 2.986191 0.905680 0.365494 0
M  V30 40 H 3.141357 3.348333 0.561204 0
M  V30 41 H -3.498062 1.249856 -0.265044 0
M  V30 42 H -2.451698 2.339078 -1.242847 0
M  V30 43 H -5.176980 2.002169 -1.591829 0
M  V30 44 H -4.345469 3.528720 -2.004776 0
M  V30 45 H -5.754249 4.457739 -0.442402 0
M  V30 46 H -6.096838 2.846537 0.342389 0
M  V30 47 H -4.080056 4.906325 1.050842 0
M  V30 48 H -4.644800 3.487886 1.956392 0
M  V30 49 H -1.220455 1.218391 0.479238 0
M  V30 50 H 2.218420 -5.599463 -2.907528 0
M  V30 51 H 2.644641 -7.894444 -2.170756 0
M  V30 52 H 2.884495 -8.358980 0.294288 0
M  V30 53 H 2.683377 -6.506462 1.855774 0
M  V30 END ATOM
M  V30 BEGIN BOND
M  V30 1 1 1 2
M  V30 2 1 2 3
M  V30 3 1 3 4
M  V30 4 1 4 5
M  V30 5 1 5 6
M  V30 6 1 6 7
M  V30 7 2 7 8
M  V30 8 1 7 9
M  V30 9 2 9 10
M  V30 10 1 10 11
M  V30 11 2 11 12
M  V30 12 1 12 13
M  V30 13 1 12 14
M  V30 14 1 14 15
M  V30 15 2 15 16
M  V30 16 2 15 17
M  V30 17 1 15 18
M  V30 18 1 18 19
M  V30 19 1 19 20
M  V30 20 1 20 21
M  V30 21 1 21 22
M  V30 22 2 14 23
M  V30 23 2 5 24
M  V30 24 1 24 25
M  V30 25 2 25 26
M  V30 26 1 26 27
M  V30 27 2 27 28
M  V30 28 1 28 29
M  V30 29 2 29 30
M  V30 30 1 30 4
M  V30 31 1 23 9
M  V30 32 1 30 25
M  V30 33 1 22 18
M  V30 34 1 1 31
M  V30 35 1 1 32
M  V30 36 1 1 33
M  V30 37 1 2 34
M  V30 38 1 2 35
M  V30 39 1 3 36
M  V30 40 1 3 37
M  V30 41 1 6 38
M  V30 42 1 10 39
M  V30 43 1 11 40
M  V30 44 1 19 41
M  V30 45 1 19 42
M  V30 46 1 20 43
M  V30 47 1 20 44
M  V30 48 1 21 45
M  V30 49 1 21 46
M  V30 50 1 22 47
M  V30 51 1 22 48
M  V30 52 1 23 49
M  V30 53 1 26 50
M  V30 54 1 27 51
M  V30 55 1 28 52
M  V30 56 1 29 53
M  V30 END BOND
M  V30 END CTAB
M  END
>  <Dataset>  (97) 
ChEMBL_Kinases

>  <Ligand_Instance>  (97) 
nan

>  <PDB_ID>  (97) 
nan

>  <Standardized_SMILES>  (97) 
CCCn1c(NC(=O)c2ccc(Cl)c(S(=O)(=O)N3CCCC3)c2)nc2ccccc21

>  <Name>  (97) 
nan

>  <Pocket>  (97) 
nan

>  <ATP_Site>  (97) 
nan

>  <Peripheral>  (97) 
nan

>  <Num_H_Atoms_ProtBoundConf>  (97) 
nan

>  <Num_Resolved_Atoms>  (97) 
nan

>  <Num_Not_Resolved_Atoms>  (97) 
nan

$$$$
CHEMBL1302113
     RDKit          3D

  0  0  0  0  0  0  0  0  0  0999 V3000
M  V30 BEGIN CTAB
M  V30 COUNTS 37 39 0 0 0
M  V30 BEGIN ATOM
M  V30 1 C -1.240367 -3.206114 4.602349 0
M  V30 2 C -0.090237 -3.007951 3.689180 0
M  V30 3 C -0.174100 -2.093606 2.673430 0
M  V30 4 C 0.915768 -1.937267 1.844757 0
M  V30 5 C 2.105706 -2.626376 1.941934 0
M  V30 6 N 3.208953 -2.457533 1.090779 0
M  V30 7 C 3.124481 -1.501726 0.027314 0
M  V30 8 N 2.488547 -0.740893 -0.481899 0
M  V30 9 C 2.652014 0.055383 -1.506545 0
M  V30 10 C 1.656197 0.996515 -2.012366 0
M  V30 11 O 1.863407 1.742684 -3.004512 0
M  V30 12 N 0.356458 1.196765 -1.474844 0
M  V30 13 C -0.498946 2.189496 -2.124043 0
M  V30 14 C -1.790987 2.181678 -1.348729 0
M  V30 15 C -2.886894 1.389752 -1.607933 0
M  V30 16 C -3.817971 1.720909 -0.656020 0
M  V30 17 C -3.263850 2.690537 0.139584 0
M  V30 18 O -2.049600 2.949532 -0.295257 0
M  V30 19 C 3.896632 -0.073507 -2.094593 0
M  V30 20 S 4.681954 -1.384463 -1.033071 0
M  V30 21 C 2.110748 -3.527954 2.989562 0
M  V30 22 C 1.063739 -3.740624 3.858456 0
M  V30 23 H -2.183054 -3.111640 4.019378 0
M  V30 24 H -1.244657 -2.434492 5.392838 0
M  V30 25 H -1.131288 -4.195963 5.074314 0
M  V30 26 H -1.083665 -1.523578 2.548707 0
M  V30 27 H 0.780805 -1.202864 1.068995 0
M  V30 28 H 4.044100 -3.053077 1.289226 0
M  V30 29 H 0.086594 0.612817 -0.634525 0
M  V30 30 H -0.093253 3.202291 -2.105157 0
M  V30 31 H -0.711933 1.947097 -3.176974 0
M  V30 32 H -2.907211 0.680911 -2.423161 0
M  V30 33 H -4.800691 1.237080 -0.624246 0
M  V30 34 H -3.817964 3.118861 0.976072 0
M  V30 35 H 4.259072 0.542936 -3.027736 0
M  V30 36 H 2.987683 -4.149135 3.193247 0
M  V30 37 H 1.101458 -4.442904 4.654459 0
M  V30 END ATOM
M  V30 BEGIN BOND
M  V30 1 1 1 2
M  V30 2 2 2 3
M  V30 3 1 3 4
M  V30 4 2 4 5
M  V30 5 1 5 6
M  V30 6 1 6 7
M  V30 7 2 7 8
M  V30 8 1 8 9
M  V30 9 1 9 10
M  V30 10 2 10 11
M  V30 11 1 10 12
M  V30 12 1 12 13
M  V30 13 1 13 14
M  V30 14 2 14 15
M  V30 15 1 15 16
M  V30 16 2 16 17
M  V30 17 1 17 18
M  V30 18 2 9 19
M  V30 19 1 19 20
M  V30 20 1 5 21
M  V30 21 2 21 22
M  V30 22 1 22 2
M  V30 23 1 20 7
M  V30 24 1 18 14
M  V30 25 1 1 23
M  V30 26 1 1 24
M  V30 27 1 1 25
M  V30 28 1 3 26
M  V30 29 1 4 27
M  V30 30 1 6 28
M  V30 31 1 12 29
M  V30 32 1 13 30
M  V30 33 1 13 31
M  V30 34 1 15 32
M  V30 35 1 16 33
M  V30 36 1 17 34
M  V30 37 1 19 35
M  V30 38 1 21 36
M  V30 39 1 22 37
M  V30 END BOND
M  V30 END CTAB
M  END
>  <Dataset>  (98) 
ChEMBL_Kinases

>  <Ligand_Instance>  (98) 
nan

>  <PDB_ID>  (98) 
nan

>  <Standardized_SMILES>  (98) 
Cc1ccc(Nc2nc(C(=O)NCc3ccco3)cs2)cc1

>  <Name>  (98) 
nan

>  <Pocket>  (98) 
nan

>  <ATP_Site>  (98) 
nan

>  <Peripheral>  (98) 
nan

>  <Num_H_Atoms_ProtBoundConf>  (98) 
nan

>  <Num_Resolved_Atoms>  (98) 
nan

>  <Num_Not_Resolved_Atoms>  (98) 
nan

$$$$
CHEMBL1302023
     RDKit          3D

  0  0  0  0  0  0  0  0  0  0999 V3000
M  V30 BEGIN CTAB
M  V30 COUNTS 34 36 0 0 0
M  V30 BEGIN ATOM
M  V30 1 C 0.196036 -4.207430 3.428760 0
M  V30 2 O 0.206318 -2.842968 3.070581 0
M  V30 3 C 0.431668 -2.445216 1.761740 0
M  V30 4 C 0.666804 -3.245053 0.665160 0
M  V30 5 C 0.873128 -2.659323 -0.582323 0
M  V30 6 C 0.835699 -1.293845 -0.682133 0
M  V30 7 C 0.602393 -0.467392 0.398542 0
M  V30 8 N 0.581018 0.937753 0.204043 0
M  V30 9 C 1.739007 1.576026 -0.053812 0
M  V30 10 S 3.393507 0.941486 -0.204753 0
M  V30 11 C 3.828028 0.447952 -1.873180 0
M  V30 12 N 1.470475 2.905421 -0.201838 0
M  V30 13 N 0.147031 3.059891 -0.031486 0
M  V30 14 C -0.403846 1.856758 0.217725 0
M  V30 15 C -1.797433 1.492392 0.471392 0
M  V30 16 C -2.713969 2.528975 0.459299 0
M  V30 17 N -4.020905 2.250977 0.688530 0
M  V30 18 C -4.448025 0.994082 0.927087 0
M  V30 19 C -3.527734 -0.042936 0.938673 0
M  V30 20 N -2.206107 0.212981 0.710412 0
M  V30 21 C 0.395296 -1.056875 1.651071 0
M  V30 22 H 1.110229 -4.698467 2.985645 0
M  V30 23 H -0.659967 -4.761802 3.005886 0
M  V30 24 H 0.303460 -4.344710 4.515450 0
M  V30 25 H 0.672096 -4.318331 0.874543 0
M  V30 26 H 1.050306 -3.350554 -1.389029 0
M  V30 27 H 1.007530 -0.907774 -1.698374 0
M  V30 28 H 4.004608 -0.655419 -1.879197 0
M  V30 29 H 3.058790 0.717705 -2.625904 0
M  V30 30 H 4.781918 0.890646 -2.245369 0
M  V30 31 H -2.507548 3.565969 0.283731 0
M  V30 32 H -5.491995 0.794933 1.107019 0
M  V30 33 H -3.800355 -1.074998 1.123043 0
M  V30 34 H 0.220932 -0.344339 2.437308 0
M  V30 END ATOM
M  V30 BEGIN BOND
M  V30 1 1 1 2
M  V30 2 1 2 3
M  V30 3 2 3 4
M  V30 4 1 4 5
M  V30 5 2 5 6
M  V30 6 1 6 7
M  V30 7 1 7 8
M  V30 8 1 8 9
M  V30 9 1 9 10
M  V30 10 1 10 11
M  V30 11 2 9 12
M  V30 12 1 12 13
M  V30 13 2 13 14
M  V30 14 1 14 15
M  V30 15 2 15 16
M  V30 16 1 16 17
M  V30 17 2 17 18
M  V30 18 1 18 19
M  V30 19 2 19 20
M  V30 20 2 7 21
M  V30 21 1 21 3
M  V30 22 1 14 8
M  V30 23 1 20 15
M  V30 24 1 1 22
M  V30 25 1 1 23
M  V30 26 1 1 24
M  V30 27 1 4 25
M  V30 28 1 5 26
M  V30 29 1 6 27
M  V30 30 1 11 28
M  V30 31 1 11 29
M  V30 32 1 11 30
M  V30 33 1 16 31
M  V30 34 1 18 32
M  V30 35 1 19 33
M  V30 36 1 21 34
M  V30 END BOND
M  V30 END CTAB
M  END
>  <Dataset>  (99) 
ChEMBL_Kinases

>  <Ligand_Instance>  (99) 
nan

>  <PDB_ID>  (99) 
nan

>  <Standardized_SMILES>  (99) 
COc1cccc(-n2c(SC)nnc2-c2cnccn2)c1

>  <Name>  (99) 
nan

>  <Pocket>  (99) 
nan

>  <ATP_Site>  (99) 
nan

>  <Peripheral>  (99) 
nan

>  <Num_H_Atoms_ProtBoundConf>  (99) 
nan

>  <Num_Resolved_Atoms>  (99) 
nan

>  <Num_Not_Resolved_Atoms>  (99) 
nan

$$$$
CHEMBL1301956
     RDKit          3D

  0  0  0  0  0  0  0  0  0  0999 V3000
M  V30 BEGIN CTAB
M  V30 COUNTS 52 55 0 0 0
M  V30 BEGIN ATOM
M  V30 1 C -0.397692 -6.549072 3.016279 0
M  V30 2 O 0.996460 -6.203371 3.027657 0
M  V30 3 C 1.358928 -4.861021 2.904210 0
M  V30 4 C 2.749325 -4.724146 2.940031 0
M  V30 5 C 3.250348 -3.424171 2.826086 0
M  V30 6 C 2.374088 -2.385482 2.689894 0
M  V30 7 N 2.871802 -1.115755 2.584867 0
M  V30 8 C 2.006888 -0.077976 2.452595 0
M  V30 9 O 2.615248 1.139866 2.360280 0
M  V30 10 C 0.632993 -0.151418 2.408292 0
M  V30 11 C -0.294697 0.992420 2.258045 0
M  V30 12 N -0.429118 1.486038 0.907878 0
M  V30 13 C 0.306492 2.495665 0.234212 0
M  V30 14 O 1.161753 3.246025 0.768402 0
M  V30 15 C 0.180678 2.809337 -1.181903 0
M  V30 16 C 1.415597 2.523614 -1.805512 0
M  V30 17 C 1.556463 2.742820 -3.186331 0
M  V30 18 C 0.511209 3.231124 -3.941945 0
M  V30 19 N -0.646967 3.488477 -3.304640 0
M  V30 20 C -0.827618 3.294792 -1.988421 0
M  V30 21 C -1.488203 0.789566 0.216156 0
M  V30 22 C -2.667994 1.492613 0.505084 0
M  V30 23 C -3.896114 1.074225 -0.017342 0
M  V30 24 C -3.960188 -0.038594 -0.825051 0
M  V30 25 C -2.774661 -0.693498 -1.078820 0
M  V30 26 C -1.548682 -0.320009 -0.589767 0
M  V30 27 O -0.303165 -0.861896 -0.755507 0
M  V30 28 C -0.108630 -2.032454 -1.559861 0
M  V30 29 C 0.146269 -1.463391 2.518744 0
M  V30 30 C 1.011886 -2.561460 2.658472 0
M  V30 31 C 0.467949 -3.822262 2.766838 0
M  V30 32 H -0.477518 -7.661468 3.095682 0
M  V30 33 H -0.901531 -6.197259 2.085009 0
M  V30 34 H -0.935186 -6.096354 3.873945 0
M  V30 35 H 3.460166 -5.521249 3.044399 0
M  V30 36 H 4.327628 -3.203334 2.842107 0
M  V30 37 H 2.341881 1.963329 2.882751 0
M  V30 38 H 0.040078 1.805660 2.952348 0
M  V30 39 H -1.263452 0.641634 2.689875 0
M  V30 40 H 2.344372 2.136728 -1.368142 0
M  V30 41 H 2.454703 2.561489 -3.754029 0
M  V30 42 H 0.431318 3.456474 -4.975210 0
M  V30 43 H -1.703037 3.464681 -1.381170 0
M  V30 44 H -2.829718 2.390177 1.113203 0
M  V30 45 H -4.848642 1.556038 0.150571 0
M  V30 46 H -4.876495 -0.394272 -1.245284 0
M  V30 47 H -2.728802 -1.579756 -1.706440 0
M  V30 48 H 0.920285 -2.419003 -1.461659 0
M  V30 49 H -0.287322 -1.832196 -2.633047 0
M  V30 50 H -0.879972 -2.791364 -1.281074 0
M  V30 51 H -0.914273 -1.664653 2.500899 0
M  V30 52 H -0.580789 -4.032450 2.750035 0
M  V30 END ATOM
M  V30 BEGIN BOND
M  V30 1 1 1 2
M  V30 2 1 2 3
M  V30 3 2 3 4
M  V30 4 1 4 5
M  V30 5 2 5 6
M  V30 6 1 6 7
M  V30 7 2 7 8
M  V30 8 1 8 9
M  V30 9 1 8 10
M  V30 10 1 10 11
M  V30 11 1 11 12
M  V30 12 1 12 13
M  V30 13 2 13 14
M  V30 14 1 13 15
M  V30 15 2 15 16
M  V30 16 1 16 17
M  V30 17 2 17 18
M  V30 18 1 18 19
M  V30 19 2 19 20
M  V30 20 1 12 21
M  V30 21 2 21 22
M  V30 22 1 22 23
M  V30 23 2 23 24
M  V30 24 1 24 25
M  V30 25 2 25 26
M  V30 26 1 26 27
M  V30 27 1 27 28
M  V30 28 2 10 29
M  V30 29 1 29 30
M  V30 30 2 30 31
M  V30 31 1 31 3
M  V30 32 1 30 6
M  V30 33 1 20 15
M  V30 34 1 26 21
M  V30 35 1 1 32
M  V30 36 1 1 33
M  V30 37 1 1 34
M  V30 38 1 4 35
M  V30 39 1 5 36
M  V30 40 1 9 37
M  V30 41 1 11 38
M  V30 42 1 11 39
M  V30 43 1 16 40
M  V30 44 1 17 41
M  V30 45 1 18 42
M  V30 46 1 20 43
M  V30 47 1 22 44
M  V30 48 1 23 45
M  V30 49 1 24 46
M  V30 50 1 25 47
M  V30 51 1 28 48
M  V30 52 1 28 49
M  V30 53 1 28 50
M  V30 54 1 29 51
M  V30 55 1 31 52
M  V30 END BOND
M  V30 END CTAB
M  END
>  <Dataset>  (100) 
ChEMBL_Kinases

>  <Ligand_Instance>  (100) 
nan

>  <PDB_ID>  (100) 
nan

>  <Standardized_SMILES>  (100) 
COc1ccc2nc(O)c(CN(C(=O)c3cccnc3)c3ccccc3OC)cc2c1

>  <Name>  (100) 
nan

>  <Pocket>  (100) 
nan

>  <ATP_Site>  (100) 
nan

>  <Peripheral>  (100) 
nan

>  <Num_H_Atoms_ProtBoundConf>  (100) 
nan

>  <Num_Resolved_Atoms>  (100) 
nan

>  <Num_Not_Resolved_Atoms>  (100) 
nan

$$$$
CHEMBL1301917
     RDKit          3D

  0  0  0  0  0  0  0  0  0  0999 V3000
M  V30 BEGIN CTAB
M  V30 COUNTS 60 64 0 0 0
M  V30 BEGIN ATOM
M  V30 1 C 5.752051 -0.682068 5.219400 0
M  V30 2 O 4.768500 -1.611478 4.771114 0
M  V30 3 C 3.552429 -1.104600 4.310432 0
M  V30 4 C 3.286374 0.262885 4.284089 0
M  V30 5 C 2.064940 0.676881 3.815211 0
M  V30 6 C 1.088486 -0.226557 3.366949 0
M  V30 7 C 1.364069 -1.577519 3.398156 0
M  V30 8 C 2.589068 -1.988157 3.868937 0
M  V30 9 O 2.822093 -3.350615 3.882423 0
M  V30 10 C 1.835770 -4.247414 3.429797 0
M  V30 11 C -0.129816 0.506808 2.913285 0
M  V30 12 C -1.300680 -0.315460 2.601127 0
M  V30 13 N 0.344098 1.423942 1.900677 0
M  V30 14 C 0.330348 1.492589 0.475177 0
M  V30 15 O 0.880424 2.531284 -0.055091 0
M  V30 16 C -0.215502 0.558015 -0.505855 0
M  V30 17 C -0.122651 0.834693 -1.852708 0
M  V30 18 C -0.726468 -0.237326 -2.517108 0
M  V30 19 N -1.144414 -1.086964 -1.579661 0
M  V30 20 N -0.843047 -0.618756 -0.390322 0
M  V30 21 C -1.830067 -2.337929 -1.804489 0
M  V30 22 C -3.265648 -2.143318 -1.296688 0
M  V30 23 F -3.221641 -1.829477 0.058805 0
M  V30 24 F -4.016216 -3.273167 -1.476589 0
M  V30 25 F -3.839775 -1.015166 -1.893453 0
M  V30 26 C -1.751539 -2.833217 -3.195058 0
M  V30 27 C -1.580753 -1.835162 -4.279485 0
M  V30 28 C -2.889197 -1.510220 -4.953025 0
M  V30 29 C -4.172201 -1.998171 -4.912700 0
M  V30 30 C -4.967342 -1.277113 -5.777103 0
M  V30 31 C -4.086995 -0.360420 -6.310134 0
M  V30 32 O -2.898825 -0.517832 -5.818060 0
M  V30 33 N -0.969082 -0.587098 -3.864033 0
M  V30 34 C 1.024402 2.557159 2.568144 0
M  V30 35 C 1.782278 2.136761 3.790998 0
M  V30 36 H 6.710712 -1.205588 5.432787 0
M  V30 37 H 5.899007 0.150263 4.488154 0
M  V30 38 H 5.435014 -0.205373 6.168978 0
M  V30 39 H 4.040427 0.971377 4.631147 0
M  V30 40 H 0.556996 -2.161236 3.037514 0
M  V30 41 H 2.234903 -5.268442 3.263261 0
M  V30 42 H 1.431613 -3.910376 2.444090 0
M  V30 43 H 0.949876 -4.295713 4.105538 0
M  V30 44 H -0.428797 1.140349 3.804048 0
M  V30 45 H -1.886727 -0.492152 3.564181 0
M  V30 46 H -1.125607 -1.343294 2.233416 0
M  V30 47 H -1.998630 0.229454 1.961616 0
M  V30 48 H 0.273477 1.619231 -2.464462 0
M  V30 49 H -1.402064 -3.143465 -1.133002 0
M  V30 50 H -0.910216 -3.587179 -3.285015 0
M  V30 51 H -2.662997 -3.474248 -3.395234 0
M  V30 52 H -0.965529 -2.290046 -5.104011 0
M  V30 53 H -4.385765 -2.826517 -4.258289 0
M  V30 54 H -6.015849 -1.454807 -5.936273 0
M  V30 55 H -4.382409 0.392226 -7.052277 0
M  V30 56 H -0.698469 0.076867 -4.604741 0
M  V30 57 H 1.721665 2.994837 1.838635 0
M  V30 58 H 0.191836 3.262922 2.810919 0
M  V30 59 H 1.139373 2.351068 4.681793 0
M  V30 60 H 2.721364 2.709064 3.858935 0
M  V30 END ATOM
M  V30 BEGIN BOND
M  V30 1 1 1 2
M  V30 2 1 2 3
M  V30 3 2 3 4
M  V30 4 1 4 5
M  V30 5 2 5 6
M  V30 6 1 6 7
M  V30 7 2 7 8
M  V30 8 1 8 9
M  V30 9 1 9 10
M  V30 10 1 6 11
M  V30 11 1 11 12
M  V30 12 1 11 13
M  V30 13 1 13 14
M  V30 14 2 14 15
M  V30 15 1 14 16
M  V30 16 1 16 17
M  V30 17 2 17 18
M  V30 18 1 18 19
M  V30 19 1 19 20
M  V30 20 1 19 21
M  V30 21 1 21 22
M  V30 22 1 22 23
M  V30 23 1 22 24
M  V30 24 1 22 25
M  V30 25 1 21 26
M  V30 26 1 26 27
M  V30 27 1 27 28
M  V30 28 2 28 29
M  V30 29 1 29 30
M  V30 30 2 30 31
M  V30 31 1 31 32
M  V30 32 1 27 33
M  V30 33 1 13 34
M  V30 34 1 34 35
M  V30 35 1 8 3
M  V30 36 2 20 16
M  V30 37 1 32 28
M  V30 38 1 35 5
M  V30 39 1 33 18
M  V30 40 1 1 36
M  V30 41 1 1 37
M  V30 42 1 1 38
M  V30 43 1 4 39
M  V30 44 1 7 40
M  V30 45 1 10 41
M  V30 46 1 10 42
M  V30 47 1 10 43
M  V30 48 1 11 44
M  V30 49 1 12 45
M  V30 50 1 12 46
M  V30 51 1 12 47
M  V30 52 1 17 48
M  V30 53 1 21 49
M  V30 54 1 26 50
M  V30 55 1 26 51
M  V30 56 1 27 52
M  V30 57 1 29 53
M  V30 58 1 30 54
M  V30 59 1 31 55
M  V30 60 1 33 56
M  V30 61 1 34 57
M  V30 62 1 34 58
M  V30 63 1 35 59
M  V30 64 1 35 60
M  V30 END BOND
M  V30 END CTAB
M  END
>  <Dataset>  (101) 
ChEMBL_Kinases

>  <Ligand_Instance>  (101) 
nan

>  <PDB_ID>  (101) 
nan

>  <Standardized_SMILES>  (101) 
COc1cc2c(cc1OC)C(C)N(C(=O)c1cc3n(n1)C(C(F)(F)F)CC(c1ccco1)N3)CC2

>  <Name>  (101) 
nan

>  <Pocket>  (101) 
nan

>  <ATP_Site>  (101) 
nan

>  <Peripheral>  (101) 
nan

>  <Num_H_Atoms_ProtBoundConf>  (101) 
nan

>  <Num_Resolved_Atoms>  (101) 
nan

>  <Num_Not_Resolved_Atoms>  (101) 
nan

$$$$
CHEMBL1301914
     RDKit          3D

  0  0  0  0  0  0  0  0  0  0999 V3000
M  V30 BEGIN CTAB
M  V30 COUNTS 32 33 0 0 0
M  V30 BEGIN ATOM
M  V30 1 C -2.772221 -4.020618 2.848863 0
M  V30 2 C -1.505775 -3.680189 3.616222 0
M  V30 3 C -0.404314 -3.344820 2.612119 0
M  V30 4 O -0.822125 -2.252261 1.850989 0
M  V30 5 C -0.097677 -1.649466 0.832619 0
M  V30 6 C 1.158142 -2.105589 0.472685 0
M  V30 7 C 1.842398 -1.469699 -0.551340 0
M  V30 8 C 1.272396 -0.393442 -1.201657 0
M  V30 9 C 1.854969 0.393309 -2.303235 0
M  V30 10 S 2.824497 1.801876 -1.733367 0
M  V30 11 C 1.829949 3.034088 -0.922799 0
M  V30 12 N 1.142376 4.138017 -1.321367 0
M  V30 13 C 0.585355 4.653837 -0.204641 0
M  V30 14 N 0.918384 3.892413 0.851012 0
M  V30 15 N 1.675360 2.905801 0.419895 0
M  V30 16 C 0.006338 0.056423 -0.829501 0
M  V30 17 C -0.679833 -0.576375 0.192860 0
M  V30 18 H -2.492749 -4.764439 2.066533 0
M  V30 19 H -3.529050 -4.470230 3.497766 0
M  V30 20 H -3.127400 -3.084923 2.371618 0
M  V30 21 H -1.690945 -2.742370 4.184105 0
M  V30 22 H -1.188734 -4.470046 4.298599 0
M  V30 23 H -0.080234 -4.226763 2.028911 0
M  V30 24 H 0.460295 -2.992915 3.230297 0
M  V30 25 H 1.617039 -2.945738 0.971642 0
M  V30 26 H 2.822851 -1.757419 -0.896520 0
M  V30 27 H 1.108737 0.725373 -3.030581 0
M  V30 28 H 2.569866 -0.272343 -2.843521 0
M  V30 29 H -0.035086 5.537706 -0.137361 0
M  V30 30 H 0.612681 4.078510 1.833404 0
M  V30 31 H -0.514386 0.895859 -1.289125 0
M  V30 32 H -1.663221 -0.237865 0.492251 0
M  V30 END ATOM
M  V30 BEGIN BOND
M  V30 1 1 1 2
M  V30 2 1 2 3
M  V30 3 1 3 4
M  V30 4 1 4 5
M  V30 5 2 5 6
M  V30 6 1 6 7
M  V30 7 2 7 8
M  V30 8 1 8 9
M  V30 9 1 9 10
M  V30 10 1 10 11
M  V30 11 1 11 12
M  V30 12 2 12 13
M  V30 13 1 13 14
M  V30 14 1 14 15
M  V30 15 1 8 16
M  V30 16 2 16 17
M  V30 17 1 17 5
M  V30 18 2 15 11
M  V30 19 1 1 18
M  V30 20 1 1 19
M  V30 21 1 1 20
M  V30 22 1 2 21
M  V30 23 1 2 22
M  V30 24 1 3 23
M  V30 25 1 3 24
M  V30 26 1 6 25
M  V30 27 1 7 26
M  V30 28 1 9 27
M  V30 29 1 9 28
M  V30 30 1 13 29
M  V30 31 1 14 30
M  V30 32 1 16 31
M  V30 33 1 17 32
M  V30 END BOND
M  V30 END CTAB
M  END
>  <Dataset>  (102) 
ChEMBL_Kinases

>  <Ligand_Instance>  (102) 
nan

>  <PDB_ID>  (102) 
nan

>  <Standardized_SMILES>  (102) 
CCCOc1ccc(CSc2nc[nH]n2)cc1

>  <Name>  (102) 
nan

>  <Pocket>  (102) 
nan

>  <ATP_Site>  (102) 
nan

>  <Peripheral>  (102) 
nan

>  <Num_H_Atoms_ProtBoundConf>  (102) 
nan

>  <Num_Resolved_Atoms>  (102) 
nan

>  <Num_Not_Resolved_Atoms>  (102) 
nan

$$$$
CHEMBL1301577
     RDKit          3D

  0  0  0  0  0  0  0  0  0  0999 V3000
M  V30 BEGIN CTAB
M  V30 COUNTS 45 47 0 0 0
M  V30 BEGIN ATOM
M  V30 1 C 0.895436 -5.326146 -0.708060 0
M  V30 2 N 2.259317 -5.141621 -0.275762 0
M  V30 3 C 3.135942 -5.832375 0.463975 0
M  V30 4 N 4.315079 -5.162316 0.535999 0
M  V30 5 N 4.222129 -4.032720 -0.152638 0
M  V30 6 C 2.950621 -4.031112 -0.646815 0
M  V30 7 S 2.530320 -2.564559 -1.624152 0
M  V30 8 C 1.921833 -1.349129 -0.424196 0
M  V30 9 C 1.532584 -0.066169 -1.023071 0
M  V30 10 O 2.247615 0.799219 -1.588275 0
M  V30 11 N 0.199682 0.476260 -1.080920 0
M  V30 12 C 0.053855 1.765614 -1.730910 0
M  V30 13 C -0.326337 2.831901 -0.731796 0
M  V30 14 C -1.003624 2.261762 0.486304 0
M  V30 15 C 0.012302 2.151161 1.590302 0
M  V30 16 C -0.515203 1.591696 2.851153 0
M  V30 17 C -1.065184 2.214452 3.951738 0
M  V30 18 C -1.481756 1.448795 5.018269 0
M  V30 19 C -1.387457 0.075727 5.068888 0
M  V30 20 C -0.836430 -0.551735 3.968675 0
M  V30 21 C -0.409177 0.192636 2.879134 0
M  V30 22 C -1.796049 1.035170 0.222914 0
M  V30 23 C -1.087806 -0.000911 -0.600762 0
M  V30 24 H 0.343986 -5.753853 0.173284 0
M  V30 25 H 0.419571 -4.403201 -1.028541 0
M  V30 26 H 0.836254 -6.128845 -1.492493 0
M  V30 27 H 2.831377 -6.790445 0.896691 0
M  V30 28 H 2.690557 -1.208976 0.346076 0
M  V30 29 H 1.008210 -1.802368 0.019675 0
M  V30 30 H -0.762948 1.663596 -2.489450 0
M  V30 31 H 0.959952 2.073242 -2.284630 0
M  V30 32 H -0.986886 3.539569 -1.270802 0
M  V30 33 H 0.595466 3.386613 -0.472201 0
M  V30 34 H -1.734070 3.060380 0.821878 0
M  V30 35 H 0.894492 1.579893 1.244801 0
M  V30 36 H 0.440991 3.174737 1.828582 0
M  V30 37 H -1.110033 3.281831 3.848704 0
M  V30 38 H -1.907056 1.970534 5.859266 0
M  V30 39 H -1.721611 -0.509660 5.912161 0
M  V30 40 H -0.767987 -1.631811 4.020547 0
M  V30 41 H 0.002063 -0.429174 2.087729 0
M  V30 42 H -2.748562 1.367047 -0.291179 0
M  V30 43 H -2.126043 0.574747 1.156581 0
M  V30 44 H -1.709448 -0.192184 -1.520501 0
M  V30 45 H -0.987135 -0.980277 -0.096025 0
M  V30 END ATOM
M  V30 BEGIN BOND
M  V30 1 1 1 2
M  V30 2 1 2 3
M  V30 3 2 3 4
M  V30 4 1 4 5
M  V30 5 2 5 6
M  V30 6 1 6 7
M  V30 7 1 7 8
M  V30 8 1 8 9
M  V30 9 2 9 10
M  V30 10 1 9 11
M  V30 11 1 11 12
M  V30 12 1 12 13
M  V30 13 1 13 14
M  V30 14 1 14 15
M  V30 15 1 15 16
M  V30 16 2 16 17
M  V30 17 1 17 18
M  V30 18 2 18 19
M  V30 19 1 19 20
M  V30 20 2 20 21
M  V30 21 1 14 22
M  V30 22 1 22 23
M  V30 23 1 6 2
M  V30 24 1 23 11
M  V30 25 1 21 16
M  V30 26 1 1 24
M  V30 27 1 1 25
M  V30 28 1 1 26
M  V30 29 1 3 27
M  V30 30 1 8 28
M  V30 31 1 8 29
M  V30 32 1 12 30
M  V30 33 1 12 31
M  V30 34 1 13 32
M  V30 35 1 13 33
M  V30 36 1 14 34
M  V30 37 1 15 35
M  V30 38 1 15 36
M  V30 39 1 17 37
M  V30 40 1 18 38
M  V30 41 1 19 39
M  V30 42 1 20 40
M  V30 43 1 21 41
M  V30 44 1 22 42
M  V30 45 1 22 43
M  V30 46 1 23 44
M  V30 47 1 23 45
M  V30 END BOND
M  V30 END CTAB
M  END
>  <Dataset>  (103) 
ChEMBL_Kinases

>  <Ligand_Instance>  (103) 
nan

>  <PDB_ID>  (103) 
nan

>  <Standardized_SMILES>  (103) 
Cn1cnnc1SCC(=O)N1CCC(Cc2ccccc2)CC1

>  <Name>  (103) 
nan

>  <Pocket>  (103) 
nan

>  <ATP_Site>  (103) 
nan

>  <Peripheral>  (103) 
nan

>  <Num_H_Atoms_ProtBoundConf>  (103) 
nan

>  <Num_Resolved_Atoms>  (103) 
nan

>  <Num_Not_Resolved_Atoms>  (103) 
nan

$$$$
CHEMBL1301492
     RDKit          3D

  0  0  0  0  0  0  0  0  0  0999 V3000
M  V30 BEGIN CTAB
M  V30 COUNTS 68 70 0 0 0
M  V30 BEGIN ATOM
M  V30 1 C 5.665659 -1.666317 4.337887 0
M  V30 2 S 4.239234 -2.778516 4.515065 0
M  V30 3 C 2.817651 -1.723719 5.011661 0
M  V30 4 C 2.436470 -0.785185 3.920215 0
M  V30 5 C 2.045324 -1.509732 2.654425 0 CFG=2
M  V30 6 N 1.684636 -0.578187 1.606340 0
M  V30 7 C 2.640672 -0.308485 0.589388 0
M  V30 8 O 3.765809 -0.913379 0.684095 0
M  V30 9 C 2.500445 0.582461 -0.560551 0
M  V30 10 C 2.048312 1.948749 -0.095799 0
M  V30 11 C 0.654921 2.234605 -0.685958 0
M  V30 12 N 0.806598 2.372169 -2.091683 0
M  V30 13 S -0.601102 2.836486 -2.929849 0
M  V30 14 O -0.342516 3.219473 -4.346288 0
M  V30 15 O -1.104204 4.108519 -2.253455 0
M  V30 16 C -1.855400 1.659587 -2.761838 0
M  V30 17 C -2.854329 1.484943 -1.830287 0
M  V30 18 C -3.734353 0.435884 -1.965838 0
M  V30 19 C -3.687883 -0.468950 -2.983790 0
M  V30 20 C -4.663652 -1.583723 -3.089370 0
M  V30 21 C -2.697032 -0.322960 -3.936042 0
M  V30 22 C -1.790058 0.737104 -3.819373 0
M  V30 23 C 1.478704 1.250686 -2.652211 0
M  V30 24 C 1.549046 0.137426 -1.630158 0
M  V30 25 C 0.947451 -2.457162 2.833467 0
M  V30 26 O 1.075973 -3.446616 3.641440 0
M  V30 27 N -0.353250 -2.475588 2.215915 0
M  V30 28 C -1.078883 -3.608609 2.715054 0
M  V30 29 C -2.472782 -3.707887 2.145397 0
M  V30 30 C -3.332608 -2.540334 2.454168 0
M  V30 31 C -3.311554 -1.678958 1.241536 0
M  V30 32 C -2.771653 -2.607082 0.197778 0
M  V30 33 O -2.452987 -3.807404 0.777266 0
M  V30 34 H 6.171900 -1.466409 5.309720 0
M  V30 35 H 6.403874 -2.132241 3.628100 0
M  V30 36 H 5.394706 -0.700909 3.895607 0
M  V30 37 H 3.278202 -1.121451 5.857849 0
M  V30 38 H 2.019551 -2.337315 5.422052 0
M  V30 39 H 3.387130 -0.236266 3.639658 0
M  V30 40 H 1.700233 -0.060554 4.261916 0
M  V30 41 H 2.950560 -2.050716 2.334317 0
M  V30 42 H 0.779053 -0.072462 1.515631 0
M  V30 43 H 3.494370 0.742597 -1.074026 0
M  V30 44 H 2.753082 2.728910 -0.434528 0
M  V30 45 H 1.999993 2.014550 1.029596 0
M  V30 46 H 0.286586 3.202755 -0.216373 0
M  V30 47 H -0.092032 1.497928 -0.408954 0
M  V30 48 H -2.798074 2.252179 -1.071590 0
M  V30 49 H -4.494769 0.379922 -1.174313 0
M  V30 50 H -5.513602 -1.418160 -2.414412 0
M  V30 51 H -4.972337 -1.702508 -4.153797 0
M  V30 52 H -4.098738 -2.525104 -2.857635 0
M  V30 53 H -2.686811 -1.057829 -4.730094 0
M  V30 54 H -1.077186 0.705512 -4.653134 0
M  V30 55 H 2.542799 1.538414 -2.912416 0
M  V30 56 H 1.071742 0.884799 -3.618377 0
M  V30 57 H 0.581794 -0.172339 -1.243668 0
M  V30 58 H 2.057381 -0.724413 -2.170753 0
M  V30 59 H -0.492589 -1.678762 1.549154 0
M  V30 60 H -0.543854 -4.558982 2.567392 0
M  V30 61 H -1.238865 -3.534259 3.833837 0
M  V30 62 H -2.973352 -4.659856 2.514994 0
M  V30 63 H -4.386277 -2.905845 2.620476 0
M  V30 64 H -3.066424 -2.012205 3.391790 0
M  V30 65 H -2.685715 -0.779747 1.289277 0
M  V30 66 H -4.338001 -1.297998 0.977652 0
M  V30 67 H -3.603065 -2.779738 -0.542335 0
M  V30 68 H -1.881148 -2.181661 -0.336447 0
M  V30 END ATOM
M  V30 BEGIN BOND
M  V30 1 1 1 2
M  V30 2 1 2 3
M  V30 3 1 3 4
M  V30 4 1 4 5
M  V30 5 1 5 6
M  V30 6 1 6 7
M  V30 7 2 7 8
M  V30 8 1 7 9
M  V30 9 1 9 10
M  V30 10 1 10 11
M  V30 11 1 11 12
M  V30 12 1 12 13
M  V30 13 2 13 14
M  V30 14 2 13 15
M  V30 15 1 13 16
M  V30 16 2 16 17
M  V30 17 1 17 18
M  V30 18 2 18 19
M  V30 19 1 19 20
M  V30 20 1 19 21
M  V30 21 2 21 22
M  V30 22 1 12 23
M  V30 23 1 23 24
M  V30 24 1 5 25
M  V30 25 2 25 26
M  V30 26 1 25 27
M  V30 27 1 27 28
M  V30 28 1 28 29
M  V30 29 1 29 30
M  V30 30 1 30 31
M  V30 31 1 31 32
M  V30 32 1 32 33
M  V30 33 1 24 9
M  V30 34 1 33 29
M  V30 35 1 22 16
M  V30 36 1 1 34
M  V30 37 1 1 35
M  V30 38 1 1 36
M  V30 39 1 3 37
M  V30 40 1 3 38
M  V30 41 1 4 39
M  V30 42 1 4 40
M  V30 43 1 5 41 CFG=3
M  V30 44 1 6 42
M  V30 45 1 9 43
M  V30 46 1 10 44
M  V30 47 1 10 45
M  V30 48 1 11 46
M  V30 49 1 11 47
M  V30 50 1 17 48
M  V30 51 1 18 49
M  V30 52 1 20 50
M  V30 53 1 20 51
M  V30 54 1 20 52
M  V30 55 1 21 53
M  V30 56 1 22 54
M  V30 57 1 23 55
M  V30 58 1 23 56
M  V30 59 1 24 57
M  V30 60 1 24 58
M  V30 61 1 27 59
M  V30 62 1 28 60
M  V30 63 1 28 61
M  V30 64 1 29 62
M  V30 65 1 30 63
M  V30 66 1 30 64
M  V30 67 1 31 65
M  V30 68 1 31 66
M  V30 69 1 32 67
M  V30 70 1 32 68
M  V30 END BOND
M  V30 END CTAB
M  END
>  <Dataset>  (104) 
ChEMBL_Kinases

>  <Ligand_Instance>  (104) 
nan

>  <PDB_ID>  (104) 
nan

>  <Standardized_SMILES>  (104) 
CSCC[C@H](NC(=O)C1CCN(S(=O)(=O)c2ccc(C)cc2)CC1)C(=O)NCC1CCCO1

>  <Name>  (104) 
nan

>  <Pocket>  (104) 
nan

>  <ATP_Site>  (104) 
nan

>  <Peripheral>  (104) 
nan

>  <Num_H_Atoms_ProtBoundConf>  (104) 
nan

>  <Num_Resolved_Atoms>  (104) 
nan

>  <Num_Not_Resolved_Atoms>  (104) 
nan

$$$$
CHEMBL1301334
     RDKit          3D

  0  0  0  0  0  0  0  0  0  0999 V3000
M  V30 BEGIN CTAB
M  V30 COUNTS 45 47 0 0 0
M  V30 BEGIN ATOM
M  V30 1 C 0.976762 -5.799969 3.638062 0
M  V30 2 O 0.266796 -5.365075 2.524262 0
M  V30 3 C 0.637447 -4.352802 1.667133 0
M  V30 4 C 1.794770 -3.605172 1.791962 0
M  V30 5 C 2.157987 -2.591734 0.927110 0
M  V30 6 C 1.346148 -2.285365 -0.124870 0
M  V30 7 C 1.662854 -1.228615 -1.079826 0
M  V30 8 N 0.955530 -0.873107 -2.099297 0
M  V30 9 O 1.543114 0.158144 -2.792274 0
M  V30 10 C 2.339906 0.843486 -1.842122 0
M  V30 11 C 1.460418 1.618155 -0.914902 0
M  V30 12 O 2.236751 2.201911 -0.097684 0
M  V30 13 N 0.051787 1.755149 -0.854124 0
M  V30 14 C -0.422401 2.597248 0.193469 0
M  V30 15 C -0.626279 3.946147 0.081805 0
M  V30 16 C -1.093695 4.685185 1.166256 0
M  V30 17 C -1.333299 3.984403 2.337071 0
M  V30 18 C -1.831121 4.816185 3.466580 0
M  V30 19 C -1.135070 2.627316 2.471594 0
M  V30 20 C -0.666481 1.903520 1.374688 0
M  V30 21 C 2.868318 -0.361875 -1.051665 0
M  V30 22 C 0.188619 -3.016212 -0.269363 0
M  V30 23 C -0.180504 -4.041957 0.604711 0
M  V30 24 O -1.352343 -4.766252 0.440350 0
M  V30 25 C -2.256326 -4.520516 -0.620184 0
M  V30 26 H 1.581772 -4.966720 4.051488 0
M  V30 27 H 1.673536 -6.643577 3.463011 0
M  V30 28 H 0.325188 -6.137454 4.476306 0
M  V30 29 H 2.463694 -3.819244 2.614173 0
M  V30 30 H 3.085207 -2.042006 1.084289 0
M  V30 31 H 3.141589 1.442082 -2.284961 0
M  V30 32 H -0.402759 1.189445 -1.621533 0
M  V30 33 H -0.391770 4.327725 -0.890800 0
M  V30 34 H -1.232942 5.731897 1.018532 0
M  V30 35 H -1.062478 5.510625 3.865715 0
M  V30 36 H -2.121120 4.152006 4.319463 0
M  V30 37 H -2.778783 5.365288 3.202428 0
M  V30 38 H -1.363191 2.191137 3.454703 0
M  V30 39 H -0.523122 0.836848 1.520525 0
M  V30 40 H 3.196855 -0.083162 -0.047965 0
M  V30 41 H 3.640011 -0.845982 -1.680890 0
M  V30 42 H -0.446615 -2.763975 -1.107054 0
M  V30 43 H -3.286745 -4.852915 -0.349723 0
M  V30 44 H -1.914964 -4.894316 -1.594441 0
M  V30 45 H -2.344219 -3.398903 -0.711862 0
M  V30 END ATOM
M  V30 BEGIN BOND
M  V30 1 1 1 2
M  V30 2 1 2 3
M  V30 3 2 3 4
M  V30 4 1 4 5
M  V30 5 2 5 6
M  V30 6 1 6 7
M  V30 7 2 7 8
M  V30 8 1 8 9
M  V30 9 1 9 10
M  V30 10 1 10 11
M  V30 11 2 11 12
M  V30 12 1 11 13
M  V30 13 1 13 14
M  V30 14 2 14 15
M  V30 15 1 15 16
M  V30 16 2 16 17
M  V30 17 1 17 18
M  V30 18 1 17 19
M  V30 19 2 19 20
M  V30 20 1 10 21
M  V30 21 1 6 22
M  V30 22 2 22 23
M  V30 23 1 23 24
M  V30 24 1 24 25
M  V30 25 1 23 3
M  V30 26 1 21 7
M  V30 27 1 20 14
M  V30 28 1 1 26
M  V30 29 1 1 27
M  V30 30 1 1 28
M  V30 31 1 4 29
M  V30 32 1 5 30
M  V30 33 1 10 31
M  V30 34 1 13 32
M  V30 35 1 15 33
M  V30 36 1 16 34
M  V30 37 1 18 35
M  V30 38 1 18 36
M  V30 39 1 18 37
M  V30 40 1 19 38
M  V30 41 1 20 39
M  V30 42 1 21 40
M  V30 43 1 21 41
M  V30 44 1 22 42
M  V30 45 1 25 43
M  V30 46 1 25 44
M  V30 47 1 25 45
M  V30 END BOND
M  V30 END CTAB
M  END
>  <Dataset>  (105) 
ChEMBL_Kinases

>  <Ligand_Instance>  (105) 
nan

>  <PDB_ID>  (105) 
nan

>  <Standardized_SMILES>  (105) 
COc1ccc(C2=NOC(C(=O)Nc3ccc(C)cc3)C2)cc1OC

>  <Name>  (105) 
nan

>  <Pocket>  (105) 
nan

>  <ATP_Site>  (105) 
nan

>  <Peripheral>  (105) 
nan

>  <Num_H_Atoms_ProtBoundConf>  (105) 
nan

>  <Num_Resolved_Atoms>  (105) 
nan

>  <Num_Not_Resolved_Atoms>  (105) 
nan

$$$$
CHEMBL1301309
     RDKit          3D

  0  0  0  0  0  0  0  0  0  0999 V3000
M  V30 BEGIN CTAB
M  V30 COUNTS 51 54 0 0 0
M  V30 BEGIN ATOM
M  V30 1 C 2.300829 0.438001 7.230875 0
M  V30 2 O 3.581036 -0.073409 6.910535 0
M  V30 3 C 3.856050 -0.346610 5.577214 0
M  V30 4 C 5.099128 -0.852433 5.197645 0
M  V30 5 C 5.384575 -1.129251 3.863916 0
M  V30 6 C 4.413967 -0.895562 2.909836 0
M  V30 7 C 3.155501 -0.391575 3.233261 0
M  V30 8 C 2.108131 -0.137532 2.212574 0
M  V30 9 C 2.397132 1.036731 1.347248 0
M  V30 10 C 1.270063 1.294343 0.404975 0
M  V30 11 C 0.115009 2.061844 1.004722 0
M  V30 12 F -0.465273 1.419472 2.079487 0
M  V30 13 F -0.874912 2.170453 0.047997 0
M  V30 14 F 0.504352 3.334005 1.390086 0
M  V30 15 N 0.752562 0.062875 -0.139421 0
M  V30 16 N -0.152759 0.014973 -1.124326 0
M  V30 17 C -0.428122 -1.275100 -1.405615 0
M  V30 18 C -1.344101 -1.836664 -2.396835 0
M  V30 19 O -1.484133 -3.077913 -2.527568 0
M  V30 20 N -2.118921 -1.009127 -3.259853 0
M  V30 21 C -3.050287 -1.424446 -4.270294 0
M  V30 22 C -4.359418 -1.883160 -3.730502 0
M  V30 23 C -5.358660 -0.952318 -3.539498 0
M  V30 24 C -6.622252 -1.245787 -3.047469 0
M  V30 25 C -6.788813 -2.593765 -2.759434 0
M  V30 26 N -5.823279 -3.507171 -2.941609 0
M  V30 27 C -4.590529 -3.184885 -3.427888 0
M  V30 28 C 0.348753 -2.026209 -0.548735 0
M  V30 29 C 1.104846 -1.171843 0.261904 0
M  V30 30 N 2.071907 -1.303437 1.315893 0
M  V30 31 C 2.926254 -0.133885 4.577418 0
M  V30 32 H 1.481313 -0.157930 6.744392 0
M  V30 33 H 2.119700 0.292929 8.326344 0
M  V30 34 H 2.184486 1.488495 6.919143 0
M  V30 35 H 5.879480 -1.045785 5.925321 0
M  V30 36 H 6.348626 -1.525313 3.540938 0
M  V30 37 H 4.592142 -1.097485 1.853405 0
M  V30 38 H 1.139101 -0.085109 2.708271 0
M  V30 39 H 3.288151 0.796697 0.721894 0
M  V30 40 H 2.659309 1.952383 1.916695 0
M  V30 41 H 1.648444 1.934857 -0.440450 0
M  V30 42 H -1.948649 0.029641 -3.093322 0
M  V30 43 H -3.258009 -0.555499 -4.924863 0
M  V30 44 H -2.618855 -2.197588 -4.951380 0
M  V30 45 H -5.175506 0.106573 -3.783746 0
M  V30 46 H -7.387729 -0.497373 -2.906819 0
M  V30 47 H -7.740119 -2.928525 -2.370343 0
M  V30 48 H -3.866640 -3.956434 -3.551459 0
M  V30 49 H 0.412799 -3.116288 -0.463629 0
M  V30 50 H 2.615268 -2.200875 1.305667 0
M  V30 51 H 1.945756 0.255305 4.802061 0
M  V30 END ATOM
M  V30 BEGIN BOND
M  V30 1 1 1 2
M  V30 2 1 2 3
M  V30 3 2 3 4
M  V30 4 1 4 5
M  V30 5 2 5 6
M  V30 6 1 6 7
M  V30 7 1 7 8
M  V30 8 1 8 9
M  V30 9 1 9 10
M  V30 10 1 10 11
M  V30 11 1 11 12
M  V30 12 1 11 13
M  V30 13 1 11 14
M  V30 14 1 10 15
M  V30 15 1 15 16
M  V30 16 2 16 17
M  V30 17 1 17 18
M  V30 18 2 18 19
M  V30 19 1 18 20
M  V30 20 1 20 21
M  V30 21 1 21 22
M  V30 22 2 22 23
M  V30 23 1 23 24
M  V30 24 2 24 25
M  V30 25 1 25 26
M  V30 26 2 26 27
M  V30 27 1 17 28
M  V30 28 2 28 29
M  V30 29 1 29 30
M  V30 30 2 7 31
M  V30 31 1 31 3
M  V30 32 1 30 8
M  V30 33 1 29 15
M  V30 34 1 27 22
M  V30 35 1 1 32
M  V30 36 1 1 33
M  V30 37 1 1 34
M  V30 38 1 4 35
M  V30 39 1 5 36
M  V30 40 1 6 37
M  V30 41 1 8 38
M  V30 42 1 9 39
M  V30 43 1 9 40
M  V30 44 1 10 41
M  V30 45 1 20 42
M  V30 46 1 21 43
M  V30 47 1 21 44
M  V30 48 1 23 45
M  V30 49 1 24 46
M  V30 50 1 25 47
M  V30 51 1 27 48
M  V30 52 1 28 49
M  V30 53 1 30 50
M  V30 54 1 31 51
M  V30 END BOND
M  V30 END CTAB
M  END
>  <Dataset>  (106) 
ChEMBL_Kinases

>  <Ligand_Instance>  (106) 
nan

>  <PDB_ID>  (106) 
nan

>  <Standardized_SMILES>  (106) 
COc1cccc(C2CC(C(F)(F)F)n3nc(C(=O)NCc4cccnc4)cc3N2)c1

>  <Name>  (106) 
nan

>  <Pocket>  (106) 
nan

>  <ATP_Site>  (106) 
nan

>  <Peripheral>  (106) 
nan

>  <Num_H_Atoms_ProtBoundConf>  (106) 
nan

>  <Num_Resolved_Atoms>  (106) 
nan

>  <Num_Not_Resolved_Atoms>  (106) 
nan

$$$$
CHEMBL1301287
     RDKit          3D

  0  0  0  0  0  0  0  0  0  0999 V3000
M  V30 BEGIN CTAB
M  V30 COUNTS 26 28 0 0 0
M  V30 BEGIN ATOM
M  V30 1 O 0.187458 -2.183969 2.407174 0
M  V30 2 C -0.092735 -1.196399 1.699737 0
M  V30 3 C 0.474937 -0.668389 0.456352 0
M  V30 4 C 1.605272 -1.341437 -0.173290 0
M  V30 5 C 1.675986 -2.716908 -0.253988 0
M  V30 6 C 2.767107 -3.292810 -0.859411 0
M  V30 7 N 3.718062 -2.556540 -1.348991 0
M  V30 8 C 3.808239 -1.239825 -1.353508 0
M  V30 9 C 2.687352 -0.658969 -0.732076 0
M  V30 10 C -0.158590 0.429080 0.058398 0
M  V30 11 O 0.119131 1.177009 -1.066752 0
M  V30 12 C -1.226028 0.720803 1.038013 0
M  V30 13 C -2.183115 1.715769 1.150892 0
M  V30 14 C -3.096479 1.772788 2.205929 0
M  V30 15 C -3.006080 0.770060 3.154758 0
M  V30 16 C -2.064575 -0.228329 3.062124 0
M  V30 17 C -1.171705 -0.270825 2.022217 0
M  V30 18 H 0.861499 -3.305250 0.164716 0
M  V30 19 H 2.845686 -4.393778 -0.938408 0
M  V30 20 H 4.538011 -0.540363 -1.723109 0
M  V30 21 H 2.598211 0.421286 -0.653242 0
M  V30 22 H 0.623142 2.053874 -1.043734 0
M  V30 23 H -2.159807 2.439546 0.359545 0
M  V30 24 H -3.839314 2.583058 2.257745 0
M  V30 25 H -3.689340 0.759028 3.990413 0
M  V30 26 H -2.046367 -0.985440 3.836641 0
M  V30 END ATOM
M  V30 BEGIN BOND
M  V30 1 2 1 2
M  V30 2 1 2 3
M  V30 3 1 3 4
M  V30 4 2 4 5
M  V30 5 1 5 6
M  V30 6 2 6 7
M  V30 7 1 7 8
M  V30 8 2 8 9
M  V30 9 2 3 10
M  V30 10 1 10 11
M  V30 11 1 10 12
M  V30 12 2 12 13
M  V30 13 1 13 14
M  V30 14 2 14 15
M  V30 15 1 15 16
M  V30 16 2 16 17
M  V30 17 1 17 2
M  V30 18 1 9 4
M  V30 19 1 17 12
M  V30 20 1 5 18
M  V30 21 1 6 19
M  V30 22 1 8 20
M  V30 23 1 9 21
M  V30 24 1 11 22
M  V30 25 1 13 23
M  V30 26 1 14 24
M  V30 27 1 15 25
M  V30 28 1 16 26
M  V30 END BOND
M  V30 END CTAB
M  END
>  <Dataset>  (107) 
ChEMBL_Kinases

>  <Ligand_Instance>  (107) 
nan

>  <PDB_ID>  (107) 
nan

>  <Standardized_SMILES>  (107) 
O=C1C(c2ccncc2)=C(O)c2ccccc21

>  <Name>  (107) 
nan

>  <Pocket>  (107) 
nan

>  <ATP_Site>  (107) 
nan

>  <Peripheral>  (107) 
nan

>  <Num_H_Atoms_ProtBoundConf>  (107) 
nan

>  <Num_Resolved_Atoms>  (107) 
nan

>  <Num_Not_Resolved_Atoms>  (107) 
nan

$$$$
CHEMBL1301225
     RDKit          3D

  0  0  0  0  0  0  0  0  0  0999 V3000
M  V30 BEGIN CTAB
M  V30 COUNTS 54 56 0 0 0
M  V30 BEGIN ATOM
M  V30 1 C 1.573213 -5.490122 0.872087 0
M  V30 2 C 2.129309 -4.507225 0.138308 0
M  V30 3 C 1.350368 -3.252985 -0.135516 0
M  V30 4 N 1.159317 -3.040694 -1.536828 0
M  V30 5 C 2.005811 -2.336391 -2.290726 0
M  V30 6 S 3.493488 -1.421994 -1.974644 0
M  V30 7 C 3.140782 0.300200 -1.638028 0
M  V30 8 C 2.399664 0.559981 -0.389430 0
M  V30 9 O 1.814370 0.237370 0.675137 0
M  V30 10 N 2.227687 1.997916 -0.304490 0
M  V30 11 C 1.526699 2.557467 0.830424 0
M  V30 12 C 2.178458 2.933979 1.992600 0
M  V30 13 C 1.368207 3.456949 3.002344 0
M  V30 14 C 0.003992 3.597206 2.869022 0
M  V30 15 N -0.782337 4.135398 3.924682 0
M  V30 16 C -0.161807 4.542630 5.149039 0
M  V30 17 C -2.212388 4.268602 3.754059 0
M  V30 18 C -0.599568 3.201190 1.675453 0
M  V30 19 C 0.164647 2.677579 0.647871 0
M  V30 20 N 1.530587 -2.362345 -3.556759 0
M  V30 21 N 0.431348 -3.068495 -3.525852 0
M  V30 22 C 0.155015 -3.514762 -2.288583 0
M  V30 23 C -0.943726 -4.326072 -1.768179 0
M  V30 24 C -0.920256 -5.664861 -1.438484 0
M  V30 25 C -2.052389 -6.286395 -0.956301 0
M  V30 26 C -3.195364 -5.518016 -0.820326 0
M  V30 27 C -3.258886 -4.172301 -1.140275 0
M  V30 28 C -4.524362 -3.386610 -0.973518 0
M  V30 29 C -2.107460 -3.563013 -1.624929 0
M  V30 30 H 0.553754 -5.421647 1.291977 0
M  V30 31 H 0.558418 -5.451869 1.304845 0
M  V30 32 H 2.745063 -5.363681 0.287937 0
M  V30 33 H 0.407722 -3.295377 0.441743 0
M  V30 34 H 1.943411 -2.432670 0.311540 0
M  V30 35 H 2.622448 0.786789 -2.518264 0
M  V30 36 H 4.138503 0.815852 -1.544447 0
M  V30 37 H 2.474087 2.876667 -0.863201 0
M  V30 38 H 3.246312 2.812691 2.068325 0
M  V30 39 H 1.897789 3.744453 3.900899 0
M  V30 40 H 0.262895 5.565305 5.094343 0
M  V30 41 H 0.645299 3.863670 5.505969 0
M  V30 42 H -0.947393 4.552070 5.953299 0
M  V30 43 H -2.732318 4.413266 4.726832 0
M  V30 44 H -2.435217 5.120012 3.088615 0
M  V30 45 H -2.604417 3.306165 3.327021 0
M  V30 46 H -1.669764 3.288110 1.514343 0
M  V30 47 H -0.332036 2.376213 -0.273620 0
M  V30 48 H 0.042477 -6.151070 -1.593374 0
M  V30 49 H -2.001153 -7.331795 -0.708381 0
M  V30 50 H -4.091002 -5.986201 -0.444858 0
M  V30 51 H -5.279634 -4.071729 -0.536658 0
M  V30 52 H -4.354563 -2.558173 -0.270832 0
M  V30 53 H -4.881172 -3.020105 -1.965434 0
M  V30 54 H -2.212969 -2.514585 -1.858076 0
M  V30 END ATOM
M  V30 BEGIN BOND
M  V30 1 2 1 2
M  V30 2 1 2 3
M  V30 3 1 3 4
M  V30 4 1 4 5
M  V30 5 1 5 6
M  V30 6 1 6 7
M  V30 7 1 7 8
M  V30 8 2 8 9
M  V30 9 1 8 10
M  V30 10 1 10 11
M  V30 11 2 11 12
M  V30 12 1 12 13
M  V30 13 2 13 14
M  V30 14 1 14 15
M  V30 15 1 15 16
M  V30 16 1 15 17
M  V30 17 1 14 18
M  V30 18 2 18 19
M  V30 19 2 5 20
M  V30 20 1 20 21
M  V30 21 2 21 22
M  V30 22 1 22 23
M  V30 23 2 23 24
M  V30 24 1 24 25
M  V30 25 2 25 26
M  V30 26 1 26 27
M  V30 27 1 27 28
M  V30 28 2 27 29
M  V30 29 1 22 4
M  V30 30 1 29 23
M  V30 31 1 19 11
M  V30 32 1 1 30
M  V30 33 1 1 31
M  V30 34 1 2 32
M  V30 35 1 3 33
M  V30 36 1 3 34
M  V30 37 1 7 35
M  V30 38 1 7 36
M  V30 39 1 10 37
M  V30 40 1 12 38
M  V30 41 1 13 39
M  V30 42 1 16 40
M  V30 43 1 16 41
M  V30 44 1 16 42
M  V30 45 1 17 43
M  V30 46 1 17 44
M  V30 47 1 17 45
M  V30 48 1 18 46
M  V30 49 1 19 47
M  V30 50 1 24 48
M  V30 51 1 25 49
M  V30 52 1 26 50
M  V30 53 1 28 51
M  V30 54 1 28 52
M  V30 55 1 28 53
M  V30 56 1 29 54
M  V30 END BOND
M  V30 END CTAB
M  END
>  <Dataset>  (108) 
ChEMBL_Kinases

>  <Ligand_Instance>  (108) 
nan

>  <PDB_ID>  (108) 
nan

>  <Standardized_SMILES>  (108) 
C=CCn1c(SCC(=O)Nc2ccc(N(C)C)cc2)nnc1-c1cccc(C)c1

>  <Name>  (108) 
nan

>  <Pocket>  (108) 
nan

>  <ATP_Site>  (108) 
nan

>  <Peripheral>  (108) 
nan

>  <Num_H_Atoms_ProtBoundConf>  (108) 
nan

>  <Num_Resolved_Atoms>  (108) 
nan

>  <Num_Not_Resolved_Atoms>  (108) 
nan

$$$$
CHEMBL1301191
     RDKit          3D

  0  0  0  0  0  0  0  0  0  0999 V3000
M  V30 BEGIN CTAB
M  V30 COUNTS 54 57 0 0 0
M  V30 BEGIN ATOM
M  V30 1 C 3.539761 -6.469098 0.816304 0
M  V30 2 C 3.324393 -5.040474 1.102946 0
M  V30 3 C 4.257849 -4.077473 1.427022 0
M  V30 4 C 3.885579 -2.766877 1.669181 0
M  V30 5 C 2.558579 -2.451374 1.578121 0
M  V30 6 C 2.255253 -1.125681 1.830269 0
M  V30 7 C 0.912571 -0.736157 1.751545 0
M  V30 8 C 0.475385 0.661736 1.994676 0
M  V30 9 N 0.241777 1.261822 0.682171 0
M  V30 10 C 1.410554 1.238338 -0.108347 0
M  V30 11 C 1.262000 1.919323 -1.423666 0
M  V30 12 O 0.952091 3.261725 -1.373980 0
M  V30 13 C -0.477926 2.472368 0.735291 0
M  V30 14 C -1.709333 2.367092 1.567199 0
M  V30 15 N -1.760604 2.543670 2.919304 0
M  V30 16 N -3.009196 2.383973 3.294974 0
M  V30 17 N -3.705097 2.118028 2.209635 0
M  V30 18 N -2.947659 2.098926 1.132454 0
M  V30 19 C -3.492894 1.847439 -0.177627 0
M  V30 20 C -3.487771 0.420383 -0.570816 0
M  V30 21 C -2.465510 -0.061139 -1.383783 0
M  V30 22 C -2.453523 -1.403458 -1.755329 0
M  V30 23 C -3.431346 -2.266288 -1.336543 0
M  V30 24 F -3.332856 -3.554339 -1.751839 0
M  V30 25 C -4.441740 -1.813601 -0.539505 0
M  V30 26 C -4.451049 -0.483707 -0.172825 0
M  V30 27 C -0.040768 -1.677960 1.430709 0
M  V30 28 O -1.394087 -1.434594 1.320546 0
M  V30 29 N 0.295048 -2.979228 1.187892 0
M  V30 30 C 1.579960 -3.371293 1.258093 0
M  V30 31 C 1.974445 -4.689878 1.016761 0
M  V30 32 H 3.040305 -6.800042 -0.124524 0
M  V30 33 H 4.625471 -6.654080 0.763061 0
M  V30 34 H 3.128216 -7.048407 1.665121 0
M  V30 35 H 5.264428 -4.447592 1.468988 0
M  V30 36 H 4.664830 -2.044583 1.922240 0
M  V30 37 H 2.907074 -0.319132 2.086383 0
M  V30 38 H 1.311502 1.179672 2.506492 0
M  V30 39 H -0.383419 0.654492 2.652757 0
M  V30 40 H 2.251265 1.755671 0.433813 0
M  V30 41 H 1.756341 0.194115 -0.310579 0
M  V30 42 H 2.198778 1.843638 -2.046224 0
M  V30 43 H 0.490191 1.436869 -2.079054 0
M  V30 44 H 1.229805 3.758143 -2.169281 0
M  V30 45 H -0.844118 2.653770 -0.328131 0
M  V30 46 H 0.058516 3.380259 1.029697 0
M  V30 47 H -3.010943 2.463622 -0.965092 0
M  V30 48 H -4.579443 2.154162 -0.232997 0
M  V30 49 H -1.718932 0.652010 -1.690523 0
M  V30 50 H -1.604462 -1.682723 -2.398497 0
M  V30 51 H -5.167722 -2.537560 -0.251596 0
M  V30 52 H -5.268458 -0.150717 0.461940 0
M  V30 53 H -1.926413 -0.818666 1.908560 0
M  V30 54 H 1.144265 -5.338578 0.775320 0
M  V30 END ATOM
M  V30 BEGIN BOND
M  V30 1 1 1 2
M  V30 2 2 2 3
M  V30 3 1 3 4
M  V30 4 2 4 5
M  V30 5 1 5 6
M  V30 6 2 6 7
M  V30 7 1 7 8
M  V30 8 1 8 9
M  V30 9 1 9 10
M  V30 10 1 10 11
M  V30 11 1 11 12
M  V30 12 1 9 13
M  V30 13 1 13 14
M  V30 14 2 14 15
M  V30 15 1 15 16
M  V30 16 2 16 17
M  V30 17 1 17 18
M  V30 18 1 18 19
M  V30 19 1 19 20
M  V30 20 2 20 21
M  V30 21 1 21 22
M  V30 22 2 22 23
M  V30 23 1 23 24
M  V30 24 1 23 25
M  V30 25 2 25 26
M  V30 26 1 7 27
M  V30 27 1 27 28
M  V30 28 2 27 29
M  V30 29 1 29 30
M  V30 30 2 30 31
M  V30 31 1 31 2
M  V30 32 1 30 5
M  V30 33 1 18 14
M  V30 34 1 26 20
M  V30 35 1 1 32
M  V30 36 1 1 33
M  V30 37 1 1 34
M  V30 38 1 3 35
M  V30 39 1 4 36
M  V30 40 1 6 37
M  V30 41 1 8 38
M  V30 42 1 8 39
M  V30 43 1 10 40
M  V30 44 1 10 41
M  V30 45 1 11 42
M  V30 46 1 11 43
M  V30 47 1 12 44
M  V30 48 1 13 45
M  V30 49 1 13 46
M  V30 50 1 19 47
M  V30 51 1 19 48
M  V30 52 1 21 49
M  V30 53 1 22 50
M  V30 54 1 25 51
M  V30 55 1 26 52
M  V30 56 1 28 53
M  V30 57 1 31 54
M  V30 END BOND
M  V30 END CTAB
M  END
>  <Dataset>  (109) 
ChEMBL_Kinases

>  <Ligand_Instance>  (109) 
nan

>  <PDB_ID>  (109) 
nan

>  <Standardized_SMILES>  (109) 
Cc1ccc2cc(CN(CCO)Cc3nnnn3Cc3ccc(F)cc3)c(O)nc2c1

>  <Name>  (109) 
nan

>  <Pocket>  (109) 
nan

>  <ATP_Site>  (109) 
nan

>  <Peripheral>  (109) 
nan

>  <Num_H_Atoms_ProtBoundConf>  (109) 
nan

>  <Num_Resolved_Atoms>  (109) 
nan

>  <Num_Not_Resolved_Atoms>  (109) 
nan

$$$$
CHEMBL1301130
     RDKit          3D

  0  0  0  0  0  0  0  0  0  0999 V3000
M  V30 BEGIN CTAB
M  V30 COUNTS 45 48 0 0 0
M  V30 BEGIN ATOM
M  V30 1 N -1.144409 -2.390970 1.510191 0
M  V30 2 N -1.824209 -3.306234 0.727341 0
M  V30 3 C -1.252941 -4.134927 -0.156018 0
M  V30 4 S 0.378148 -4.429857 -0.698915 0
M  V30 5 C 1.658927 -3.430830 0.015798 0
M  V30 6 C 1.587513 -1.996685 -0.363089 0
M  V30 7 O 0.620392 -1.715881 -1.130864 0
M  V30 8 N 2.574697 -1.112802 0.153507 0
M  V30 9 C 2.524480 0.264111 -0.197107 0
M  V30 10 C 3.701266 0.749730 -1.013961 0
M  V30 11 C 3.294224 2.052006 -1.670344 0
M  V30 12 C 2.149500 2.743621 -0.982905 0
M  V30 13 C 2.172108 2.515226 0.503555 0
M  V30 14 C 2.004137 3.556973 1.388551 0
M  V30 15 C 2.046072 3.211091 2.723316 0
M  V30 16 C 2.240569 1.922409 3.184968 0
M  V30 17 C 2.405201 0.905670 2.238912 0
M  V30 18 C 2.369664 1.209681 0.918538 0
M  V30 19 N -2.279656 -4.833493 -0.670835 0
M  V30 20 N -3.397892 -4.419980 -0.103322 0
M  V30 21 C -3.154932 -3.449539 0.792182 0
M  V30 22 C -4.169478 -2.801974 1.570364 0
M  V30 23 C -4.633395 -1.546326 1.697410 0
M  V30 24 C -5.647079 -1.218628 2.551693 0
M  V30 25 C -6.178901 -2.377108 3.316957 0
M  V30 26 S -5.110303 -3.801846 2.674277 0
M  V30 27 H -0.424061 -1.659506 1.648761 0
M  V30 28 H -1.273053 -2.159906 2.539736 0
M  V30 29 H 1.730829 -3.544447 1.135096 0
M  V30 30 H 2.636526 -3.829496 -0.346091 0
M  V30 31 H 3.319442 -1.489456 0.780719 0
M  V30 32 H 1.633135 0.410898 -0.873356 0
M  V30 33 H 4.606034 0.956024 -0.411118 0
M  V30 34 H 3.890279 -0.055327 -1.769192 0
M  V30 35 H 2.977458 1.843002 -2.729292 0
M  V30 36 H 4.122539 2.791643 -1.729941 0
M  V30 37 H 2.153701 3.811113 -1.241113 0
M  V30 38 H 1.153556 2.344065 -1.333167 0
M  V30 39 H 1.851009 4.573258 1.044604 0
M  V30 40 H 1.915952 4.012102 3.465264 0
M  V30 41 H 2.264256 1.708402 4.244836 0
M  V30 42 H 2.559574 -0.110956 2.523751 0
M  V30 43 H -4.135111 -0.827445 1.068061 0
M  V30 44 H -6.028993 -0.218980 2.665226 0
M  V30 45 H -7.057944 -2.091427 4.057160 0
M  V30 END ATOM
M  V30 BEGIN BOND
M  V30 1 1 1 2
M  V30 2 1 2 3
M  V30 3 1 3 4
M  V30 4 1 4 5
M  V30 5 1 5 6
M  V30 6 2 6 7
M  V30 7 1 6 8
M  V30 8 1 8 9
M  V30 9 1 9 10
M  V30 10 1 10 11
M  V30 11 1 11 12
M  V30 12 1 12 13
M  V30 13 2 13 14
M  V30 14 1 14 15
M  V30 15 2 15 16
M  V30 16 1 16 17
M  V30 17 2 17 18
M  V30 18 2 3 19
M  V30 19 1 19 20
M  V30 20 2 20 21
M  V30 21 1 21 22
M  V30 22 2 22 23
M  V30 23 1 23 24
M  V30 24 2 24 25
M  V30 25 1 25 26
M  V30 26 1 21 2
M  V30 27 1 26 22
M  V30 28 1 18 9
M  V30 29 1 18 13
M  V30 30 1 1 27
M  V30 31 1 1 28
M  V30 32 1 5 29
M  V30 33 1 5 30
M  V30 34 1 8 31
M  V30 35 1 9 32
M  V30 36 1 10 33
M  V30 37 1 10 34
M  V30 38 1 11 35
M  V30 39 1 11 36
M  V30 40 1 12 37
M  V30 41 1 12 38
M  V30 42 1 14 39
M  V30 43 1 15 40
M  V30 44 1 16 41
M  V30 45 1 17 42
M  V30 46 1 23 43
M  V30 47 1 24 44
M  V30 48 1 25 45
M  V30 END BOND
M  V30 END CTAB
M  END
>  <Dataset>  (110) 
ChEMBL_Kinases

>  <Ligand_Instance>  (110) 
nan

>  <PDB_ID>  (110) 
nan

>  <Standardized_SMILES>  (110) 
Nn1c(SCC(=O)NC2CCCc3ccccc32)nnc1-c1cccs1

>  <Name>  (110) 
nan

>  <Pocket>  (110) 
nan

>  <ATP_Site>  (110) 
nan

>  <Peripheral>  (110) 
nan

>  <Num_H_Atoms_ProtBoundConf>  (110) 
nan

>  <Num_Resolved_Atoms>  (110) 
nan

>  <Num_Not_Resolved_Atoms>  (110) 
nan

$$$$
CHEMBL1301126
     RDKit          3D

  0  0  0  0  0  0  0  0  0  0999 V3000
M  V30 BEGIN CTAB
M  V30 COUNTS 24 25 0 0 0
M  V30 BEGIN ATOM
M  V30 1 C 2.039107 -0.033120 2.495070 0
M  V30 2 N 1.184783 0.898279 1.813361 0
M  V30 3 C 0.315091 0.564921 0.842663 0
M  V30 4 C 0.003862 -0.726815 0.242080 0
M  V30 5 C -0.204773 -1.911234 0.871629 0
M  V30 6 C -0.491713 -3.047202 0.139883 0
M  V30 7 C -0.579748 -3.040207 -1.236751 0
M  V30 8 Cl -0.943675 -4.485368 -2.150394 0
M  V30 9 C -0.367629 -1.833723 -1.884305 0
M  V30 10 C -0.086265 -0.723292 -1.155509 0
M  V30 11 C -0.302238 1.759784 0.462740 0
M  V30 12 N 0.201744 2.766350 1.200898 0
M  V30 13 C 1.118977 2.241427 2.035393 0
M  V30 14 N 1.890738 2.990576 2.994637 0
M  V30 15 H 1.481742 -0.606974 3.291907 0
M  V30 16 H 2.824976 0.528617 3.080878 0
M  V30 17 H 2.611712 -0.710094 1.824629 0
M  V30 18 H -0.128434 -1.882732 1.952750 0
M  V30 19 H -0.654546 -3.985102 0.675650 0
M  V30 20 H -0.440784 -1.848583 -2.961203 0
M  V30 21 H 0.066849 0.186850 -1.750132 0
M  V30 22 H -1.063269 1.861952 -0.301685 0
M  V30 23 H 2.202694 2.645326 3.921927 0
M  V30 24 H 2.172937 3.982109 2.747895 0
M  V30 END ATOM
M  V30 BEGIN BOND
M  V30 1 1 1 2
M  V30 2 1 2 3
M  V30 3 1 3 4
M  V30 4 2 4 5
M  V30 5 1 5 6
M  V30 6 2 6 7
M  V30 7 1 7 8
M  V30 8 1 7 9
M  V30 9 2 9 10
M  V30 10 2 3 11
M  V30 11 1 11 12
M  V30 12 2 12 13
M  V30 13 1 13 14
M  V30 14 1 13 2
M  V30 15 1 10 4
M  V30 16 1 1 15
M  V30 17 1 1 16
M  V30 18 1 1 17
M  V30 19 1 5 18
M  V30 20 1 6 19
M  V30 21 1 9 20
M  V30 22 1 10 21
M  V30 23 1 11 22
M  V30 24 1 14 23
M  V30 25 1 14 24
M  V30 END BOND
M  V30 END CTAB
M  END
>  <Dataset>  (111) 
ChEMBL_Kinases

>  <Ligand_Instance>  (111) 
nan

>  <PDB_ID>  (111) 
nan

>  <Standardized_SMILES>  (111) 
Cn1c(-c2ccc(Cl)cc2)cnc1N

>  <Name>  (111) 
nan

>  <Pocket>  (111) 
nan

>  <ATP_Site>  (111) 
nan

>  <Peripheral>  (111) 
nan

>  <Num_H_Atoms_ProtBoundConf>  (111) 
nan

>  <Num_Resolved_Atoms>  (111) 
nan

>  <Num_Not_Resolved_Atoms>  (111) 
nan

$$$$
CHEMBL1271632
     RDKit          3D

  0  0  0  0  0  0  0  0  0  0999 V3000
M  V30 BEGIN CTAB
M  V30 COUNTS 72 77 0 0 0
M  V30 BEGIN ATOM
M  V30 1 O -2.416321 0.492930 3.833225 0
M  V30 2 C -1.460994 1.000716 3.213352 0
M  V30 3 N -0.342726 1.702868 3.728322 0
M  V30 4 C 0.472422 2.086030 2.600934 0
M  V30 5 C 1.652446 2.798282 2.620334 0
M  V30 6 C 2.272401 3.080026 1.425138 0
M  V30 7 C 3.503230 3.826685 1.531084 0
M  V30 8 O 3.944736 4.179874 2.654475 0
M  V30 9 C 4.524066 4.365659 0.604464 0
M  V30 10 C 4.644235 5.857336 0.685162 0
M  V30 11 C 5.165875 6.273132 -0.647828 0
M  V30 12 C 4.795890 5.154033 -1.569355 0
M  V30 13 N 4.231302 4.109459 -0.775017 0
M  V30 14 C 1.711061 2.651890 0.241005 0
M  V30 15 C 0.532474 1.942546 0.254475 0
M  V30 16 C -0.087273 1.656069 1.420544 0
M  V30 17 C -1.306998 0.966040 1.771207 0
M  V30 18 C -2.096895 0.461402 0.860481 0
M  V30 19 N -3.304495 -0.140454 1.381880 0
M  V30 20 C -3.321340 -1.551421 1.143126 0
M  V30 21 C -3.925571 -2.135615 0.039959 0
M  V30 22 C -3.937548 -3.494738 -0.196549 0
M  V30 23 C -3.316949 -4.337785 0.706612 0
M  V30 24 C -3.332615 -5.810499 0.449764 0
M  V30 25 N -2.256786 -6.228769 -0.313367 0
M  V30 26 C -2.096948 -7.570681 -0.644940 0
M  V30 27 C -0.664098 -7.974452 -0.268802 0
M  V30 28 C -0.155582 -6.996874 0.800130 0
M  V30 29 C -0.022096 -5.599867 0.237022 0
M  V30 30 C -1.212566 -5.398360 -0.703943 0
M  V30 31 C -2.702983 -3.799228 1.819200 0
M  V30 32 C -2.714577 -2.429374 2.018244 0
M  V30 33 C -1.958663 0.289200 -0.566036 0
M  V30 34 C -2.980292 0.935145 -1.239637 0
M  V30 35 C -3.126570 0.877739 -2.629576 0
M  V30 36 C -2.223987 0.152206 -3.369343 0
M  V30 37 C -1.211665 -0.491752 -2.732838 0
M  V30 38 C -1.071181 -0.434858 -1.381832 0
M  V30 39 H -0.188102 1.881118 4.744573 0
M  V30 40 H 2.050819 3.111328 3.571569 0
M  V30 41 H 5.526845 3.880120 0.814017 0
M  V30 42 H 5.418405 6.085610 1.464876 0
M  V30 43 H 3.708564 6.358601 1.006849 0
M  V30 44 H 6.267253 6.409807 -0.665381 0
M  V30 45 H 4.652037 7.229716 -0.932641 0
M  V30 46 H 5.655407 4.812034 -2.211608 0
M  V30 47 H 4.051695 5.558601 -2.312280 0
M  V30 48 H 4.669417 3.202957 -1.039988 0
M  V30 49 H 2.252257 2.909729 -0.649901 0
M  V30 50 H 0.238442 1.719652 -0.725977 0
M  V30 51 H -4.078110 0.375232 1.873532 0
M  V30 52 H -4.420919 -1.505913 -0.685410 0
M  V30 53 H -4.416176 -3.905064 -1.061125 0
M  V30 54 H -4.327486 -6.135533 0.076978 0
M  V30 55 H -3.256298 -6.271933 1.473471 0
M  V30 56 H -2.836542 -8.276982 -0.217217 0
M  V30 57 H -2.115232 -7.663434 -1.768561 0
M  V30 58 H 0.033369 -7.879503 -1.118663 0
M  V30 59 H -0.623971 -8.978181 0.176451 0
M  V30 60 H -0.924685 -7.005477 1.596837 0
M  V30 61 H 0.821564 -7.392929 1.151553 0
M  V30 62 H 0.935848 -5.464373 -0.312225 0
M  V30 63 H -0.115045 -4.826417 1.019537 0
M  V30 64 H -0.805880 -5.669611 -1.725746 0
M  V30 65 H -1.452118 -4.317762 -0.802933 0
M  V30 66 H -2.214052 -4.461187 2.532410 0
M  V30 67 H -2.212751 -2.090743 2.912559 0
M  V30 68 H -3.767120 1.543425 -0.805106 0
M  V30 69 H -3.909048 1.367681 -3.187350 0
M  V30 70 H -2.206499 0.014842 -4.456137 0
M  V30 71 H -0.417163 -1.102577 -3.142730 0
M  V30 72 H -0.314868 -0.895507 -0.724673 0
M  V30 END ATOM
M  V30 BEGIN BOND
M  V30 1 2 1 2
M  V30 2 1 2 3
M  V30 3 1 3 4
M  V30 4 2 4 5
M  V30 5 1 5 6
M  V30 6 1 6 7
M  V30 7 2 7 8
M  V30 8 1 7 9
M  V30 9 1 9 10
M  V30 10 1 10 11
M  V30 11 1 11 12
M  V30 12 1 12 13
M  V30 13 2 6 14
M  V30 14 1 14 15
M  V30 15 2 15 16
M  V30 16 1 16 17
M  V30 17 2 17 18
M  V30 18 1 18 19
M  V30 19 1 19 20
M  V30 20 2 20 21
M  V30 21 1 21 22
M  V30 22 2 22 23
M  V30 23 1 23 24
M  V30 24 1 24 25
M  V30 25 1 25 26
M  V30 26 1 26 27
M  V30 27 1 27 28
M  V30 28 1 28 29
M  V30 29 1 29 30
M  V30 30 1 23 31
M  V30 31 2 31 32
M  V30 32 1 18 33
M  V30 33 2 33 34
M  V30 34 1 34 35
M  V30 35 2 35 36
M  V30 36 1 36 37
M  V30 37 2 37 38
M  V30 38 1 17 2
M  V30 39 1 32 20
M  V30 40 1 38 33
M  V30 41 1 16 4
M  V30 42 1 30 25
M  V30 43 1 13 9
M  V30 44 1 3 39
M  V30 45 1 5 40
M  V30 46 1 9 41
M  V30 47 1 10 42
M  V30 48 1 10 43
M  V30 49 1 11 44
M  V30 50 1 11 45
M  V30 51 1 12 46
M  V30 52 1 12 47
M  V30 53 1 13 48
M  V30 54 1 14 49
M  V30 55 1 15 50
M  V30 56 1 19 51
M  V30 57 1 21 52
M  V30 58 1 22 53
M  V30 59 1 24 54
M  V30 60 1 24 55
M  V30 61 1 26 56
M  V30 62 1 26 57
M  V30 63 1 27 58
M  V30 64 1 27 59
M  V30 65 1 28 60
M  V30 66 1 28 61
M  V30 67 1 29 62
M  V30 68 1 29 63
M  V30 69 1 30 64
M  V30 70 1 30 65
M  V30 71 1 31 66
M  V30 72 1 32 67
M  V30 73 1 34 68
M  V30 74 1 35 69
M  V30 75 1 36 70
M  V30 76 1 37 71
M  V30 77 1 38 72
M  V30 END BOND
M  V30 END CTAB
M  END
>  <Dataset>  (112) 
ChEMBL_Kinases

>  <Ligand_Instance>  (112) 
nan

>  <PDB_ID>  (112) 
nan

>  <Standardized_SMILES>  (112) 
O=C1Nc2cc(C(=O)C3CCCN3)ccc2/C1=C(/Nc1ccc(CN2CCCCC2)cc1)c1ccccc1

>  <Name>  (112) 
nan

>  <Pocket>  (112) 
nan

>  <ATP_Site>  (112) 
nan

>  <Peripheral>  (112) 
nan

>  <Num_H_Atoms_ProtBoundConf>  (112) 
nan

>  <Num_Resolved_Atoms>  (112) 
nan

>  <Num_Not_Resolved_Atoms>  (112) 
nan

$$$$
CHEMBL129857
     RDKit          3D

  0  0  0  0  0  0  0  0  0  0999 V3000
M  V30 BEGIN CTAB
M  V30 COUNTS 40 43 0 0 0
M  V30 BEGIN ATOM
M  V30 1 C 2.368700 -4.697059 1.898216 0
M  V30 2 O 1.852600 -3.446547 1.502485 0
M  V30 3 C 2.655923 -2.437693 1.017188 0
M  V30 4 C 4.010674 -2.671722 0.919979 0
M  V30 5 C 4.935445 -1.756893 0.453189 0
M  V30 6 C 4.422164 -0.531185 0.066308 0
M  V30 7 C 3.072012 -0.264033 0.150548 0
M  V30 8 N 2.502242 0.898611 -0.205108 0
M  V30 9 C 1.196165 1.174981 -0.130270 0
M  V30 10 C 0.641817 2.479024 -0.540711 0
M  V30 11 C -0.246427 2.778424 -1.479558 0
M  V30 12 C -0.629229 4.077124 -1.700472 0
M  V30 13 C -0.002753 5.030429 -0.855425 0
M  V30 14 S 1.101817 3.982164 0.205923 0
M  V30 15 N 0.384601 0.208248 0.340457 0
M  V30 16 C 0.831209 -0.991114 0.726564 0
M  V30 17 N -0.145277 -1.901049 1.198662 0
M  V30 18 N -1.478596 -1.470710 1.220205 0
M  V30 19 C -2.477539 -1.584852 0.185473 0
M  V30 20 O -2.213846 -2.137554 -0.924976 0
M  V30 21 C -3.762946 -0.991538 0.611159 0
M  V30 22 C -3.600388 -0.525864 1.841395 0
M  V30 23 C -4.632642 0.153719 2.665599 0
M  V30 24 C -2.209856 -0.796060 2.263474 0
M  V30 25 O -1.724402 -0.483211 3.378199 0
M  V30 26 C 2.185058 -1.206157 0.622362 0
M  V30 27 H 3.055520 -5.150998 1.169608 0
M  V30 28 H 1.529140 -5.393705 2.103951 0
M  V30 29 H 2.891533 -4.578464 2.889116 0
M  V30 30 H 4.441516 -3.638065 1.221455 0
M  V30 31 H 5.992949 -1.975922 0.390866 0
M  V30 32 H 5.059329 0.256414 -0.313935 0
M  V30 33 H -0.668588 1.969035 -2.075231 0
M  V30 34 H -1.343585 4.412604 -2.440659 0
M  V30 35 H -0.206091 6.131510 -0.908200 0
M  V30 36 H -0.313693 -2.846699 1.573902 0
M  V30 37 H -4.641865 -0.973623 -0.018657 0
M  V30 38 H -5.556727 -0.449293 2.760354 0
M  V30 39 H -4.235363 0.328268 3.681163 0
M  V30 40 H -4.837121 1.171011 2.241232 0
M  V30 END ATOM
M  V30 BEGIN BOND
M  V30 1 1 1 2
M  V30 2 1 2 3
M  V30 3 2 3 4
M  V30 4 1 4 5
M  V30 5 2 5 6
M  V30 6 1 6 7
M  V30 7 2 7 8
M  V30 8 1 8 9
M  V30 9 1 9 10
M  V30 10 2 10 11
M  V30 11 1 11 12
M  V30 12 2 12 13
M  V30 13 1 13 14
M  V30 14 2 9 15
M  V30 15 1 15 16
M  V30 16 1 16 17
M  V30 17 1 17 18
M  V30 18 1 18 19
M  V30 19 2 19 20
M  V30 20 1 19 21
M  V30 21 2 21 22
M  V30 22 1 22 23
M  V30 23 1 22 24
M  V30 24 2 24 25
M  V30 25 2 16 26
M  V30 26 1 26 3
M  V30 27 1 26 7
M  V30 28 1 14 10
M  V30 29 1 24 18
M  V30 30 1 1 27
M  V30 31 1 1 28
M  V30 32 1 1 29
M  V30 33 1 4 30
M  V30 34 1 5 31
M  V30 35 1 6 32
M  V30 36 1 11 33
M  V30 37 1 12 34
M  V30 38 1 13 35
M  V30 39 1 17 36
M  V30 40 1 21 37
M  V30 41 1 23 38
M  V30 42 1 23 39
M  V30 43 1 23 40
M  V30 END BOND
M  V30 END CTAB
M  END
>  <Dataset>  (113) 
ChEMBL_Kinases

>  <Ligand_Instance>  (113) 
nan

>  <PDB_ID>  (113) 
nan

>  <Standardized_SMILES>  (113) 
COc1cccc2nc(-c3cccs3)nc(NN3C(=O)C=C(C)C3=O)c12

>  <Name>  (113) 
AS-602868

>  <Pocket>  (113) 
nan

>  <ATP_Site>  (113) 
nan

>  <Peripheral>  (113) 
nan

>  <Num_H_Atoms_ProtBoundConf>  (113) 
nan

>  <Num_Resolved_Atoms>  (113) 
nan

>  <Num_Not_Resolved_Atoms>  (113) 
nan

$$$$
CHEMBL1299346
     RDKit          3D

  0  0  0  0  0  0  0  0  0  0999 V3000
M  V30 BEGIN CTAB
M  V30 COUNTS 46 49 0 0 0
M  V30 BEGIN ATOM
M  V30 1 C 1.974918 -6.620910 0.998282 0
M  V30 2 S 2.791750 -5.565027 2.201038 0
M  V30 3 C 2.574859 -3.859003 1.720737 0
M  V30 4 C 3.128085 -2.850731 2.507944 0
M  V30 5 C 2.991284 -1.517645 2.183611 0
M  V30 6 C 2.293909 -1.140686 1.056555 0
M  V30 7 C 2.070755 0.275710 0.594012 0
M  V30 8 C 1.958073 0.216095 -0.868563 0
M  V30 9 C 3.172144 -0.185017 -1.561498 0
M  V30 10 N 4.152269 -0.506416 -2.127525 0
M  V30 11 C 0.933490 0.466959 -1.658219 0
M  V30 12 N 0.999354 0.357150 -3.073864 0
M  V30 13 O -0.243739 0.853720 -1.034873 0
M  V30 14 C -0.306708 0.960839 0.321269 0
M  V30 15 C 0.763721 0.702036 1.161545 0
M  V30 16 C 0.741568 0.806334 2.536897 0
M  V30 17 C -0.327913 0.752928 3.408208 0
M  V30 18 C -1.603536 1.204716 3.136389 0
M  V30 19 O -2.316051 1.393056 4.161941 0
M  V30 20 C -2.192316 1.472827 1.915829 0
M  V30 21 C -3.488998 1.905358 1.732572 0
M  V30 22 C -4.484207 2.159677 2.820082 0
M  V30 23 O -3.692589 2.053028 0.442292 0
M  V30 24 C -2.607505 1.743243 -0.229757 0
M  V30 25 C -2.453080 1.786070 -1.698760 0
M  V30 26 C -1.608307 1.363363 0.646853 0
M  V30 27 C 1.765186 -2.179185 0.310278 0
M  V30 28 C 1.871334 -3.526560 0.587442 0
M  V30 29 H 2.032818 -7.691258 1.289948 0
M  V30 30 H 0.890103 -6.316955 0.969611 0
M  V30 31 H 2.367554 -6.520273 -0.026827 0
M  V30 32 H 3.689055 -3.109239 3.410851 0
M  V30 33 H 3.413608 -0.723470 2.779602 0
M  V30 34 H 2.897125 0.904330 0.953330 0
M  V30 35 H 1.367598 1.164463 -3.660550 0
M  V30 36 H 0.758509 -0.379026 -3.759405 0
M  V30 37 H 1.718788 0.950489 2.968117 0
M  V30 38 H -0.108419 0.320059 4.359349 0
M  V30 39 H -4.559637 1.281526 3.526281 0
M  V30 40 H -4.240993 3.057171 3.424521 0
M  V30 41 H -5.524993 2.209764 2.385524 0
M  V30 42 H -1.641828 2.504449 -1.937649 0
M  V30 43 H -2.292057 0.772824 -2.155083 0
M  V30 44 H -3.368356 2.180015 -2.186391 0
M  V30 45 H 1.207929 -1.904042 -0.588280 0
M  V30 46 H 1.423744 -4.269224 -0.055765 0
M  V30 END ATOM
M  V30 BEGIN BOND
M  V30 1 1 1 2
M  V30 2 1 2 3
M  V30 3 2 3 4
M  V30 4 1 4 5
M  V30 5 2 5 6
M  V30 6 1 6 7
M  V30 7 1 7 8
M  V30 8 1 8 9
M  V30 9 3 9 10
M  V30 10 2 8 11
M  V30 11 1 11 12
M  V30 12 1 11 13
M  V30 13 1 13 14
M  V30 14 2 14 15
M  V30 15 1 15 16
M  V30 16 2 16 17
M  V30 17 1 17 18
M  V30 18 2 18 19
M  V30 19 1 18 20
M  V30 20 2 20 21
M  V30 21 1 21 22
M  V30 22 1 21 23
M  V30 23 1 23 24
M  V30 24 1 24 25
M  V30 25 2 24 26
M  V30 26 1 6 27
M  V30 27 2 27 28
M  V30 28 1 28 3
M  V30 29 1 15 7
M  V30 30 1 26 20
M  V30 31 1 26 14
M  V30 32 1 1 29
M  V30 33 1 1 30
M  V30 34 1 1 31
M  V30 35 1 4 32
M  V30 36 1 5 33
M  V30 37 1 7 34
M  V30 38 1 12 35
M  V30 39 1 12 36
M  V30 40 1 16 37
M  V30 41 1 17 38
M  V30 42 1 22 39
M  V30 43 1 22 40
M  V30 44 1 22 41
M  V30 45 1 25 42
M  V30 46 1 25 43
M  V30 47 1 25 44
M  V30 48 1 27 45
M  V30 49 1 28 46
M  V30 END BOND
M  V30 END CTAB
M  END
>  <Dataset>  (114) 
ChEMBL_Kinases

>  <Ligand_Instance>  (114) 
nan

>  <PDB_ID>  (114) 
nan

>  <Standardized_SMILES>  (114) 
CSc1ccc(C2C(C#N)=C(N)Oc3c2ccc(=O)c2c(C)oc(C)c32)cc1

>  <Name>  (114) 
nan

>  <Pocket>  (114) 
nan

>  <ATP_Site>  (114) 
nan

>  <Peripheral>  (114) 
nan

>  <Num_H_Atoms_ProtBoundConf>  (114) 
nan

>  <Num_Resolved_Atoms>  (114) 
nan

>  <Num_Not_Resolved_Atoms>  (114) 
nan

$$$$
CHEMBL1299416
     RDKit          3D

  0  0  0  0  0  0  0  0  0  0999 V3000
M  V30 BEGIN CTAB
M  V30 COUNTS 45 48 0 0 0
M  V30 BEGIN ATOM
M  V30 1 C 4.031355 -3.102065 -1.009373 0
M  V30 2 O 3.970877 -1.683047 -1.098183 0
M  V30 3 C 4.658671 -0.967943 -0.132879 0
M  V30 4 C 5.395512 -1.479034 0.897708 0
M  V30 5 C 6.057936 -0.726720 1.827894 0
M  V30 6 C 5.987333 0.666315 1.732401 0
M  V30 7 C 5.251472 1.193791 0.702973 0
M  V30 8 C 4.590512 0.401879 -0.224612 0
M  V30 9 C 3.863828 1.201685 -1.238949 0
M  V30 10 C 2.409822 1.150208 -0.929284 0
M  V30 11 O 1.932306 -0.038578 -1.016217 0
M  V30 12 N 1.459282 2.116162 -0.565523 0
M  V30 13 C 0.176437 1.533174 -0.384913 0
M  V30 14 C -0.041469 1.021228 0.896671 0
M  V30 15 C -1.268930 0.443830 1.153689 0
M  V30 16 C -2.237475 0.379862 0.173761 0
M  V30 17 C -3.504386 -0.256041 0.547689 0
M  V30 18 N -4.617137 -0.443830 -0.210318 0
M  V30 19 N -5.535419 -1.059695 0.513652 0
M  V30 20 C -5.020594 -1.271020 1.738670 0
M  V30 21 C -5.647805 -1.915033 2.889982 0
M  V30 22 C -6.900651 -2.437010 2.925522 0
M  V30 23 C -7.172569 -2.973595 4.186251 0
M  V30 24 C -5.977880 -2.715925 4.863724 0
M  V30 25 O -5.131708 -2.101367 4.064716 0
M  V30 26 O -3.806231 -0.774647 1.712539 0
M  V30 27 C -2.050471 0.875580 -1.096895 0
M  V30 28 C -0.817868 1.448715 -1.335213 0
M  V30 29 H 3.412720 -3.445113 -0.129284 0
M  V30 30 H 5.084832 -3.374539 -0.859056 0
M  V30 31 H 3.649993 -3.580452 -1.941616 0
M  V30 32 H 5.450347 -2.556738 0.973114 0
M  V30 33 H 6.636264 -1.196760 2.638047 0
M  V30 34 H 6.531364 1.213942 2.495581 0
M  V30 35 H 5.258055 2.278962 0.713742 0
M  V30 36 H 4.270242 2.190314 -1.407083 0
M  V30 37 H 3.993153 0.629477 -2.206670 0
M  V30 38 H 1.927419 3.075032 -0.508348 0
M  V30 39 H 0.694756 1.056495 1.679043 0
M  V30 40 H -1.452999 0.035375 2.155857 0
M  V30 41 H -7.681555 -2.493143 2.149023 0
M  V30 42 H -8.000671 -3.472567 4.664306 0
M  V30 43 H -5.637658 -2.917143 5.869179 0
M  V30 44 H -2.808838 0.826086 -1.863292 0
M  V30 45 H -0.553344 1.870887 -2.287881 0
M  V30 END ATOM
M  V30 BEGIN BOND
M  V30 1 1 1 2
M  V30 2 1 2 3
M  V30 3 2 3 4
M  V30 4 1 4 5
M  V30 5 2 5 6
M  V30 6 1 6 7
M  V30 7 2 7 8
M  V30 8 1 8 9
M  V30 9 1 9 10
M  V30 10 2 10 11
M  V30 11 1 10 12
M  V30 12 1 12 13
M  V30 13 2 13 14
M  V30 14 1 14 15
M  V30 15 2 15 16
M  V30 16 1 16 17
M  V30 17 2 17 18
M  V30 18 1 18 19
M  V30 19 2 19 20
M  V30 20 1 20 21
M  V30 21 2 21 22
M  V30 22 1 22 23
M  V30 23 2 23 24
M  V30 24 1 24 25
M  V30 25 1 20 26
M  V30 26 1 16 27
M  V30 27 2 27 28
M  V30 28 1 8 3
M  V30 29 1 28 13
M  V30 30 1 26 17
M  V30 31 1 25 21
M  V30 32 1 1 29
M  V30 33 1 1 30
M  V30 34 1 1 31
M  V30 35 1 4 32
M  V30 36 1 5 33
M  V30 37 1 6 34
M  V30 38 1 7 35
M  V30 39 1 9 36
M  V30 40 1 9 37
M  V30 41 1 12 38
M  V30 42 1 14 39
M  V30 43 1 15 40
M  V30 44 1 22 41
M  V30 45 1 23 42
M  V30 46 1 24 43
M  V30 47 1 27 44
M  V30 48 1 28 45
M  V30 END BOND
M  V30 END CTAB
M  END
>  <Dataset>  (115) 
ChEMBL_Kinases

>  <Ligand_Instance>  (115) 
nan

>  <PDB_ID>  (115) 
nan

>  <Standardized_SMILES>  (115) 
COc1ccccc1CC(=O)Nc1ccc(-c2nnc(-c3ccco3)o2)cc1

>  <Name>  (115) 
nan

>  <Pocket>  (115) 
nan

>  <ATP_Site>  (115) 
nan

>  <Peripheral>  (115) 
nan

>  <Num_H_Atoms_ProtBoundConf>  (115) 
nan

>  <Num_Resolved_Atoms>  (115) 
nan

>  <Num_Not_Resolved_Atoms>  (115) 
nan

$$$$
CHEMBL1299486
     RDKit          3D

  0  0  0  0  0  0  0  0  0  0999 V3000
M  V30 BEGIN CTAB
M  V30 COUNTS 35 37 0 0 0
M  V30 BEGIN ATOM
M  V30 1 C 0.403685 -3.885494 0.039663 0
M  V30 2 O 1.723520 -3.696272 -0.219593 0
M  V30 3 C 2.197035 -2.408712 -0.273033 0
M  V30 4 C 1.983606 -1.652193 0.980999 0
M  V30 5 N 2.935153 -1.596514 1.950181 0
M  V30 6 N 2.494604 -0.897346 2.980434 0
M  V30 7 C 1.257034 -0.512300 2.650775 0
M  V30 8 C 0.858644 -0.953289 1.392075 0
M  V30 9 C -0.451052 -0.614792 0.860330 0
M  V30 10 C -0.387199 0.277341 -0.356677 0
M  V30 11 C -0.660271 -0.201912 -1.638927 0
M  V30 12 C -0.592615 0.632889 -2.743463 0
M  V30 13 C -0.244635 1.977753 -2.571404 0
M  V30 14 F -0.191463 2.759411 -3.687162 0
M  V30 15 C 0.035836 2.500641 -1.310510 0
M  V30 16 C -0.054521 1.608546 -0.275991 0
M  V30 17 F 0.216860 2.118273 0.970774 0
M  V30 18 C -1.137403 0.209849 1.930777 0
M  V30 19 C -2.479447 0.611341 1.508834 0
M  V30 20 N -3.560220 0.942002 1.175404 0
M  V30 21 C -0.820542 0.654188 3.135401 0
M  V30 22 N -1.600177 1.446486 4.049536 0
M  V30 23 O 0.466929 0.253556 3.494238 0
M  V30 24 H 0.118080 -3.449453 1.045039 0
M  V30 25 H 0.125609 -4.973272 0.124707 0
M  V30 26 H -0.287950 -3.439552 -0.701744 0
M  V30 27 H 1.751388 -1.829531 -1.123833 0
M  V30 28 H 3.308158 -2.492845 -0.465209 0
M  V30 29 H 3.093951 -0.760767 3.800963 0
M  V30 30 H -1.038561 -1.485596 0.612936 0
M  V30 31 H -0.928027 -1.268066 -1.720255 0
M  V30 32 H -0.812627 0.233398 -3.743016 0
M  V30 33 H 0.303479 3.539046 -1.179265 0
M  V30 34 H -2.101644 0.812486 4.707172 0
M  V30 35 H -2.031053 0.669246 4.629137 0
M  V30 END ATOM
M  V30 BEGIN BOND
M  V30 1 1 1 2
M  V30 2 1 2 3
M  V30 3 1 3 4
M  V30 4 2 4 5
M  V30 5 1 5 6
M  V30 6 1 6 7
M  V30 7 2 7 8
M  V30 8 1 8 9
M  V30 9 1 9 10
M  V30 10 2 10 11
M  V30 11 1 11 12
M  V30 12 2 12 13
M  V30 13 1 13 14
M  V30 14 1 13 15
M  V30 15 2 15 16
M  V30 16 1 16 17
M  V30 17 1 9 18
M  V30 18 1 18 19
M  V30 19 3 19 20
M  V30 20 2 18 21
M  V30 21 1 21 22
M  V30 22 1 21 23
M  V30 23 1 8 4
M  V30 24 1 16 10
M  V30 25 1 23 7
M  V30 26 1 1 24
M  V30 27 1 1 25
M  V30 28 1 1 26
M  V30 29 1 3 27
M  V30 30 1 3 28
M  V30 31 1 6 29
M  V30 32 1 9 30
M  V30 33 1 11 31
M  V30 34 1 12 32
M  V30 35 1 15 33
M  V30 36 1 22 34
M  V30 37 1 22 35
M  V30 END BOND
M  V30 END CTAB
M  END
>  <Dataset>  (116) 
ChEMBL_Kinases

>  <Ligand_Instance>  (116) 
nan

>  <PDB_ID>  (116) 
nan

>  <Standardized_SMILES>  (116) 
COCc1n[nH]c2c1C(c1ccc(F)cc1F)C(C#N)=C(N)O2

>  <Name>  (116) 
nan

>  <Pocket>  (116) 
nan

>  <ATP_Site>  (116) 
nan

>  <Peripheral>  (116) 
nan

>  <Num_H_Atoms_ProtBoundConf>  (116) 
nan

>  <Num_Resolved_Atoms>  (116) 
nan

>  <Num_Not_Resolved_Atoms>  (116) 
nan

$$$$
CHEMBL1299529
     RDKit          3D

  0  0  0  0  0  0  0  0  0  0999 V3000
M  V30 BEGIN CTAB
M  V30 COUNTS 58 62 0 0 0
M  V30 BEGIN ATOM
M  V30 1 C 7.350319 -3.037511 2.404364 0
M  V30 2 C 6.368309 -4.010271 3.009812 0
M  V30 3 O 5.193759 -4.014654 2.229192 0
M  V30 4 C 4.401778 -2.903697 2.025645 0
M  V30 5 C 4.598758 -1.636582 2.530755 0
M  V30 6 C 3.779257 -0.551057 2.300767 0
M  V30 7 C 2.676748 -0.760667 1.499846 0
M  V30 8 C 1.770314 0.350415 1.219520 0
M  V30 9 C 0.629978 0.305656 0.442234 0
M  V30 10 C 0.101820 1.594705 0.467883 0
M  V30 11 N -1.082934 2.111801 -0.173611 0
M  V30 12 C -1.317018 2.707153 -1.449084 0
M  V30 13 O -0.267897 2.800654 -2.165855 0
M  V30 14 C -2.718627 3.112565 -1.727233 0
M  V30 15 N -3.632411 2.840462 -0.653045 0
M  V30 16 N -3.951802 3.810278 0.202235 0
M  V30 17 C -4.839286 3.443881 1.109991 0
M  V30 18 C -5.134362 2.126062 0.839424 0
M  V30 19 C -4.363570 1.798847 -0.256030 0
M  V30 20 C -4.477426 0.465620 -0.742493 0
M  V30 21 C -3.705886 0.082221 -1.801960 0
M  V30 22 C -3.785682 -1.215263 -2.261027 0
M  V30 23 C -4.653118 -2.092274 -1.624713 0
M  V30 24 C -5.441373 -1.726234 -0.551800 0
M  V30 25 C -5.329743 -0.419422 -0.126576 0
M  V30 26 O -6.112368 -0.024008 0.952232 0
M  V30 27 C -6.063601 1.235661 1.545545 0
M  V30 28 O 0.901177 2.338572 1.222448 0
M  V30 29 N 1.886232 1.614584 1.669323 0
M  V30 30 C 2.415687 -2.003062 0.959306 0
M  V30 31 C 3.272433 -3.076533 1.217676 0
M  V30 32 O 3.017027 -4.325952 0.678549 0
M  V30 33 C 1.925368 -4.611988 -0.140467 0
M  V30 34 C 1.860503 -3.824039 -1.416342 0
M  V30 35 H 7.707603 -2.300133 3.149995 0
M  V30 36 H 6.932387 -2.462616 1.548837 0
M  V30 37 H 8.289575 -3.573771 2.067960 0
M  V30 38 H 6.792900 -5.020474 3.137861 0
M  V30 39 H 6.060153 -3.574348 4.006093 0
M  V30 40 H 5.464381 -1.488420 3.159260 0
M  V30 41 H 4.029851 0.403849 2.749535 0
M  V30 42 H 0.202804 -0.513497 -0.085326 0
M  V30 43 H -1.843639 1.961416 0.538011 0
M  V30 44 H -3.053303 2.652215 -2.660726 0
M  V30 45 H -2.721925 4.247577 -1.923992 0
M  V30 46 H -5.249604 4.059466 1.905256 0
M  V30 47 H -2.989147 0.602900 -2.383870 0
M  V30 48 H -3.240014 -1.672286 -3.090331 0
M  V30 49 H -4.760453 -3.119658 -1.937370 0
M  V30 50 H -6.109892 -2.384470 -0.053411 0
M  V30 51 H -5.761231 1.074188 2.621145 0
M  V30 52 H -7.091672 1.650129 1.620163 0
M  V30 53 H 1.535097 -2.101379 0.341425 0
M  V30 54 H 1.780118 -5.697499 -0.314760 0
M  V30 55 H 1.012564 -4.308889 0.453465 0
M  V30 56 H 1.986200 -4.557471 -2.259714 0
M  V30 57 H 2.636386 -3.070670 -1.549995 0
M  V30 58 H 0.863109 -3.349932 -1.588757 0
M  V30 END ATOM
M  V30 BEGIN BOND
M  V30 1 1 1 2
M  V30 2 1 2 3
M  V30 3 1 3 4
M  V30 4 2 4 5
M  V30 5 1 5 6
M  V30 6 2 6 7
M  V30 7 1 7 8
M  V30 8 1 8 9
M  V30 9 2 9 10
M  V30 10 1 10 11
M  V30 11 1 11 12
M  V30 12 2 12 13
M  V30 13 1 12 14
M  V30 14 1 14 15
M  V30 15 1 15 16
M  V30 16 2 16 17
M  V30 17 1 17 18
M  V30 18 2 18 19
M  V30 19 1 19 20
M  V30 20 2 20 21
M  V30 21 1 21 22
M  V30 22 2 22 23
M  V30 23 1 23 24
M  V30 24 2 24 25
M  V30 25 1 25 26
M  V30 26 1 26 27
M  V30 27 1 10 28
M  V30 28 1 28 29
M  V30 29 1 7 30
M  V30 30 2 30 31
M  V30 31 1 31 32
M  V30 32 1 32 33
M  V30 33 1 33 34
M  V30 34 1 31 4
M  V30 35 2 29 8
M  V30 36 1 19 15
M  V30 37 1 25 20
M  V30 38 1 27 18
M  V30 39 1 1 35
M  V30 40 1 1 36
M  V30 41 1 1 37
M  V30 42 1 2 38
M  V30 43 1 2 39
M  V30 44 1 5 40
M  V30 45 1 6 41
M  V30 46 1 9 42
M  V30 47 1 11 43
M  V30 48 1 14 44
M  V30 49 1 14 45
M  V30 50 1 17 46
M  V30 51 1 21 47
M  V30 52 1 22 48
M  V30 53 1 23 49
M  V30 54 1 24 50
M  V30 55 1 27 51
M  V30 56 1 27 52
M  V30 57 1 30 53
M  V30 58 1 33 54
M  V30 59 1 33 55
M  V30 60 1 34 56
M  V30 61 1 34 57
M  V30 62 1 34 58
M  V30 END BOND
M  V30 END CTAB
M  END
>  <Dataset>  (117) 
ChEMBL_Kinases

>  <Ligand_Instance>  (117) 
nan

>  <PDB_ID>  (117) 
nan

>  <Standardized_SMILES>  (117) 
CCOc1ccc(-c2cc(NC(=O)Cn3ncc4c3-c3ccccc3OC4)on2)cc1OCC

>  <Name>  (117) 
nan

>  <Pocket>  (117) 
nan

>  <ATP_Site>  (117) 
nan

>  <Peripheral>  (117) 
nan

>  <Num_H_Atoms_ProtBoundConf>  (117) 
nan

>  <Num_Resolved_Atoms>  (117) 
nan

>  <Num_Not_Resolved_Atoms>  (117) 
nan

$$$$
CHEMBL1299536
     RDKit          3D

  0  0  0  0  0  0  0  0  0  0999 V3000
M  V30 BEGIN CTAB
M  V30 COUNTS 40 42 0 0 0
M  V30 BEGIN ATOM
M  V30 1 C -3.888100 -0.507214 0.984897 0
M  V30 2 C -3.253343 -1.521612 0.262436 0
M  V30 3 C -2.010054 -2.000245 0.618458 0
M  V30 4 C -1.360903 -1.463397 1.729103 0
M  V30 5 C -0.123157 -1.821337 2.221779 0
M  V30 6 C 0.814064 -2.861523 1.796629 0
M  V30 7 C 1.529976 -2.738956 0.512484 0
M  V30 8 N 2.386151 -1.725179 0.152932 0
M  V30 9 C 2.095380 -0.422435 -0.169229 0
M  V30 10 C 0.941953 -0.139284 -1.107037 0
M  V30 11 C 1.233427 1.209392 -1.765863 0
M  V30 12 C 1.329233 2.257473 -0.710091 0
M  V30 13 C 2.367802 1.985140 0.347336 0
M  V30 14 C 2.159273 0.569149 0.927209 0
M  V30 15 C 0.022487 -0.967987 3.332319 0
M  V30 16 N -1.075717 -0.197413 3.427168 0
M  V30 17 C -1.972082 -0.456799 2.460787 0
M  V30 18 C -3.216504 0.003935 2.082103 0
M  V30 19 H -4.861499 -0.120218 0.719851 0
M  V30 20 H -3.807275 -1.901719 -0.593608 0
M  V30 21 H -1.599890 -2.783769 -0.001668 0
M  V30 22 H 0.251946 -3.852235 1.853089 0
M  V30 23 H 1.594112 -2.980970 2.603311 0
M  V30 24 H 0.771992 -2.986255 -0.326661 0
M  V30 25 H 2.164077 -3.714249 0.452527 0
M  V30 26 H 3.419420 -1.965202 0.206142 0
M  V30 27 H 3.013270 -0.090085 -0.858139 0
M  V30 28 H 0.845690 -0.891664 -1.882903 0
M  V30 29 H 0.054146 0.029549 -0.497621 0
M  V30 30 H 0.351291 1.450588 -2.394575 0
M  V30 31 H 2.170463 1.157911 -2.355229 0
M  V30 32 H 1.610979 3.219152 -1.198433 0
M  V30 33 H 0.346473 2.381205 -0.211823 0
M  V30 34 H 2.177353 2.668250 1.195024 0
M  V30 35 H 3.385789 2.050252 -0.025557 0
M  V30 36 H 3.005424 0.369630 1.582319 0
M  V30 37 H 1.230659 0.609487 1.502103 0
M  V30 38 H 0.907753 -0.999480 3.947774 0
M  V30 39 H -1.201602 0.516527 4.175718 0
M  V30 40 H -3.606980 0.783140 2.710767 0
M  V30 END ATOM
M  V30 BEGIN BOND
M  V30 1 2 1 2
M  V30 2 1 2 3
M  V30 3 2 3 4
M  V30 4 1 4 5
M  V30 5 1 5 6
M  V30 6 1 6 7
M  V30 7 1 7 8
M  V30 8 1 8 9
M  V30 9 1 9 10
M  V30 10 1 10 11
M  V30 11 1 11 12
M  V30 12 1 12 13
M  V30 13 1 13 14
M  V30 14 2 5 15
M  V30 15 1 15 16
M  V30 16 1 16 17
M  V30 17 2 17 18
M  V30 18 1 18 1
M  V30 19 1 17 4
M  V30 20 1 14 9
M  V30 21 1 1 19
M  V30 22 1 2 20
M  V30 23 1 3 21
M  V30 24 1 6 22
M  V30 25 1 6 23
M  V30 26 1 7 24
M  V30 27 1 7 25
M  V30 28 1 8 26
M  V30 29 1 9 27
M  V30 30 1 10 28
M  V30 31 1 10 29
M  V30 32 1 11 30
M  V30 33 1 11 31
M  V30 34 1 12 32
M  V30 35 1 12 33
M  V30 36 1 13 34
M  V30 37 1 13 35
M  V30 38 1 14 36
M  V30 39 1 14 37
M  V30 40 1 15 38
M  V30 41 1 16 39
M  V30 42 1 18 40
M  V30 END BOND
M  V30 END CTAB
M  END
>  <Dataset>  (118) 
ChEMBL_Kinases

>  <Ligand_Instance>  (118) 
nan

>  <PDB_ID>  (118) 
nan

>  <Standardized_SMILES>  (118) 
c1ccc2c(CCNC3CCCCC3)c[nH]c2c1

>  <Name>  (118) 
nan

>  <Pocket>  (118) 
nan

>  <ATP_Site>  (118) 
nan

>  <Peripheral>  (118) 
nan

>  <Num_H_Atoms_ProtBoundConf>  (118) 
nan

>  <Num_Resolved_Atoms>  (118) 
nan

>  <Num_Not_Resolved_Atoms>  (118) 
nan

$$$$
CHEMBL1299666
     RDKit          3D

  0  0  0  0  0  0  0  0  0  0999 V3000
M  V30 BEGIN CTAB
M  V30 COUNTS 44 47 0 0 0
M  V30 BEGIN ATOM
M  V30 1 C -2.497843 -3.951971 2.323642 0
M  V30 2 C -2.349933 -2.978401 1.205511 0
M  V30 3 C -3.436481 -2.437438 0.559788 0
M  V30 4 C -3.239989 -1.531992 -0.478810 0
M  V30 5 C -1.964563 -1.139633 -0.903918 0
M  V30 6 O -2.069311 -0.252489 -1.928313 0
M  V30 7 C -1.080460 0.395230 -2.648968 0
M  V30 8 C -0.183452 1.271063 -1.869247 0
M  V30 9 N -0.531007 2.581268 -1.695157 0
M  V30 10 C 0.387234 3.207261 -0.976070 0
M  V30 11 C 0.354975 4.579696 -0.599089 0
M  V30 12 N 0.312317 5.703386 -0.277443 0
M  V30 13 C 1.342942 2.264043 -0.687561 0
M  V30 14 N 2.503291 2.538653 0.071587 0
M  V30 15 C 2.678568 2.460591 1.506231 0
M  V30 16 C 2.406311 1.062304 1.924341 0
M  V30 17 C 1.170786 0.617715 2.288668 0
M  V30 18 C 1.040357 -0.690151 2.656237 0
M  V30 19 C 2.119911 -1.557610 2.665624 0
M  V30 20 C 3.365989 -1.093727 2.294078 0
M  V30 21 C 3.509838 0.204417 1.926395 0
M  V30 22 O 4.243290 -2.166715 2.397732 0
M  V30 23 C 3.471182 -3.367950 2.445859 0
M  V30 24 O 2.238034 -2.912057 2.995371 0
M  V30 25 O 0.938043 1.162433 -1.242653 0
M  V30 26 C -0.898932 -1.699319 -0.237197 0
M  V30 27 C -1.078792 -2.594439 0.789895 0
M  V30 28 H -3.252803 -4.711268 2.021461 0
M  V30 29 H -2.827318 -3.357309 3.207404 0
M  V30 30 H -1.508500 -4.372393 2.567309 0
M  V30 31 H -4.378526 -2.770464 0.923511 0
M  V30 32 H -4.205782 -1.201840 -0.879270 0
M  V30 33 H -1.612766 0.965761 -3.465346 0
M  V30 34 H -0.434890 -0.320691 -3.242317 0
M  V30 35 H 3.272916 2.822585 -0.549098 0
M  V30 36 H 3.702744 2.746947 1.785801 0
M  V30 37 H 1.949105 3.140705 2.008743 0
M  V30 38 H 0.319673 1.305539 2.280156 0
M  V30 39 H 0.036602 -1.008954 2.941976 0
M  V30 40 H 4.504151 0.534797 1.640375 0
M  V30 41 H 3.286236 -3.683624 1.406253 0
M  V30 42 H 3.941847 -4.106378 3.096583 0
M  V30 43 H 0.041307 -1.343155 -0.630975 0
M  V30 44 H -0.188415 -2.985244 1.258490 0
M  V30 END ATOM
M  V30 BEGIN BOND
M  V30 1 1 1 2
M  V30 2 2 2 3
M  V30 3 1 3 4
M  V30 4 2 4 5
M  V30 5 1 5 6
M  V30 6 1 6 7
M  V30 7 1 7 8
M  V30 8 2 8 9
M  V30 9 1 9 10
M  V30 10 1 10 11
M  V30 11 3 11 12
M  V30 12 2 10 13
M  V30 13 1 13 14
M  V30 14 1 14 15
M  V30 15 1 15 16
M  V30 16 2 16 17
M  V30 17 1 17 18
M  V30 18 2 18 19
M  V30 19 1 19 20
M  V30 20 2 20 21
M  V30 21 1 20 22
M  V30 22 1 22 23
M  V30 23 1 23 24
M  V30 24 1 13 25
M  V30 25 1 5 26
M  V30 26 2 26 27
M  V30 27 1 27 2
M  V30 28 1 25 8
M  V30 29 1 21 16
M  V30 30 1 24 19
M  V30 31 1 1 28
M  V30 32 1 1 29
M  V30 33 1 1 30
M  V30 34 1 3 31
M  V30 35 1 4 32
M  V30 36 1 7 33
M  V30 37 1 7 34
M  V30 38 1 14 35
M  V30 39 1 15 36
M  V30 40 1 15 37
M  V30 41 1 17 38
M  V30 42 1 18 39
M  V30 43 1 21 40
M  V30 44 1 23 41
M  V30 45 1 23 42
M  V30 46 1 26 43
M  V30 47 1 27 44
M  V30 END BOND
M  V30 END CTAB
M  END
>  <Dataset>  (119) 
ChEMBL_Kinases

>  <Ligand_Instance>  (119) 
nan

>  <PDB_ID>  (119) 
nan

>  <Standardized_SMILES>  (119) 
Cc1ccc(OCc2nc(C#N)c(NCc3ccc4c(c3)OCO4)o2)cc1

>  <Name>  (119) 
nan

>  <Pocket>  (119) 
nan

>  <ATP_Site>  (119) 
nan

>  <Peripheral>  (119) 
nan

>  <Num_H_Atoms_ProtBoundConf>  (119) 
nan

>  <Num_Resolved_Atoms>  (119) 
nan

>  <Num_Not_Resolved_Atoms>  (119) 
nan

$$$$
CHEMBL1300891
     RDKit          3D

  0  0  0  0  0  0  0  0  0  0999 V3000
M  V30 BEGIN CTAB
M  V30 COUNTS 28 29 0 0 0
M  V30 BEGIN ATOM
M  V30 1 C -0.971885 -4.314680 2.257046 0
M  V30 2 C 0.184822 -3.847629 3.061860 0
M  V30 3 O 0.602951 -4.560234 4.010990 0
M  V30 4 C 0.843471 -2.579289 2.771601 0
M  V30 5 C 1.915625 -2.175617 3.539449 0
M  V30 6 C 2.481344 -0.982003 3.212305 0
M  V30 7 C 2.003234 -0.238828 2.180488 0
M  V30 8 C 0.938239 -0.602010 1.389542 0
M  V30 9 N 0.384229 0.113426 0.302765 0
M  V30 10 C 0.771618 1.353648 -0.236978 0
M  V30 11 O 1.741195 1.962666 0.275241 0
M  V30 12 C 0.105989 1.981615 -1.369738 0
M  V30 13 C -0.983874 1.432691 -2.046698 0
M  V30 14 C -1.350058 2.303987 -3.062541 0
M  V30 15 C -0.445249 3.348951 -2.940562 0
M  V30 16 O 0.369530 3.104600 -1.945535 0
M  V30 17 C 0.372688 -1.811727 1.728880 0
M  V30 18 H -0.586217 -4.613419 1.250191 0
M  V30 19 H -1.466344 -5.161959 2.759872 0
M  V30 20 H -1.729001 -3.525258 2.078131 0
M  V30 21 H 2.222416 -2.832383 4.335884 0
M  V30 22 H 3.325584 -0.649394 3.805910 0
M  V30 23 H 2.495898 0.680282 1.985454 0
M  V30 24 H -0.431197 -0.293056 -0.206961 0
M  V30 25 H -1.475586 0.475844 -1.822519 0
M  V30 26 H -2.162685 2.159729 -3.765203 0
M  V30 27 H -0.467484 4.212054 -3.607286 0
M  V30 28 H -0.483646 -2.194992 1.161026 0
M  V30 END ATOM
M  V30 BEGIN BOND
M  V30 1 1 1 2
M  V30 2 2 2 3
M  V30 3 1 2 4
M  V30 4 2 4 5
M  V30 5 1 5 6
M  V30 6 2 6 7
M  V30 7 1 7 8
M  V30 8 1 8 9
M  V30 9 1 9 10
M  V30 10 2 10 11
M  V30 11 1 10 12
M  V30 12 2 12 13
M  V30 13 1 13 14
M  V30 14 2 14 15
M  V30 15 1 15 16
M  V30 16 2 8 17
M  V30 17 1 17 4
M  V30 18 1 16 12
M  V30 19 1 1 18
M  V30 20 1 1 19
M  V30 21 1 1 20
M  V30 22 1 5 21
M  V30 23 1 6 22
M  V30 24 1 7 23
M  V30 25 1 9 24
M  V30 26 1 13 25
M  V30 27 1 14 26
M  V30 28 1 15 27
M  V30 29 1 17 28
M  V30 END BOND
M  V30 END CTAB
M  END
>  <Dataset>  (120) 
ChEMBL_Kinases

>  <Ligand_Instance>  (120) 
nan

>  <PDB_ID>  (120) 
nan

>  <Standardized_SMILES>  (120) 
CC(=O)c1cccc(NC(=O)c2ccco2)c1

>  <Name>  (120) 
nan

>  <Pocket>  (120) 
nan

>  <ATP_Site>  (120) 
nan

>  <Peripheral>  (120) 
nan

>  <Num_H_Atoms_ProtBoundConf>  (120) 
nan

>  <Num_Resolved_Atoms>  (120) 
nan

>  <Num_Not_Resolved_Atoms>  (120) 
nan

$$$$
CHEMBL129981
     RDKit          3D

  0  0  0  0  0  0  0  0  0  0999 V3000
M  V30 BEGIN CTAB
M  V30 COUNTS 61 66 0 0 0
M  V30 BEGIN ATOM
M  V30 1 O 2.281482 -5.001452 3.382335 0
M  V30 2 S 1.226880 -4.398334 2.462470 0
M  V30 3 O -0.041187 -4.161844 3.254367 0
M  V30 4 C 1.810636 -2.825384 1.994064 0
M  V30 5 C 3.169492 -2.533147 1.839685 0
M  V30 6 C 3.596956 -1.262100 1.474575 0
M  V30 7 C 2.718901 -0.224965 1.244675 0
M  V30 8 C 3.137748 1.119155 0.869903 0
M  V30 9 C 4.442712 1.514963 0.717251 0
M  V30 10 C 4.698456 2.829417 0.368880 0
M  V30 11 N 3.701695 3.738878 0.172017 0
M  V30 12 C 2.413223 3.330704 0.325772 0
M  V30 13 N 1.272182 4.207583 0.177327 0
M  V30 14 C -0.052536 3.649352 0.179879 0
M  V30 15 C -1.190452 4.245450 0.665046 0
M  V30 16 C -2.396376 3.563726 0.577171 0
M  V30 17 C -2.530935 2.298410 0.022520 0
M  V30 18 C -3.804374 1.606280 -0.036965 0
M  V30 19 C -5.080013 2.095473 -0.178633 0
M  V30 20 C -6.202105 1.307644 -0.196806 0
M  V30 21 C -6.125309 -0.062870 -0.071064 0
M  V30 22 N -7.140424 -0.901472 -0.074753 0
M  V30 23 C -7.037692 -2.107477 0.040463 0
M  V30 24 S -5.139140 -2.369109 0.210616 0
M  V30 25 C -4.802434 -0.553569 0.074409 0
M  V30 26 C -3.651575 0.245156 0.093491 0
M  V30 27 C -1.361288 1.726283 -0.460232 0
M  V30 28 C -0.159449 2.396726 -0.377542 0
M  V30 29 N 2.213013 2.058788 0.662170 0
M  V30 30 C 1.385708 -0.524295 1.399383 0
M  V30 31 C 0.930871 -1.776636 1.760730 0
M  V30 32 N 0.935198 -5.436180 1.122377 0
M  V30 33 C -0.053719 -4.883001 0.293159 0
M  V30 34 C 0.361364 -4.383095 -1.053218 0
M  V30 35 N 1.487379 -5.026369 -1.594514 0
M  V30 36 C 2.560478 -5.365721 -0.748189 0
M  V30 37 C 2.147367 -5.897016 0.593863 0
M  V30 38 H 3.854781 -3.347918 2.020327 0
M  V30 39 H 4.653963 -1.100713 1.371843 0
M  V30 40 H 5.225724 0.788377 0.874632 0
M  V30 41 H 5.714877 3.112040 0.254681 0
M  V30 42 H 1.500441 5.221275 0.074209 0
M  V30 43 H -1.074527 5.216217 1.086691 0
M  V30 44 H -3.291466 4.045973 0.964976 0
M  V30 45 H -5.098619 3.182472 -0.277217 0
M  V30 46 H -7.104556 1.869665 -0.315830 0
M  V30 47 H -7.557389 -3.042879 0.082379 0
M  V30 48 H -2.793834 -0.412735 0.217042 0
M  V30 49 H -1.525380 0.738563 -0.886575 0
M  V30 50 H 0.600296 1.752699 -0.842120 0
M  V30 51 H 0.591890 0.173278 1.260402 0
M  V30 52 H -0.110551 -2.026461 1.884359 0
M  V30 53 H -0.678439 -4.130433 0.843962 0
M  V30 54 H -0.798739 -5.710286 0.082976 0
M  V30 55 H 0.557578 -3.296494 -0.978494 0
M  V30 56 H -0.473624 -4.489254 -1.806757 0
M  V30 57 H 1.587394 -5.138292 -2.601389 0
M  V30 58 H 3.216628 -6.077836 -1.294533 0
M  V30 59 H 3.185372 -4.449309 -0.581384 0
M  V30 60 H 2.080161 -7.022460 0.490759 0
M  V30 61 H 2.987475 -5.756057 1.323809 0
M  V30 END ATOM
M  V30 BEGIN BOND
M  V30 1 2 1 2
M  V30 2 2 2 3
M  V30 3 1 2 4
M  V30 4 2 4 5
M  V30 5 1 5 6
M  V30 6 2 6 7
M  V30 7 1 7 8
M  V30 8 2 8 9
M  V30 9 1 9 10
M  V30 10 2 10 11
M  V30 11 1 11 12
M  V30 12 1 12 13
M  V30 13 1 13 14
M  V30 14 2 14 15
M  V30 15 1 15 16
M  V30 16 2 16 17
M  V30 17 1 17 18
M  V30 18 2 18 19
M  V30 19 1 19 20
M  V30 20 2 20 21
M  V30 21 1 21 22
M  V30 22 2 22 23
M  V30 23 1 23 24
M  V30 24 1 24 25
M  V30 25 2 25 26
M  V30 26 1 17 27
M  V30 27 2 27 28
M  V30 28 2 12 29
M  V30 29 1 7 30
M  V30 30 2 30 31
M  V30 31 1 2 32
M  V30 32 1 32 33
M  V30 33 1 33 34
M  V30 34 1 34 35
M  V30 35 1 35 36
M  V30 36 1 36 37
M  V30 37 1 31 4
M  V30 38 1 37 32
M  V30 39 1 29 8
M  V30 40 1 28 14
M  V30 41 1 26 18
M  V30 42 1 25 21
M  V30 43 1 5 38
M  V30 44 1 6 39
M  V30 45 1 9 40
M  V30 46 1 10 41
M  V30 47 1 13 42
M  V30 48 1 15 43
M  V30 49 1 16 44
M  V30 50 1 19 45
M  V30 51 1 20 46
M  V30 52 1 23 47
M  V30 53 1 26 48
M  V30 54 1 27 49
M  V30 55 1 28 50
M  V30 56 1 30 51
M  V30 57 1 31 52
M  V30 58 1 33 53
M  V30 59 1 33 54
M  V30 60 1 34 55
M  V30 61 1 34 56
M  V30 62 1 35 57
M  V30 63 1 36 58
M  V30 64 1 36 59
M  V30 65 1 37 60
M  V30 66 1 37 61
M  V30 END BOND
M  V30 END CTAB
M  END
>  <Dataset>  (121) 
ChEMBL_Kinases

>  <Ligand_Instance>  (121) 
nan

>  <PDB_ID>  (121) 
nan

>  <Standardized_SMILES>  (121) 
O=S(=O)(c1ccc(-c2ccnc(Nc3ccc(-c4ccc5ncsc5c4)cc3)n2)cc1)N1CCNCC1

>  <Name>  (121) 
nan

>  <Pocket>  (121) 
nan

>  <ATP_Site>  (121) 
nan

>  <Peripheral>  (121) 
nan

>  <Num_H_Atoms_ProtBoundConf>  (121) 
nan

>  <Num_Resolved_Atoms>  (121) 
nan

>  <Num_Not_Resolved_Atoms>  (121) 
nan

$$$$
CHEMBL1300104
     RDKit          3D

  0  0  0  0  0  0  0  0  0  0999 V3000
M  V30 BEGIN CTAB
M  V30 COUNTS 56 59 0 0 0
M  V30 BEGIN ATOM
M  V30 1 O 0.510331 -0.946002 3.363355 0
M  V30 2 C 0.914879 -0.034551 2.600128 0
M  V30 3 C 1.016065 1.254281 3.334624 0
M  V30 4 C 1.961712 2.171727 2.645066 0
M  V30 5 C 3.310655 2.220392 2.546971 0
M  V30 6 C 4.200142 1.257102 3.166318 0
M  V30 7 O 5.460228 1.362707 3.029453 0
M  V30 8 O 3.845235 0.161175 3.940258 0
M  V30 9 N 3.736913 3.257264 1.812371 0
M  V30 10 C 2.647917 3.922483 1.407542 0
M  V30 11 C 2.406218 5.044804 0.647823 0
M  V30 12 C 1.141912 5.527442 0.377615 0
M  V30 13 C 0.024200 4.874323 0.880896 0
M  V30 14 C 0.238016 3.748206 1.644654 0
M  V30 15 C 1.532191 3.278713 1.904133 0
M  V30 16 N 1.245573 -0.167329 1.209493 0
M  V30 17 C 1.044290 -1.524840 0.731839 0
M  V30 18 C -0.380007 -1.959569 0.843468 0
M  V30 19 N -1.327595 -1.163527 0.128736 0
M  V30 20 C -2.687191 -1.508590 0.418903 0
M  V30 21 C -3.346214 -2.395435 -0.592216 0
M  V30 22 N -2.475458 -3.027601 -1.520486 0
M  V30 23 C -2.372135 -4.424766 -1.740319 0
M  V30 24 C -1.732166 -4.995642 -2.847364 0
M  V30 25 C -1.641717 -6.359224 -3.038484 0
M  V30 26 C -2.220582 -7.167122 -2.071923 0
M  V30 27 C -2.862329 -6.651976 -0.962118 0
M  V30 28 Cl -3.534293 -7.772017 0.176879 0
M  V30 29 C -2.935617 -5.264273 -0.802106 0
M  V30 30 C -1.714773 -1.986775 -2.185443 0
M  V30 31 C -1.098160 -0.982297 -1.259201 0
M  V30 32 H 1.359566 1.093263 4.382415 0
M  V30 33 H 0.022415 1.743311 3.428326 0
M  V30 34 H 4.366455 -0.707789 3.793946 0
M  V30 35 H 4.715746 3.539884 1.576480 0
M  V30 36 H 3.250485 5.606838 0.221486 0
M  V30 37 H 0.900916 6.405649 -0.216298 0
M  V30 38 H -0.982824 5.198001 0.709261 0
M  V30 39 H -0.632888 3.233084 2.041367 0
M  V30 40 H 1.580609 0.738467 0.760841 0
M  V30 41 H 1.394327 -1.625127 -0.294560 0
M  V30 42 H 1.635961 -2.248889 1.348865 0
M  V30 43 H -0.722781 -2.182218 1.880163 0
M  V30 44 H -0.415931 -2.981529 0.343552 0
M  V30 45 H -3.239139 -0.530614 0.542242 0
M  V30 46 H -2.699581 -1.976156 1.442989 0
M  V30 47 H -4.038978 -1.728373 -1.194407 0
M  V30 48 H -4.036697 -3.055894 -0.038155 0
M  V30 49 H -1.290140 -4.347933 -3.588030 0
M  V30 50 H -1.140584 -6.764348 -3.909116 0
M  V30 51 H -2.123090 -8.230424 -2.261200 0
M  V30 52 H -3.452014 -4.981037 0.093468 0
M  V30 53 H -2.353481 -1.469506 -2.960446 0
M  V30 54 H -0.882043 -2.448894 -2.784423 0
M  V30 55 H -1.507982 0.030630 -1.530748 0
M  V30 56 H 0.006938 -0.865344 -1.456036 0
M  V30 END ATOM
M  V30 BEGIN BOND
M  V30 1 2 1 2
M  V30 2 1 2 3
M  V30 3 1 3 4
M  V30 4 2 4 5
M  V30 5 1 5 6
M  V30 6 2 6 7
M  V30 7 1 6 8
M  V30 8 1 5 9
M  V30 9 1 9 10
M  V30 10 2 10 11
M  V30 11 1 11 12
M  V30 12 2 12 13
M  V30 13 1 13 14
M  V30 14 2 14 15
M  V30 15 1 2 16
M  V30 16 1 16 17
M  V30 17 1 17 18
M  V30 18 1 18 19
M  V30 19 1 19 20
M  V30 20 1 20 21
M  V30 21 1 21 22
M  V30 22 1 22 23
M  V30 23 2 23 24
M  V30 24 1 24 25
M  V30 25 2 25 26
M  V30 26 1 26 27
M  V30 27 1 27 28
M  V30 28 2 27 29
M  V30 29 1 22 30
M  V30 30 1 30 31
M  V30 31 1 15 4
M  V30 32 1 31 19
M  V30 33 1 15 10
M  V30 34 1 29 23
M  V30 35 1 3 32
M  V30 36 1 3 33
M  V30 37 1 8 34
M  V30 38 1 9 35
M  V30 39 1 11 36
M  V30 40 1 12 37
M  V30 41 1 13 38
M  V30 42 1 14 39
M  V30 43 1 16 40
M  V30 44 1 17 41
M  V30 45 1 17 42
M  V30 46 1 18 43
M  V30 47 1 18 44
M  V30 48 1 20 45
M  V30 49 1 20 46
M  V30 50 1 21 47
M  V30 51 1 21 48
M  V30 52 1 24 49
M  V30 53 1 25 50
M  V30 54 1 26 51
M  V30 55 1 29 52
M  V30 56 1 30 53
M  V30 57 1 30 54
M  V30 58 1 31 55
M  V30 59 1 31 56
M  V30 END BOND
M  V30 END CTAB
M  END
>  <Dataset>  (122) 
ChEMBL_Kinases

>  <Ligand_Instance>  (122) 
nan

>  <PDB_ID>  (122) 
nan

>  <Standardized_SMILES>  (122) 
O=C(Cc1c(C(=O)O)[nH]c2ccccc12)NCCN1CCN(c2cccc(Cl)c2)CC1

>  <Name>  (122) 
nan

>  <Pocket>  (122) 
nan

>  <ATP_Site>  (122) 
nan

>  <Peripheral>  (122) 
nan

>  <Num_H_Atoms_ProtBoundConf>  (122) 
nan

>  <Num_Resolved_Atoms>  (122) 
nan

>  <Num_Not_Resolved_Atoms>  (122) 
nan

$$$$
CHEMBL1300290
     RDKit          3D

  0  0  0  0  0  0  0  0  0  0999 V3000
M  V30 BEGIN CTAB
M  V30 COUNTS 45 48 0 0 0
M  V30 BEGIN ATOM
M  V30 1 O -0.042067 -3.253282 3.168477 0
M  V30 2 C 0.763023 -2.274933 2.962744 0
M  V30 3 C 2.237839 -2.427520 2.694436 0
M  V30 4 N 2.456165 -2.305364 1.264716 0
M  V30 5 C 2.352408 -3.362557 0.438901 0
M  V30 6 C 2.563229 -2.998581 -0.859952 0
M  V30 7 C 2.809120 -1.643712 -0.808386 0
M  V30 8 C 2.743614 -1.203804 0.521586 0
M  V30 9 C 2.992359 0.119551 1.010711 0
M  V30 10 O 3.322657 0.266997 2.233848 0
M  V30 11 C 2.927191 1.382496 0.317119 0
M  V30 12 C 2.126033 1.489476 -0.799597 0
M  V30 13 C 2.008149 2.657528 -1.533294 0
M  V30 14 C 2.716795 3.793109 -1.155533 0
M  V30 15 C 3.533142 3.703827 -0.028306 0
M  V30 16 C 3.623475 2.510604 0.682232 0
M  V30 17 N 0.069420 -1.071775 3.022754 0
M  V30 18 C -1.228825 -0.506159 3.239803 0
M  V30 19 C -2.087735 -0.720443 2.019556 0
M  V30 20 C -1.910729 0.128545 0.920083 0
M  V30 21 C -2.718007 -0.047555 -0.184072 0
M  V30 22 C -3.683624 -1.042940 -0.203725 0
M  V30 23 C -3.828826 -1.870360 0.919462 0
M  V30 24 C -3.038144 -1.722357 2.037691 0
M  V30 25 O -4.866386 -2.793612 0.666582 0
M  V30 26 C -5.694443 -2.136607 -0.305033 0
M  V30 27 O -4.661240 -1.527501 -1.098095 0
M  V30 28 H 2.779947 -1.712393 3.308590 0
M  V30 29 H 2.522685 -3.427663 3.022323 0
M  V30 30 H 2.135248 -4.411528 0.662626 0
M  V30 31 H 2.555875 -3.576954 -1.753715 0
M  V30 32 H 3.019122 -1.039030 -1.663153 0
M  V30 33 H 1.511454 0.723411 -1.227214 0
M  V30 34 H 1.421242 2.858220 -2.413123 0
M  V30 35 H 2.680312 4.752704 -1.678406 0
M  V30 36 H 4.101799 4.578000 0.294165 0
M  V30 37 H 4.244646 2.419459 1.555915 0
M  V30 38 H 0.769329 -0.280828 2.844731 0
M  V30 39 H -1.184422 0.576591 3.432287 0
M  V30 40 H -1.736524 -1.001091 4.122261 0
M  V30 41 H -1.173403 0.917572 0.890533 0
M  V30 42 H -2.638690 0.571624 -1.076745 0
M  V30 43 H -3.117237 -2.344422 2.924330 0
M  V30 44 H -6.219892 -1.302628 0.199068 0
M  V30 45 H -6.327252 -2.817119 -0.869032 0
M  V30 END ATOM
M  V30 BEGIN BOND
M  V30 1 2 1 2
M  V30 2 1 2 3
M  V30 3 1 3 4
M  V30 4 1 4 5
M  V30 5 2 5 6
M  V30 6 1 6 7
M  V30 7 2 7 8
M  V30 8 1 8 9
M  V30 9 2 9 10
M  V30 10 1 9 11
M  V30 11 2 11 12
M  V30 12 1 12 13
M  V30 13 2 13 14
M  V30 14 1 14 15
M  V30 15 2 15 16
M  V30 16 1 2 17
M  V30 17 1 17 18
M  V30 18 1 18 19
M  V30 19 2 19 20
M  V30 20 1 20 21
M  V30 21 2 21 22
M  V30 22 1 22 23
M  V30 23 2 23 24
M  V30 24 1 23 25
M  V30 25 1 25 26
M  V30 26 1 26 27
M  V30 27 1 8 4
M  V30 28 1 16 11
M  V30 29 1 24 19
M  V30 30 1 27 22
M  V30 31 1 3 28
M  V30 32 1 3 29
M  V30 33 1 5 30
M  V30 34 1 6 31
M  V30 35 1 7 32
M  V30 36 1 12 33
M  V30 37 1 13 34
M  V30 38 1 14 35
M  V30 39 1 15 36
M  V30 40 1 16 37
M  V30 41 1 17 38
M  V30 42 1 18 39
M  V30 43 1 18 40
M  V30 44 1 20 41
M  V30 45 1 21 42
M  V30 46 1 24 43
M  V30 47 1 26 44
M  V30 48 1 26 45
M  V30 END BOND
M  V30 END CTAB
M  END
>  <Dataset>  (123) 
ChEMBL_Kinases

>  <Ligand_Instance>  (123) 
nan

>  <PDB_ID>  (123) 
nan

>  <Standardized_SMILES>  (123) 
O=C(Cn1cccc1C(=O)c1ccccc1)NCc1ccc2c(c1)OCO2

>  <Name>  (123) 
nan

>  <Pocket>  (123) 
nan

>  <ATP_Site>  (123) 
nan

>  <Peripheral>  (123) 
nan

>  <Num_H_Atoms_ProtBoundConf>  (123) 
nan

>  <Num_Resolved_Atoms>  (123) 
nan

>  <Num_Not_Resolved_Atoms>  (123) 
nan

$$$$
CHEMBL1300308
     RDKit          3D

  0  0  0  0  0  0  0  0  0  0999 V3000
M  V30 BEGIN CTAB
M  V30 COUNTS 46 48 0 0 0
M  V30 BEGIN ATOM
M  V30 1 C 1.607641 -6.772643 2.605071 0
M  V30 2 O 0.631468 -5.774199 2.470449 0
M  V30 3 C 0.958094 -4.499429 2.032321 0
M  V30 4 C 2.237465 -4.104296 1.697169 0
M  V30 5 C 2.500959 -2.815886 1.264537 0
M  V30 6 C 1.473561 -1.902020 1.162740 0
M  V30 7 C 1.549112 -0.492600 0.728935 0
M  V30 8 C 1.767020 0.488702 1.853531 0
M  V30 9 N 1.832434 1.860015 1.376979 0
M  V30 10 C 2.785844 2.400680 0.460032 0
M  V30 11 O 3.638025 1.572798 0.053655 0
M  V30 12 C 2.684105 3.847097 0.084762 0
M  V30 13 S 1.796610 4.031101 -1.491391 0
M  V30 14 C 0.106637 3.493474 -1.317723 0
M  V30 15 N -0.969241 4.221547 -0.953538 0
M  V30 16 C -2.202098 3.637151 -0.874769 0
M  V30 17 O -3.279905 4.423240 -0.496065 0
M  V30 18 C -2.384600 2.300003 -1.161852 0
M  V30 19 C -3.475118 1.439365 -1.174631 0
M  V30 20 N -2.967992 0.229799 -1.552929 0
M  V30 21 N -1.663677 0.299381 -1.766968 0
M  V30 22 C -1.243358 1.578161 -1.535725 0
M  V30 23 N -0.018067 2.178652 -1.609277 0
M  V30 24 C 0.172433 -2.292641 1.500210 0
M  V30 25 C -0.076470 -3.596507 1.935051 0
M  V30 26 O -1.379997 -3.981940 2.271914 0
M  V30 27 C -2.446574 -3.041517 2.169397 0
M  V30 28 H 2.528479 -6.307971 3.057366 0
M  V30 29 H 1.898901 -7.225321 1.647593 0
M  V30 30 H 1.303248 -7.549762 3.366521 0
M  V30 31 H 3.047833 -4.815000 1.773928 0
M  V30 32 H 3.459735 -2.451577 0.991938 0
M  V30 33 H 0.648673 -0.173074 0.173153 0
M  V30 34 H 2.400970 -0.405238 0.008042 0
M  V30 35 H 2.801809 0.287467 2.264463 0
M  V30 36 H 1.087295 0.401184 2.692743 0
M  V30 37 H 1.097514 2.535414 1.746365 0
M  V30 38 H 2.074722 4.353901 0.853542 0
M  V30 39 H 3.660846 4.331627 -0.051678 0
M  V30 40 H -3.916060 4.073196 0.232750 0
M  V30 41 H -4.485787 1.715780 -0.929562 0
M  V30 42 H -3.535264 -0.657038 -1.663749 0
M  V30 43 H -0.693766 -1.651042 1.452040 0
M  V30 44 H -2.515726 -2.575070 1.175268 0
M  V30 45 H -2.208206 -2.201698 2.883904 0
M  V30 46 H -3.401230 -3.459735 2.481387 0
M  V30 END ATOM
M  V30 BEGIN BOND
M  V30 1 1 1 2
M  V30 2 1 2 3
M  V30 3 2 3 4
M  V30 4 1 4 5
M  V30 5 2 5 6
M  V30 6 1 6 7
M  V30 7 1 7 8
M  V30 8 1 8 9
M  V30 9 1 9 10
M  V30 10 2 10 11
M  V30 11 1 10 12
M  V30 12 1 12 13
M  V30 13 1 13 14
M  V30 14 1 14 15
M  V30 15 2 15 16
M  V30 16 1 16 17
M  V30 17 1 16 18
M  V30 18 2 18 19
M  V30 19 1 19 20
M  V30 20 1 20 21
M  V30 21 2 21 22
M  V30 22 1 22 23
M  V30 23 1 6 24
M  V30 24 2 24 25
M  V30 25 1 25 26
M  V30 26 1 26 27
M  V30 27 1 25 3
M  V30 28 2 23 14
M  V30 29 1 22 18
M  V30 30 1 1 28
M  V30 31 1 1 29
M  V30 32 1 1 30
M  V30 33 1 4 31
M  V30 34 1 5 32
M  V30 35 1 7 33
M  V30 36 1 7 34
M  V30 37 1 8 35
M  V30 38 1 8 36
M  V30 39 1 9 37
M  V30 40 1 12 38
M  V30 41 1 12 39
M  V30 42 1 17 40
M  V30 43 1 19 41
M  V30 44 1 20 42
M  V30 45 1 24 43
M  V30 46 1 27 44
M  V30 47 1 27 45
M  V30 48 1 27 46
M  V30 END BOND
M  V30 END CTAB
M  END
>  <Dataset>  (124) 
ChEMBL_Kinases

>  <Ligand_Instance>  (124) 
nan

>  <PDB_ID>  (124) 
nan

>  <Standardized_SMILES>  (124) 
COc1ccc(CCNC(=O)CSc2nc(O)c3c[nH]nc3n2)cc1OC

>  <Name>  (124) 
nan

>  <Pocket>  (124) 
nan

>  <ATP_Site>  (124) 
nan

>  <Peripheral>  (124) 
nan

>  <Num_H_Atoms_ProtBoundConf>  (124) 
nan

>  <Num_Resolved_Atoms>  (124) 
nan

>  <Num_Not_Resolved_Atoms>  (124) 
nan

$$$$
CHEMBL1300397
     RDKit          3D

  0  0  0  0  0  0  0  0  0  0999 V3000
M  V30 BEGIN CTAB
M  V30 COUNTS 41 44 0 0 0
M  V30 BEGIN ATOM
M  V30 1 C -0.573172 -5.319594 0.581798 0
M  V30 2 C -0.060816 -4.986838 -0.805605 0
M  V30 3 C -0.565400 -5.994801 -1.783217 0
M  V30 4 N -0.412299 -3.606829 -1.147262 0
M  V30 5 C -1.817763 -3.317573 -1.270789 0
M  V30 6 O -2.812086 -3.943933 -0.893418 0
M  V30 7 S -1.856576 -1.731758 -2.158095 0
M  V30 8 C -0.199503 -1.250396 -1.678844 0
M  V30 9 C 0.408020 -0.111970 -1.537501 0
M  V30 10 C 1.779473 0.221805 -1.143064 0
M  V30 11 C 3.074711 -0.045899 -1.420083 0
M  V30 12 C 3.908076 0.672996 -0.594627 0
M  V30 13 C 3.041198 1.391735 0.198509 0
M  V30 14 S 3.496445 2.554302 1.515131 0
M  V30 15 C 1.982199 3.108801 2.342049 0
M  V30 16 N 1.757466 2.256303 3.390445 0
M  V30 17 C 0.620519 2.639963 4.044389 0
M  V30 18 C -0.138581 2.244996 5.123518 0
M  V30 19 C -1.280851 2.926893 5.486042 0
M  V30 20 C -1.690398 4.034877 4.762361 0
M  V30 21 C -0.954839 4.477327 3.657250 0
M  V30 22 C 0.183511 3.745796 3.347649 0
M  V30 23 N 1.000571 4.020103 2.333442 0
M  V30 24 O 1.814839 1.106289 -0.146596 0
M  V30 25 C 0.487808 -2.500806 -1.364577 0
M  V30 26 O 1.723563 -2.687870 -1.271258 0
M  V30 27 H -0.364905 -6.418885 0.727118 0
M  V30 28 H 0.020581 -4.796005 1.376035 0
M  V30 29 H -1.652047 -5.219280 0.708302 0
M  V30 30 H 1.042843 -5.078679 -0.743011 0
M  V30 31 H 0.095442 -6.881772 -1.702017 0
M  V30 32 H -0.470707 -5.588041 -2.803314 0
M  V30 33 H -1.628489 -6.264252 -1.636602 0
M  V30 34 H -0.314082 0.693258 -1.783587 0
M  V30 35 H 3.291858 -0.731461 -2.202408 0
M  V30 36 H 4.985243 0.662975 -0.585101 0
M  V30 37 H 0.219289 1.374144 5.660975 0
M  V30 38 H -1.864978 2.606767 6.332784 0
M  V30 39 H -2.591594 4.616728 4.999493 0
M  V30 40 H -1.264816 5.335716 3.086137 0
M  V30 41 H 1.133083 4.688816 1.552627 0
M  V30 END ATOM
M  V30 BEGIN BOND
M  V30 1 1 1 2
M  V30 2 1 2 3
M  V30 3 1 2 4
M  V30 4 1 4 5
M  V30 5 2 5 6
M  V30 6 1 5 7
M  V30 7 1 7 8
M  V30 8 2 8 9
M  V30 9 1 9 10
M  V30 10 2 10 11
M  V30 11 1 11 12
M  V30 12 2 12 13
M  V30 13 1 13 14
M  V30 14 1 14 15
M  V30 15 2 15 16
M  V30 16 1 16 17
M  V30 17 2 17 18
M  V30 18 1 18 19
M  V30 19 2 19 20
M  V30 20 1 20 21
M  V30 21 2 21 22
M  V30 22 1 22 23
M  V30 23 1 13 24
M  V30 24 1 8 25
M  V30 25 2 25 26
M  V30 26 1 25 4
M  V30 27 1 24 10
M  V30 28 1 23 15
M  V30 29 1 22 17
M  V30 30 1 1 27
M  V30 31 1 1 28
M  V30 32 1 1 29
M  V30 33 1 2 30
M  V30 34 1 3 31
M  V30 35 1 3 32
M  V30 36 1 3 33
M  V30 37 1 9 34
M  V30 38 1 11 35
M  V30 39 1 12 36
M  V30 40 1 18 37
M  V30 41 1 19 38
M  V30 42 1 20 39
M  V30 43 1 21 40
M  V30 44 1 23 41
M  V30 END BOND
M  V30 END CTAB
M  END
>  <Dataset>  (125) 
ChEMBL_Kinases

>  <Ligand_Instance>  (125) 
nan

>  <PDB_ID>  (125) 
nan

>  <Standardized_SMILES>  (125) 
CC(C)N1C(=O)S/C(=C/c2ccc(Sc3nc4ccccc4[nH]3)o2)C1=O

>  <Name>  (125) 
nan

>  <Pocket>  (125) 
nan

>  <ATP_Site>  (125) 
nan

>  <Peripheral>  (125) 
nan

>  <Num_H_Atoms_ProtBoundConf>  (125) 
nan

>  <Num_Resolved_Atoms>  (125) 
nan

>  <Num_Not_Resolved_Atoms>  (125) 
nan

$$$$
CHEMBL1300636
     RDKit          3D

  0  0  0  0  0  0  0  0  0  0999 V3000
M  V30 BEGIN CTAB
M  V30 COUNTS 48 49 0 0 0
M  V30 BEGIN ATOM
M  V30 1 C 1.547744 -3.615881 -0.063729 0
M  V30 2 C 2.056895 -2.841198 -1.271559 0
M  V30 3 C 0.931318 -2.659811 -2.250874 0
M  V30 4 C 3.154524 -3.639917 -1.908726 0
M  V30 5 O 2.565631 -1.598471 -0.840403 0
M  V30 6 C 1.779917 -0.668970 -0.177581 0
M  V30 7 O 0.704699 -1.309089 -0.161337 0
M  V30 8 N 2.299522 0.558439 0.241755 0
M  V30 9 C 3.665444 1.002660 0.047456 0
M  V30 10 C 4.088765 1.706434 1.315421 0
M  V30 11 O 5.123878 1.059094 1.963953 0
M  V30 12 C 2.798562 1.740140 2.104887 0
M  V30 13 C 1.818561 1.715606 0.924927 0
M  V30 14 C 0.430987 1.689875 1.366072 0
M  V30 15 O -0.428340 2.388676 1.966184 0
M  V30 16 O -0.570862 0.747409 1.261715 0
M  V30 17 C -1.877068 0.937923 1.776340 0
M  V30 18 C -2.646015 -0.315478 1.448355 0
M  V30 19 O -2.218988 -1.314241 0.848408 0
M  V30 20 C -4.044758 -0.300271 1.910331 0
M  V30 21 C -4.643495 0.752849 2.595537 0
M  V30 22 C -5.956189 0.680169 2.987161 0
M  V30 23 C -6.704603 -0.427672 2.713300 0
M  V30 24 Cl -8.369226 -0.447269 3.243295 0
M  V30 25 C -6.186661 -1.504246 2.043381 0
M  V30 26 C -4.865372 -1.389813 1.668467 0
M  V30 27 H 1.973932 -4.635253 -0.025186 0
M  V30 28 H 1.804983 -3.099256 0.886501 0
M  V30 29 H 0.422853 -3.702405 -0.084787 0
M  V30 30 H -0.056139 -2.899370 -1.772166 0
M  V30 31 H 0.876679 -1.583361 -2.571600 0
M  V30 32 H 1.122272 -3.278305 -3.137552 0
M  V30 33 H 3.774352 -2.977859 -2.545930 0
M  V30 34 H 2.675443 -4.454274 -2.514726 0
M  V30 35 H 3.788248 -4.082508 -1.118176 0
M  V30 36 H 3.705560 1.670869 -0.844767 0
M  V30 37 H 4.362011 0.130287 -0.073222 0
M  V30 38 H 4.335690 2.790157 1.118497 0
M  V30 39 H 5.715769 0.604647 1.288244 0
M  V30 40 H 2.732670 0.779488 2.662135 0
M  V30 41 H 2.685990 2.624631 2.734031 0
M  V30 42 H 2.079270 2.615113 0.319821 0
M  V30 43 H -1.829733 1.038947 2.882609 0
M  V30 44 H -2.414137 1.760776 1.283953 0
M  V30 45 H -4.006285 1.623143 2.795745 0
M  V30 46 H -6.299930 1.569402 3.512316 0
M  V30 47 H -6.744299 -2.393696 1.809440 0
M  V30 48 H -4.416044 -2.215333 1.136808 0
M  V30 END ATOM
M  V30 BEGIN BOND
M  V30 1 1 1 2
M  V30 2 1 2 3
M  V30 3 1 2 4
M  V30 4 1 2 5
M  V30 5 1 5 6
M  V30 6 2 6 7
M  V30 7 1 6 8
M  V30 8 1 8 9
M  V30 9 1 9 10
M  V30 10 1 10 11
M  V30 11 1 10 12
M  V30 12 1 12 13
M  V30 13 1 13 14
M  V30 14 2 14 15
M  V30 15 1 14 16
M  V30 16 1 16 17
M  V30 17 1 17 18
M  V30 18 2 18 19
M  V30 19 1 18 20
M  V30 20 2 20 21
M  V30 21 1 21 22
M  V30 22 2 22 23
M  V30 23 1 23 24
M  V30 24 1 23 25
M  V30 25 2 25 26
M  V30 26 1 13 8
M  V30 27 1 26 20
M  V30 28 1 1 27
M  V30 29 1 1 28
M  V30 30 1 1 29
M  V30 31 1 3 30
M  V30 32 1 3 31
M  V30 33 1 3 32
M  V30 34 1 4 33
M  V30 35 1 4 34
M  V30 36 1 4 35
M  V30 37 1 9 36
M  V30 38 1 9 37
M  V30 39 1 10 38
M  V30 40 1 11 39
M  V30 41 1 12 40
M  V30 42 1 12 41
M  V30 43 1 13 42
M  V30 44 1 17 43
M  V30 45 1 17 44
M  V30 46 1 21 45
M  V30 47 1 22 46
M  V30 48 1 25 47
M  V30 49 1 26 48
M  V30 END BOND
M  V30 END CTAB
M  END
>  <Dataset>  (126) 
ChEMBL_Kinases

>  <Ligand_Instance>  (126) 
nan

>  <PDB_ID>  (126) 
nan

>  <Standardized_SMILES>  (126) 
CC(C)(C)OC(=O)N1CC(O)CC1C(=O)OCC(=O)c1ccc(Cl)cc1

>  <Name>  (126) 
nan

>  <Pocket>  (126) 
nan

>  <ATP_Site>  (126) 
nan

>  <Peripheral>  (126) 
nan

>  <Num_H_Atoms_ProtBoundConf>  (126) 
nan

>  <Num_Resolved_Atoms>  (126) 
nan

>  <Num_Not_Resolved_Atoms>  (126) 
nan

$$$$
CHEMBL1300729
     RDKit          3D

  0  0  0  0  0  0  0  0  0  0999 V3000
M  V30 BEGIN CTAB
M  V30 COUNTS 32 34 0 0 0
M  V30 BEGIN ATOM
M  V30 1 C 0.981554 -6.201752 1.965602 0
M  V30 2 O 0.719968 -4.813424 1.721577 0
M  V30 3 C 1.736471 -3.875705 1.770536 0
M  V30 4 C 3.070898 -4.102032 2.041790 0
M  V30 5 C 3.986037 -3.070297 2.059232 0
M  V30 6 C 3.581974 -1.760175 1.800755 0
M  V30 7 C 2.237241 -1.520805 1.525802 0
M  V30 8 C 1.764535 -0.166152 1.248691 0
M  V30 9 N 2.526120 0.944484 1.227377 0
M  V30 10 N 1.758210 2.007130 0.938851 0
M  V30 11 C 0.491927 1.522914 0.780761 0
M  V30 12 N -0.795693 2.057121 0.474182 0
M  V30 13 C -1.172283 2.130062 -0.899385 0
M  V30 14 O -0.453252 1.758179 -1.862158 0
M  V30 15 C -2.480724 2.672953 -1.210258 0
M  V30 16 C -3.466319 3.148282 -0.421246 0
M  V30 17 C -4.629745 3.615437 -0.937841 0
M  V30 18 C -4.679021 3.539712 -2.431912 0
M  V30 19 Cl -6.218540 4.146933 -3.284405 0
M  V30 20 S -2.993583 2.787143 -2.852025 0
M  V30 21 O 0.537831 0.220074 0.974049 0
M  V30 22 C 1.325409 -2.563493 1.510508 0
M  V30 23 H 1.974058 -6.506990 1.577155 0
M  V30 24 H 0.183079 -6.831592 1.524126 0
M  V30 25 H 0.991169 -6.318219 3.066730 0
M  V30 26 H 3.337278 -5.140601 2.237044 0
M  V30 27 H 5.020372 -3.305164 2.277925 0
M  V30 28 H 4.295806 -0.939998 1.812175 0
M  V30 29 H -1.448905 2.387143 1.228324 0
M  V30 30 H -3.294454 3.143440 0.644157 0
M  V30 31 H -5.464466 4.010308 -0.388331 0
M  V30 32 H 0.274933 -2.319214 1.287585 0
M  V30 END ATOM
M  V30 BEGIN BOND
M  V30 1 1 1 2
M  V30 2 1 2 3
M  V30 3 2 3 4
M  V30 4 1 4 5
M  V30 5 2 5 6
M  V30 6 1 6 7
M  V30 7 1 7 8
M  V30 8 2 8 9
M  V30 9 1 9 10
M  V30 10 2 10 11
M  V30 11 1 11 12
M  V30 12 1 12 13
M  V30 13 2 13 14
M  V30 14 1 13 15
M  V30 15 2 15 16
M  V30 16 1 16 17
M  V30 17 2 17 18
M  V30 18 1 18 19
M  V30 19 1 18 20
M  V30 20 1 11 21
M  V30 21 2 7 22
M  V30 22 1 22 3
M  V30 23 1 21 8
M  V30 24 1 20 15
M  V30 25 1 1 23
M  V30 26 1 1 24
M  V30 27 1 1 25
M  V30 28 1 4 26
M  V30 29 1 5 27
M  V30 30 1 6 28
M  V30 31 1 12 29
M  V30 32 1 16 30
M  V30 33 1 17 31
M  V30 34 1 22 32
M  V30 END BOND
M  V30 END CTAB
M  END
>  <Dataset>  (127) 
ChEMBL_Kinases

>  <Ligand_Instance>  (127) 
nan

>  <PDB_ID>  (127) 
nan

>  <Standardized_SMILES>  (127) 
COc1cccc(-c2nnc(NC(=O)c3ccc(Cl)s3)o2)c1

>  <Name>  (127) 
nan

>  <Pocket>  (127) 
nan

>  <ATP_Site>  (127) 
nan

>  <Peripheral>  (127) 
nan

>  <Num_H_Atoms_ProtBoundConf>  (127) 
nan

>  <Num_Resolved_Atoms>  (127) 
nan

>  <Num_Not_Resolved_Atoms>  (127) 
nan

$$$$
CHEMBL1300790
     RDKit          3D

  0  0  0  0  0  0  0  0  0  0999 V3000
M  V30 BEGIN CTAB
M  V30 COUNTS 40 43 0 0 0
M  V30 BEGIN ATOM
M  V30 1 C -0.980321 -5.575193 2.756478 0
M  V30 2 N -0.832626 -4.304835 2.083140 0
M  V30 3 C 0.176639 -4.060261 1.114281 0
M  V30 4 O 1.072647 -4.793503 0.665218 0
M  V30 5 C 0.011574 -2.688427 0.662071 0
M  V30 6 C 0.709182 -2.017211 -0.176929 0
M  V30 7 S 2.169088 -2.688389 -1.027041 0
M  V30 8 C 3.061336 -1.089597 -0.844921 0
M  V30 9 S 4.531420 -0.451599 -0.483219 0
M  V30 10 N 1.961749 -0.188092 -1.158051 0
M  V30 11 C 2.087870 1.151380 -1.776188 0
M  V30 12 C 2.266265 2.240166 -0.763892 0
M  V30 13 C 1.005458 2.493189 0.036924 0
M  V30 14 C 1.331003 3.853033 0.628212 0
M  V30 15 C 2.144865 4.456725 -0.485463 0
M  V30 16 O 2.382021 3.480218 -1.436516 0
M  V30 17 C 0.656322 -0.714121 -0.786938 0
M  V30 18 O -0.409250 -0.121339 -0.973849 0
M  V30 19 C -1.089065 -2.107409 1.357123 0
M  V30 20 C -1.739187 -0.938946 1.451028 0
M  V30 21 C -2.802610 -0.672973 2.278634 0
M  V30 22 C -3.265986 -1.701792 3.110484 0
M  V30 23 C -2.638990 -2.928781 3.065218 0
M  V30 24 C -1.580996 -3.074879 2.193905 0
M  V30 25 H -1.323684 -5.419937 3.817666 0
M  V30 26 H -1.699029 -6.168026 2.157509 0
M  V30 27 H 0.013550 -6.056527 2.862261 0
M  V30 28 H 1.151771 1.378509 -2.349243 0
M  V30 29 H 2.891465 1.185823 -2.501708 0
M  V30 30 H 3.162485 2.145354 -0.150679 0
M  V30 31 H 0.155031 2.543053 -0.661440 0
M  V30 32 H 0.829865 1.805194 0.857747 0
M  V30 33 H 0.364258 4.367054 0.803174 0
M  V30 34 H 1.867544 3.717442 1.570755 0
M  V30 35 H 1.516210 5.239127 -0.961981 0
M  V30 36 H 3.056810 4.919280 -0.076502 0
M  V30 37 H -1.526261 -0.036954 0.944536 0
M  V30 38 H -3.374916 0.245267 2.404868 0
M  V30 39 H -4.096263 -1.569684 3.785888 0
M  V30 40 H -3.013767 -3.700784 3.713267 0
M  V30 END ATOM
M  V30 BEGIN BOND
M  V30 1 1 1 2
M  V30 2 1 2 3
M  V30 3 2 3 4
M  V30 4 1 3 5
M  V30 5 2 5 6
M  V30 6 1 6 7
M  V30 7 1 7 8
M  V30 8 2 8 9
M  V30 9 1 8 10
M  V30 10 1 10 11
M  V30 11 1 11 12
M  V30 12 1 12 13
M  V30 13 1 13 14
M  V30 14 1 14 15
M  V30 15 1 15 16
M  V30 16 1 10 17
M  V30 17 2 17 18
M  V30 18 1 5 19
M  V30 19 2 19 20
M  V30 20 1 20 21
M  V30 21 2 21 22
M  V30 22 1 22 23
M  V30 23 2 23 24
M  V30 24 1 24 2
M  V30 25 1 17 6
M  V30 26 1 24 19
M  V30 27 1 16 12
M  V30 28 1 1 25
M  V30 29 1 1 26
M  V30 30 1 1 27
M  V30 31 1 11 28
M  V30 32 1 11 29
M  V30 33 1 12 30
M  V30 34 1 13 31
M  V30 35 1 13 32
M  V30 36 1 14 33
M  V30 37 1 14 34
M  V30 38 1 15 35
M  V30 39 1 15 36
M  V30 40 1 20 37
M  V30 41 1 21 38
M  V30 42 1 22 39
M  V30 43 1 23 40
M  V30 END BOND
M  V30 END CTAB
M  END
>  <Dataset>  (128) 
ChEMBL_Kinases

>  <Ligand_Instance>  (128) 
nan

>  <PDB_ID>  (128) 
nan

>  <Standardized_SMILES>  (128) 
CN1C(=O)/C(=C2\SC(=S)N(CC3CCCO3)C2=O)c2ccccc21

>  <Name>  (128) 
nan

>  <Pocket>  (128) 
nan

>  <ATP_Site>  (128) 
nan

>  <Peripheral>  (128) 
nan

>  <Num_H_Atoms_ProtBoundConf>  (128) 
nan

>  <Num_Resolved_Atoms>  (128) 
nan

>  <Num_Not_Resolved_Atoms>  (128) 
nan

$$$$
CHEMBL1299783
     RDKit          3D

  0  0  0  0  0  0  0  0  0  0999 V3000
M  V30 BEGIN CTAB
M  V30 COUNTS 46 49 0 0 0
M  V30 BEGIN ATOM
M  V30 1 C -2.374183 2.432435 4.129835 0
M  V30 2 C -1.059867 1.972103 4.662529 0
M  V30 3 O -0.085529 1.680646 3.705879 0
M  V30 4 C 0.420902 2.551734 2.790014 0
M  V30 5 O -0.081868 3.699212 2.870881 0
M  V30 6 C 1.430211 2.349256 1.769343 0
M  V30 7 O 1.847999 3.285360 0.978681 0
M  V30 8 C 2.772495 2.817835 0.157344 0
M  V30 9 C 3.522534 3.379333 -0.851838 0
M  V30 10 C 4.436478 2.612774 -1.552803 0
M  V30 11 C 4.585867 1.273253 -1.224576 0
M  V30 12 C 3.839199 0.703058 -0.215927 0
M  V30 13 C 2.912356 1.468963 0.498718 0
M  V30 14 C 2.042544 1.137578 1.550809 0
M  V30 15 C 1.922129 -0.223896 2.069977 0
M  V30 16 S 0.711300 -1.268242 1.300268 0
M  V30 17 C -0.979835 -0.787420 1.487515 0
M  V30 18 N -1.944369 0.021252 1.940234 0
M  V30 19 N -3.149255 -0.362254 1.599116 0
M  V30 20 N -2.992149 -1.463256 0.894616 0
M  V30 21 N -1.680838 -1.750355 0.807673 0
M  V30 22 C -1.588559 -2.966952 0.025275 0
M  V30 23 C -0.992929 -2.829536 -1.210791 0
M  V30 24 C -0.831563 -3.899790 -2.064820 0
M  V30 25 C -1.309606 -5.125228 -1.595882 0
M  V30 26 C -1.221428 -6.394852 -2.391099 0
M  V30 27 C -1.907699 -5.282558 -0.363545 0
M  V30 28 C -2.058867 -4.182151 0.482420 0
M  V30 29 H -2.897734 3.120146 4.844182 0
M  V30 30 H -3.088995 1.578677 3.966681 0
M  V30 31 H -2.276533 2.972577 3.168030 0
M  V30 32 H -0.695650 2.701553 5.436434 0
M  V30 33 H -1.242035 1.036909 5.266181 0
M  V30 34 H 3.327371 4.442206 -1.030831 0
M  V30 35 H 4.996371 3.101409 -2.331841 0
M  V30 36 H 5.321857 0.755557 -1.823908 0
M  V30 37 H 3.994842 -0.341160 -0.001507 0
M  V30 38 H 1.799130 -0.237671 3.190101 0
M  V30 39 H 2.925929 -0.729265 1.936710 0
M  V30 40 H -0.618717 -1.870678 -1.578958 0
M  V30 41 H -0.379566 -3.886376 -3.046370 0
M  V30 42 H -0.538740 -7.119136 -1.911205 0
M  V30 43 H -2.250744 -6.805636 -2.477909 0
M  V30 44 H -0.886167 -6.190919 -3.430171 0
M  V30 45 H -2.278319 -6.222059 0.006448 0
M  V30 46 H -2.509476 -4.200905 1.455991 0
M  V30 END ATOM
M  V30 BEGIN BOND
M  V30 1 1 1 2
M  V30 2 1 2 3
M  V30 3 1 3 4
M  V30 4 2 4 5
M  V30 5 1 4 6
M  V30 6 1 6 7
M  V30 7 1 7 8
M  V30 8 2 8 9
M  V30 9 1 9 10
M  V30 10 2 10 11
M  V30 11 1 11 12
M  V30 12 2 12 13
M  V30 13 1 13 14
M  V30 14 1 14 15
M  V30 15 1 15 16
M  V30 16 1 16 17
M  V30 17 2 17 18
M  V30 18 1 18 19
M  V30 19 2 19 20
M  V30 20 1 20 21
M  V30 21 1 21 22
M  V30 22 2 22 23
M  V30 23 1 23 24
M  V30 24 2 24 25
M  V30 25 1 25 26
M  V30 26 1 25 27
M  V30 27 2 27 28
M  V30 28 2 14 6
M  V30 29 1 21 17
M  V30 30 1 28 22
M  V30 31 1 13 8
M  V30 32 1 1 29
M  V30 33 1 1 30
M  V30 34 1 1 31
M  V30 35 1 2 32
M  V30 36 1 2 33
M  V30 37 1 9 34
M  V30 38 1 10 35
M  V30 39 1 11 36
M  V30 40 1 12 37
M  V30 41 1 15 38
M  V30 42 1 15 39
M  V30 43 1 23 40
M  V30 44 1 24 41
M  V30 45 1 26 42
M  V30 46 1 26 43
M  V30 47 1 26 44
M  V30 48 1 27 45
M  V30 49 1 28 46
M  V30 END BOND
M  V30 END CTAB
M  END
>  <Dataset>  (129) 
ChEMBL_Kinases

>  <Ligand_Instance>  (129) 
nan

>  <PDB_ID>  (129) 
nan

>  <Standardized_SMILES>  (129) 
CCOC(=O)c1oc2ccccc2c1CSc1nnnn1-c1ccc(C)cc1

>  <Name>  (129) 
nan

>  <Pocket>  (129) 
nan

>  <ATP_Site>  (129) 
nan

>  <Peripheral>  (129) 
nan

>  <Num_H_Atoms_ProtBoundConf>  (129) 
nan

>  <Num_Resolved_Atoms>  (129) 
nan

>  <Num_Not_Resolved_Atoms>  (129) 
nan

$$$$
CHEMBL1305260
     RDKit          3D

  0  0  0  0  0  0  0  0  0  0999 V3000
M  V30 BEGIN CTAB
M  V30 COUNTS 63 66 0 0 0
M  V30 BEGIN ATOM
M  V30 1 O -0.972255 3.039550 2.614629 0
M  V30 2 C 0.253836 2.850248 2.416074 0
M  V30 3 C 0.989682 4.018707 1.869629 0
M  V30 4 N 2.401696 3.675917 1.683192 0
M  V30 5 C 3.379931 3.838791 2.619307 0
M  V30 6 C 4.674161 3.475856 2.317752 0
M  V30 7 C 5.005420 2.947010 1.079792 0
M  V30 8 C 6.283325 2.572589 0.739385 0
M  V30 9 C 6.590919 2.043024 -0.512533 0
M  V30 10 C 5.590446 1.888328 -1.438236 0
M  V30 11 C 4.294199 2.253910 -1.130771 0
M  V30 12 C 4.035902 2.773477 0.119766 0
M  V30 13 C 2.738075 3.155321 0.469857 0
M  V30 14 O 1.852307 2.992183 -0.419578 0
M  V30 15 N 0.856327 1.605055 2.702480 0
M  V30 16 C 0.177512 0.440173 3.234920 0
M  V30 17 C -0.904147 0.047114 2.252441 0
M  V30 18 C -1.649843 -1.159970 2.745059 0
M  V30 19 O -1.676322 -1.961972 3.717722 0
M  V30 20 N -2.690113 -1.620939 1.893424 0
M  V30 21 C -3.536127 -2.766491 2.170079 0
M  V30 22 C -3.205048 -3.788650 1.104229 0
M  V30 23 N -3.184507 -3.227166 -0.231639 0
M  V30 24 C -3.637077 -4.185531 -1.182264 0
M  V30 25 C -3.667486 -3.718893 -2.609003 0
M  V30 26 C -2.327692 -3.578039 -3.240114 0
M  V30 27 C -1.197055 -4.067093 -2.365350 0
M  V30 28 C -1.499679 -5.387245 -1.720890 0
M  V30 29 C -2.820587 -5.448629 -1.013721 0
M  V30 30 C -3.846517 -1.973722 -0.224479 0
M  V30 31 C -3.048099 -1.008402 0.628581 0
M  V30 32 H 0.913683 4.897988 2.562958 0
M  V30 33 H 0.590467 4.356883 0.908758 0
M  V30 34 H 3.065137 4.254963 3.565627 0
M  V30 35 H 5.440524 3.602946 3.049595 0
M  V30 36 H 7.072191 2.687723 1.450992 0
M  V30 37 H 7.601616 1.753497 -0.764739 0
M  V30 38 H 5.782862 1.487755 -2.406074 0
M  V30 39 H 3.486172 2.134450 -1.864044 0
M  V30 40 H 1.893282 1.603001 2.482278 0
M  V30 41 H 0.921319 -0.357251 3.321178 0
M  V30 42 H -0.302426 0.701511 4.200660 0
M  V30 43 H -0.396585 -0.174865 1.295781 0
M  V30 44 H -1.650114 0.856256 2.153285 0
M  V30 45 H -4.588990 -2.430069 2.120429 0
M  V30 46 H -3.291884 -3.194324 3.167921 0
M  V30 47 H -3.914006 -4.612644 1.230798 0
M  V30 48 H -2.164691 -4.159545 1.319079 0
M  V30 49 H -4.682218 -4.464618 -0.927830 0
M  V30 50 H -4.221752 -4.532998 -3.164889 0
M  V30 51 H -4.329199 -2.842842 -2.671193 0
M  V30 52 H -2.253144 -4.152194 -4.197808 0
M  V30 53 H -2.065418 -2.522683 -3.526657 0
M  V30 54 H -0.296895 -4.228476 -3.002447 0
M  V30 55 H -0.915648 -3.271168 -1.644253 0
M  V30 56 H -1.412764 -6.166230 -2.510038 0
M  V30 57 H -0.649829 -5.587663 -1.011146 0
M  V30 58 H -3.368818 -6.341643 -1.403152 0
M  V30 59 H -2.634762 -5.672732 0.053130 0
M  V30 60 H -3.918465 -1.484775 -1.217071 0
M  V30 61 H -4.900068 -1.990743 0.157825 0
M  V30 62 H -2.096542 -0.726411 0.124478 0
M  V30 63 H -3.629686 -0.080179 0.877122 0
M  V30 END ATOM
M  V30 BEGIN BOND
M  V30 1 2 1 2
M  V30 2 1 2 3
M  V30 3 1 3 4
M  V30 4 1 4 5
M  V30 5 2 5 6
M  V30 6 1 6 7
M  V30 7 2 7 8
M  V30 8 1 8 9
M  V30 9 2 9 10
M  V30 10 1 10 11
M  V30 11 2 11 12
M  V30 12 1 12 13
M  V30 13 2 13 14
M  V30 14 1 2 15
M  V30 15 1 15 16
M  V30 16 1 16 17
M  V30 17 1 17 18
M  V30 18 2 18 19
M  V30 19 1 18 20
M  V30 20 1 20 21
M  V30 21 1 21 22
M  V30 22 1 22 23
M  V30 23 1 23 24
M  V30 24 1 24 25
M  V30 25 1 25 26
M  V30 26 1 26 27
M  V30 27 1 27 28
M  V30 28 1 28 29
M  V30 29 1 23 30
M  V30 30 1 30 31
M  V30 31 1 13 4
M  V30 32 1 31 20
M  V30 33 1 12 7
M  V30 34 1 29 24
M  V30 35 1 3 32
M  V30 36 1 3 33
M  V30 37 1 5 34
M  V30 38 1 6 35
M  V30 39 1 8 36
M  V30 40 1 9 37
M  V30 41 1 10 38
M  V30 42 1 11 39
M  V30 43 1 15 40
M  V30 44 1 16 41
M  V30 45 1 16 42
M  V30 46 1 17 43
M  V30 47 1 17 44
M  V30 48 1 21 45
M  V30 49 1 21 46
M  V30 50 1 22 47
M  V30 51 1 22 48
M  V30 52 1 24 49
M  V30 53 1 25 50
M  V30 54 1 25 51
M  V30 55 1 26 52
M  V30 56 1 26 53
M  V30 57 1 27 54
M  V30 58 1 27 55
M  V30 59 1 28 56
M  V30 60 1 28 57
M  V30 61 1 29 58
M  V30 62 1 29 59
M  V30 63 1 30 60
M  V30 64 1 30 61
M  V30 65 1 31 62
M  V30 66 1 31 63
M  V30 END BOND
M  V30 END CTAB
M  END
>  <Dataset>  (130) 
ChEMBL_Kinases

>  <Ligand_Instance>  (130) 
nan

>  <PDB_ID>  (130) 
nan

>  <Standardized_SMILES>  (130) 
O=C(Cn1ccc2ccccc2c1=O)NCCC(=O)N1CCN(C2CCCCC2)CC1

>  <Name>  (130) 
nan

>  <Pocket>  (130) 
nan

>  <ATP_Site>  (130) 
nan

>  <Peripheral>  (130) 
nan

>  <Num_H_Atoms_ProtBoundConf>  (130) 
nan

>  <Num_Resolved_Atoms>  (130) 
nan

>  <Num_Not_Resolved_Atoms>  (130) 
nan

$$$$
CHEMBL1305122
     RDKit          3D

  0  0  0  0  0  0  0  0  0  0999 V3000
M  V30 BEGIN CTAB
M  V30 COUNTS 61 65 0 0 0
M  V30 BEGIN ATOM
M  V30 1 C 2.226901 -1.149906 1.027544 0
M  V30 2 C 2.562896 -0.993941 2.463210 0
M  V30 3 C 2.844038 -2.025027 3.333918 0
M  V30 4 C 3.148014 -1.827355 4.664676 0
M  V30 5 C 3.161266 -0.514944 5.110037 0
M  V30 6 Cl 3.547602 -0.224203 6.813374 0
M  V30 7 C 2.882356 0.529197 4.252524 0
M  V30 8 C 2.575825 0.312036 2.904480 0
M  V30 9 N 2.325739 1.517629 2.193470 0
M  V30 10 C 3.136077 1.953610 1.074533 0
M  V30 11 C 2.396302 2.891716 0.150785 0
M  V30 12 N 0.957978 2.758568 0.434028 0
M  V30 13 C 0.117205 2.207361 -0.571008 0
M  V30 14 O 0.934040 1.973229 -1.489478 0
M  V30 15 C -1.338200 2.067055 -0.307512 0
M  V30 16 S -2.170439 1.339559 -1.737182 0
M  V30 17 C -1.660723 -0.350337 -2.020044 0
M  V30 18 N -0.565308 -0.343010 -2.841364 0
M  V30 19 N -0.197355 -1.622834 -3.044898 0
M  V30 20 C -1.065278 -2.373284 -2.352133 0
M  V30 21 N -1.985328 -1.638047 -1.704279 0
M  V30 22 C -3.119285 -1.840859 -0.845854 0
M  V30 23 C -4.344557 -1.365381 -1.644404 0
M  V30 24 C -3.029336 -1.042476 0.435685 0
M  V30 25 C -3.325830 -3.297626 -0.603494 0
M  V30 26 C -2.313492 -4.095493 -1.318523 0
M  V30 27 C -2.511824 -5.464918 -1.092848 0
M  V30 28 C -1.693868 -6.428415 -1.652060 0
M  V30 29 C -0.631369 -6.085087 -2.467993 0
M  V30 30 C -0.428511 -4.730684 -2.696198 0
M  V30 31 C -1.244080 -3.803493 -2.136811 0
M  V30 32 C 0.605432 3.236522 1.767102 0
M  V30 33 C 1.165408 2.225427 2.744611 0
M  V30 34 H 1.532676 -0.400001 0.657745 0
M  V30 35 H 3.135466 -1.311673 0.390300 0
M  V30 36 H 1.675590 -2.132908 0.923385 0
M  V30 37 H 2.806013 -3.015299 2.880785 0
M  V30 38 H 3.362690 -2.667313 5.313245 0
M  V30 39 H 2.922083 1.519447 4.712773 0
M  V30 40 H 3.418871 1.061823 0.483630 0
M  V30 41 H 4.022955 2.523539 1.425102 0
M  V30 42 H 2.641153 2.622453 -0.885184 0
M  V30 43 H 2.622841 3.956384 0.380964 0
M  V30 44 H -1.744983 3.088888 -0.164178 0
M  V30 45 H -1.542425 1.430819 0.572562 0
M  V30 46 H -5.215348 -2.059966 -1.485449 0
M  V30 47 H -4.667734 -0.390031 -1.226013 0
M  V30 48 H -4.135776 -1.230410 -2.706880 0
M  V30 49 H -3.709891 -1.559624 1.174652 0
M  V30 50 H -2.013750 -1.117364 0.858582 0
M  V30 51 H -3.429065 -0.029104 0.329779 0
M  V30 52 H -4.363243 -3.636554 -0.818246 0
M  V30 53 H -3.085309 -3.459873 0.493079 0
M  V30 54 H -3.293442 -5.917773 -0.481913 0
M  V30 55 H -1.806071 -7.493149 -1.507920 0
M  V30 56 H 0.072620 -6.738393 -2.959042 0
M  V30 57 H 0.367018 -4.338619 -3.314674 0
M  V30 58 H -0.492401 3.272955 1.907720 0
M  V30 59 H 1.095132 4.205955 1.909778 0
M  V30 60 H 0.371156 1.550832 3.074138 0
M  V30 61 H 1.463064 2.809754 3.652817 0
M  V30 END ATOM
M  V30 BEGIN BOND
M  V30 1 1 1 2
M  V30 2 2 2 3
M  V30 3 1 3 4
M  V30 4 2 4 5
M  V30 5 1 5 6
M  V30 6 1 5 7
M  V30 7 2 7 8
M  V30 8 1 8 9
M  V30 9 1 9 10
M  V30 10 1 10 11
M  V30 11 1 11 12
M  V30 12 1 12 13
M  V30 13 2 13 14
M  V30 14 1 13 15
M  V30 15 1 15 16
M  V30 16 1 16 17
M  V30 17 2 17 18
M  V30 18 1 18 19
M  V30 19 2 19 20
M  V30 20 1 20 21
M  V30 21 1 21 22
M  V30 22 1 22 23
M  V30 23 1 22 24
M  V30 24 1 22 25
M  V30 25 1 25 26
M  V30 26 2 26 27
M  V30 27 1 27 28
M  V30 28 2 28 29
M  V30 29 1 29 30
M  V30 30 2 30 31
M  V30 31 1 12 32
M  V30 32 1 32 33
M  V30 33 1 8 2
M  V30 34 1 33 9
M  V30 35 1 21 17
M  V30 36 1 31 26
M  V30 37 1 31 20
M  V30 38 1 1 34
M  V30 39 1 1 35
M  V30 40 1 1 36
M  V30 41 1 3 37
M  V30 42 1 4 38
M  V30 43 1 7 39
M  V30 44 1 10 40
M  V30 45 1 10 41
M  V30 46 1 11 42
M  V30 47 1 11 43
M  V30 48 1 15 44
M  V30 49 1 15 45
M  V30 50 1 23 46
M  V30 51 1 23 47
M  V30 52 1 23 48
M  V30 53 1 24 49
M  V30 54 1 24 50
M  V30 55 1 24 51
M  V30 56 1 25 52
M  V30 57 1 25 53
M  V30 58 1 27 54
M  V30 59 1 28 55
M  V30 60 1 29 56
M  V30 61 1 30 57
M  V30 62 1 32 58
M  V30 63 1 32 59
M  V30 64 1 33 60
M  V30 65 1 33 61
M  V30 END BOND
M  V30 END CTAB
M  END
>  <Dataset>  (131) 
ChEMBL_Kinases

>  <Ligand_Instance>  (131) 
nan

>  <PDB_ID>  (131) 
nan

>  <Standardized_SMILES>  (131) 
Cc1ccc(Cl)cc1N1CCN(C(=O)CSc2nnc3n2C(C)(C)Cc2ccccc2-3)CC1

>  <Name>  (131) 
nan

>  <Pocket>  (131) 
nan

>  <ATP_Site>  (131) 
nan

>  <Peripheral>  (131) 
nan

>  <Num_H_Atoms_ProtBoundConf>  (131) 
nan

>  <Num_Resolved_Atoms>  (131) 
nan

>  <Num_Not_Resolved_Atoms>  (131) 
nan

$$$$
CHEMBL130511
     RDKit          3D

  0  0  0  0  0  0  0  0  0  0999 V3000
M  V30 BEGIN CTAB
M  V30 COUNTS 52 55 0 0 0
M  V30 BEGIN ATOM
M  V30 1 C 2.004558 -4.134696 6.839073 0
M  V30 2 C 2.691321 -3.478638 5.697882 0
M  V30 3 C 1.985622 -2.793173 4.719210 0
M  V30 4 C 2.701232 -2.218585 3.702645 0
M  V30 5 C 4.049841 -2.254412 3.556881 0
M  V30 6 N 4.802621 -1.664960 2.510724 0
M  V30 7 C 4.332896 -0.922116 1.401546 0
M  V30 8 N 5.206117 -0.436757 0.502781 0
M  V30 9 C 4.865348 0.275348 -0.577065 0
M  V30 10 C 3.539749 0.545033 -0.809838 0
M  V30 11 C 2.614404 0.069584 0.080850 0
M  V30 12 C 1.198671 0.330167 -0.124140 0
M  V30 13 C 0.208430 -0.112629 0.724681 0
M  V30 14 C -1.141368 0.118895 0.555628 0
M  V30 15 C -1.557675 0.847657 -0.540448 0
M  V30 16 S -3.260728 1.146442 -0.764260 0
M  V30 17 O -3.434807 2.513341 -1.354746 0
M  V30 18 O -3.908810 1.140297 0.592948 0
M  V30 19 N -3.976060 -0.087972 -1.682190 0
M  V30 20 C -3.487898 -0.264087 -3.003073 0
M  V30 21 C -4.022158 0.746801 -3.988574 0
M  V30 22 N -5.332019 1.216954 -3.657528 0
M  V30 23 C -6.078641 0.347726 -2.802606 0
M  V30 24 C -5.390568 -0.149020 -1.589271 0
M  V30 25 C -0.611141 1.318551 -1.427537 0
M  V30 26 C 0.721122 1.048039 -1.193923 0
M  V30 27 N 3.051001 -0.634106 1.133239 0
M  V30 28 C 4.705876 -2.946035 4.552743 0
M  V30 29 C 4.056314 -3.548217 5.603097 0
M  V30 30 H 1.844572 -3.376528 7.627379 0
M  V30 31 H 0.987546 -4.421617 6.472647 0
M  V30 32 H 2.583401 -5.007634 7.199274 0
M  V30 33 H 0.905149 -2.734502 4.788496 0
M  V30 34 H 2.107867 -1.706904 2.982261 0
M  V30 35 H 5.857160 -1.795373 2.562129 0
M  V30 36 H 5.684432 0.605161 -1.220881 0
M  V30 37 H 3.331599 1.111849 -1.678602 0
M  V30 38 H 0.459430 -0.686779 1.599465 0
M  V30 39 H -1.887549 -0.244194 1.242142 0
M  V30 40 H -3.812013 -1.263929 -3.365839 0
M  V30 41 H -2.373442 -0.284738 -3.008444 0
M  V30 42 H -4.041729 0.374709 -5.033611 0
M  V30 43 H -3.327492 1.612271 -3.977252 0
M  V30 44 H -5.455907 2.220044 -3.537066 0
M  V30 45 H -6.403813 -0.526923 -3.428678 0
M  V30 46 H -7.031058 0.816698 -2.481046 0
M  V30 47 H -5.730920 0.407573 -0.685402 0
M  V30 48 H -5.684103 -1.228155 -1.430543 0
M  V30 49 H -0.962187 1.886238 -2.277367 0
M  V30 50 H 1.375464 1.460216 -1.944847 0
M  V30 51 H 5.792012 -3.046679 4.548883 0
M  V30 52 H 4.612673 -4.086779 6.371864 0
M  V30 END ATOM
M  V30 BEGIN BOND
M  V30 1 1 1 2
M  V30 2 2 2 3
M  V30 3 1 3 4
M  V30 4 2 4 5
M  V30 5 1 5 6
M  V30 6 1 6 7
M  V30 7 2 7 8
M  V30 8 1 8 9
M  V30 9 2 9 10
M  V30 10 1 10 11
M  V30 11 1 11 12
M  V30 12 2 12 13
M  V30 13 1 13 14
M  V30 14 2 14 15
M  V30 15 1 15 16
M  V30 16 2 16 17
M  V30 17 2 16 18
M  V30 18 1 16 19
M  V30 19 1 19 20
M  V30 20 1 20 21
M  V30 21 1 21 22
M  V30 22 1 22 23
M  V30 23 1 23 24
M  V30 24 1 15 25
M  V30 25 2 25 26
M  V30 26 2 11 27
M  V30 27 1 5 28
M  V30 28 2 28 29
M  V30 29 1 29 2
M  V30 30 1 27 7
M  V30 31 1 26 12
M  V30 32 1 24 19
M  V30 33 1 1 30
M  V30 34 1 1 31
M  V30 35 1 1 32
M  V30 36 1 3 33
M  V30 37 1 4 34
M  V30 38 1 6 35
M  V30 39 1 9 36
M  V30 40 1 10 37
M  V30 41 1 13 38
M  V30 42 1 14 39
M  V30 43 1 20 40
M  V30 44 1 20 41
M  V30 45 1 21 42
M  V30 46 1 21 43
M  V30 47 1 22 44
M  V30 48 1 23 45
M  V30 49 1 23 46
M  V30 50 1 24 47
M  V30 51 1 24 48
M  V30 52 1 25 49
M  V30 53 1 26 50
M  V30 54 1 28 51
M  V30 55 1 29 52
M  V30 END BOND
M  V30 END CTAB
M  END
>  <Dataset>  (132) 
ChEMBL_Kinases

>  <Ligand_Instance>  (132) 
nan

>  <PDB_ID>  (132) 
nan

>  <Standardized_SMILES>  (132) 
Cc1ccc(Nc2nccc(-c3ccc(S(=O)(=O)N4CCNCC4)cc3)n2)cc1

>  <Name>  (132) 
nan

>  <Pocket>  (132) 
nan

>  <ATP_Site>  (132) 
nan

>  <Peripheral>  (132) 
nan

>  <Num_H_Atoms_ProtBoundConf>  (132) 
nan

>  <Num_Resolved_Atoms>  (132) 
nan

>  <Num_Not_Resolved_Atoms>  (132) 
nan

$$$$
CHEMBL1305080
     RDKit          3D

  0  0  0  0  0  0  0  0  0  0999 V3000
M  V30 BEGIN CTAB
M  V30 COUNTS 32 33 0 0 0
M  V30 BEGIN ATOM
M  V30 1 C 2.030139 -5.070176 2.348433 0
M  V30 2 C 2.121257 -3.770374 3.124559 0
M  V30 3 C 1.299992 -2.695217 2.486715 0
M  V30 4 C 0.514611 -2.565876 1.429845 0
M  V30 5 C -0.120064 -1.281329 1.162502 0
M  V30 6 C -0.902743 -1.174670 0.098202 0
M  V30 7 N -1.462566 0.126672 -0.053960 0
M  V30 8 C -2.831512 0.067985 0.427192 0
M  V30 9 C -0.713368 1.211983 -0.594535 0
M  V30 10 C 0.591750 0.976692 -0.976610 0
M  V30 11 C 1.284691 2.050218 -1.494946 0
M  V30 12 C 0.655465 3.277753 -1.604008 0
M  V30 13 C -0.649619 3.513473 -1.222056 0
M  V30 14 C -1.338495 2.433966 -0.703531 0
M  V30 15 C 0.236811 -0.283682 2.168040 0
M  V30 16 O -0.163908 0.896727 2.183044 0
M  V30 17 S 1.338431 -1.097453 3.335881 0
M  V30 18 H 2.790874 -5.141876 1.565724 0
M  V30 19 H 2.171865 -5.949055 3.016595 0
M  V30 20 H 1.029016 -5.205200 1.869064 0
M  V30 21 H 1.712768 -3.932903 4.134762 0
M  V30 22 H 3.158094 -3.411655 3.148243 0
M  V30 23 H 0.465718 -3.503996 0.893581 0
M  V30 24 H -1.114164 -1.972685 -0.600362 0
M  V30 25 H -2.891879 -0.289012 1.477148 0
M  V30 26 H -3.346540 1.045830 0.423359 0
M  V30 27 H -3.417593 -0.687017 -0.174802 0
M  V30 28 H 1.006959 -0.009526 -0.858262 0
M  V30 29 H 2.307519 1.882288 -1.798717 0
M  V30 30 H 1.296751 4.065991 -2.029673 0
M  V30 31 H -1.002406 4.521060 -1.367270 0
M  V30 32 H -2.359965 2.626764 -0.406779 0
M  V30 END ATOM
M  V30 BEGIN BOND
M  V30 1 1 1 2
M  V30 2 1 2 3
M  V30 3 2 3 4
M  V30 4 1 4 5
M  V30 5 2 5 6
M  V30 6 1 6 7
M  V30 7 1 7 8
M  V30 8 1 7 9
M  V30 9 2 9 10
M  V30 10 1 10 11
M  V30 11 2 11 12
M  V30 12 1 12 13
M  V30 13 2 13 14
M  V30 14 1 5 15
M  V30 15 2 15 16
M  V30 16 1 15 17
M  V30 17 1 17 3
M  V30 18 1 14 9
M  V30 19 1 1 18
M  V30 20 1 1 19
M  V30 21 1 1 20
M  V30 22 1 2 21
M  V30 23 1 2 22
M  V30 24 1 4 23
M  V30 25 1 6 24
M  V30 26 1 8 25
M  V30 27 1 8 26
M  V30 28 1 8 27
M  V30 29 1 10 28
M  V30 30 1 11 29
M  V30 31 1 12 30
M  V30 32 1 13 31
M  V30 33 1 14 32
M  V30 END BOND
M  V30 END CTAB
M  END
>  <Dataset>  (133) 
ChEMBL_Kinases

>  <Ligand_Instance>  (133) 
nan

>  <PDB_ID>  (133) 
nan

>  <Standardized_SMILES>  (133) 
CCC1=C/C(=C/N(C)c2ccccc2)C(=O)S1

>  <Name>  (133) 
nan

>  <Pocket>  (133) 
nan

>  <ATP_Site>  (133) 
nan

>  <Peripheral>  (133) 
nan

>  <Num_H_Atoms_ProtBoundConf>  (133) 
nan

>  <Num_Resolved_Atoms>  (133) 
nan

>  <Num_Not_Resolved_Atoms>  (133) 
nan

$$$$
CHEMBL1304821
     RDKit          3D

  0  0  0  0  0  0  0  0  0  0999 V3000
M  V30 BEGIN CTAB
M  V30 COUNTS 38 40 0 0 0
M  V30 BEGIN ATOM
M  V30 1 C -1.934602 -1.820801 2.074014 0
M  V30 2 C -0.642383 -2.154742 1.363516 0
M  V30 3 C -0.603474 -3.667079 1.261847 0
M  V30 4 C 0.774840 -4.101459 0.808463 0
M  V30 5 C 1.198681 -3.130480 -0.290895 0
M  V30 6 C -0.076134 -2.572068 -0.955450 0
M  V30 7 N -0.580742 -1.613538 0.011107 0
M  V30 8 C -0.917589 -0.362126 -0.555086 0
M  V30 9 O -0.718812 -0.468248 -1.816083 0
M  V30 10 C -1.404424 0.967875 -0.163625 0
M  V30 11 N -0.234886 1.872974 -0.255130 0
M  V30 12 C 0.189185 2.651747 -1.300156 0
M  V30 13 O -0.496755 2.640570 -2.368827 0
M  V30 14 O 1.269533 3.269257 -0.941124 0
M  V30 15 C 1.606821 2.955638 0.287874 0
M  V30 16 C 2.673325 3.359879 1.090065 0
M  V30 17 C 2.690488 2.795747 2.358055 0
M  V30 18 C 1.773135 1.902687 2.868323 0
M  V30 19 C 0.739846 1.545182 2.016507 0
M  V30 20 C 0.659646 2.067503 0.740210 0
M  V30 21 H -1.930759 -2.443687 3.005282 0
M  V30 22 H -2.765974 -2.210155 1.447259 0
M  V30 23 H -2.022985 -0.763972 2.346748 0
M  V30 24 H 0.251976 -1.853518 1.953104 0
M  V30 25 H -1.388582 -4.059491 0.604458 0
M  V30 26 H -0.820099 -4.046215 2.297349 0
M  V30 27 H 0.815447 -5.141088 0.482876 0
M  V30 28 H 1.430793 -3.989004 1.717221 0
M  V30 29 H 1.893128 -3.563351 -1.004851 0
M  V30 30 H 1.726421 -2.311754 0.247071 0
M  V30 31 H -0.753789 -3.383992 -1.192485 0
M  V30 32 H 0.269454 -2.094057 -1.908753 0
M  V30 33 H -2.152790 1.320908 -0.899609 0
M  V30 34 H -1.862157 1.041705 0.822399 0
M  V30 35 H 3.387652 4.050331 0.693158 0
M  V30 36 H 3.536660 3.125990 2.961927 0
M  V30 37 H 1.893394 1.525282 3.880482 0
M  V30 38 H 0.001230 0.836418 2.394942 0
M  V30 END ATOM
M  V30 BEGIN BOND
M  V30 1 1 1 2
M  V30 2 1 2 3
M  V30 3 1 3 4
M  V30 4 1 4 5
M  V30 5 1 5 6
M  V30 6 1 6 7
M  V30 7 1 7 8
M  V30 8 2 8 9
M  V30 9 1 8 10
M  V30 10 1 10 11
M  V30 11 1 11 12
M  V30 12 2 12 13
M  V30 13 1 12 14
M  V30 14 1 14 15
M  V30 15 2 15 16
M  V30 16 1 16 17
M  V30 17 2 17 18
M  V30 18 1 18 19
M  V30 19 2 19 20
M  V30 20 1 7 2
M  V30 21 1 20 11
M  V30 22 1 20 15
M  V30 23 1 1 21
M  V30 24 1 1 22
M  V30 25 1 1 23
M  V30 26 1 2 24
M  V30 27 1 3 25
M  V30 28 1 3 26
M  V30 29 1 4 27
M  V30 30 1 4 28
M  V30 31 1 5 29
M  V30 32 1 5 30
M  V30 33 1 6 31
M  V30 34 1 6 32
M  V30 35 1 10 33
M  V30 36 1 10 34
M  V30 37 1 16 35
M  V30 38 1 17 36
M  V30 39 1 18 37
M  V30 40 1 19 38
M  V30 END BOND
M  V30 END CTAB
M  END
>  <Dataset>  (134) 
ChEMBL_Kinases

>  <Ligand_Instance>  (134) 
nan

>  <PDB_ID>  (134) 
nan

>  <Standardized_SMILES>  (134) 
CC1CCCCN1C(=O)Cn1c(=O)oc2ccccc21

>  <Name>  (134) 
nan

>  <Pocket>  (134) 
nan

>  <ATP_Site>  (134) 
nan

>  <Peripheral>  (134) 
nan

>  <Num_H_Atoms_ProtBoundConf>  (134) 
nan

>  <Num_Resolved_Atoms>  (134) 
nan

>  <Num_Not_Resolved_Atoms>  (134) 
nan

$$$$
CHEMBL1304784
     RDKit          3D

  0  0  0  0  0  0  0  0  0  0999 V3000
M  V30 BEGIN CTAB
M  V30 COUNTS 31 32 0 0 0
M  V30 BEGIN ATOM
M  V30 1 C -2.373182 -3.519336 1.963478 0
M  V30 2 C -0.921901 -3.507115 2.383383 0
M  V30 3 O -0.813226 -4.553527 3.335356 0
M  V30 4 C 0.021993 -3.830594 1.294901 0
M  V30 5 C 0.038717 -2.961368 0.097373 0
M  V30 6 C 0.412621 -1.553958 0.328485 0
M  V30 7 N 0.393507 -0.790112 -0.805144 0
M  V30 8 C 0.756380 0.461428 -0.486744 0
M  V30 9 C 0.906383 1.620339 -1.217368 0
M  V30 10 C 1.309526 2.789020 -0.565169 0
M  V30 11 C 1.479691 4.043333 -1.312731 0
M  V30 12 O 1.837469 5.146359 -0.822556 0
M  V30 13 O 1.248376 4.102531 -2.667636 0
M  V30 14 C 1.559008 2.798827 0.797422 0
M  V30 15 C 1.417297 1.645609 1.566107 0
M  V30 16 C 1.018029 0.530520 0.863202 0
M  V30 17 N 0.794100 -0.714742 1.301742 0
M  V30 18 H -2.619464 -2.704143 1.258050 0
M  V30 19 H -2.681292 -4.520173 1.596172 0
M  V30 20 H -2.973572 -3.332124 2.879726 0
M  V30 21 H -0.766067 -2.571393 2.933877 0
M  V30 22 H -1.624789 -4.628439 3.896226 0
M  V30 23 H -0.104883 -4.898970 0.958787 0
M  V30 24 H 1.074120 -3.830436 1.710944 0
M  V30 25 H -0.882144 -3.054035 -0.531635 0
M  V30 26 H 0.841181 -3.386966 -0.580735 0
M  V30 27 H 0.711414 1.611518 -2.280686 0
M  V30 28 H 0.744134 4.862828 -3.145057 0
M  V30 29 H 1.869976 3.711044 1.285965 0
M  V30 30 H 1.597747 1.597218 2.626367 0
M  V30 31 H 0.883487 -1.087456 2.253362 0
M  V30 END ATOM
M  V30 BEGIN BOND
M  V30 1 1 1 2
M  V30 2 1 2 3
M  V30 3 1 2 4
M  V30 4 1 4 5
M  V30 5 1 5 6
M  V30 6 2 6 7
M  V30 7 1 7 8
M  V30 8 2 8 9
M  V30 9 1 9 10
M  V30 10 1 10 11
M  V30 11 2 11 12
M  V30 12 1 11 13
M  V30 13 2 10 14
M  V30 14 1 14 15
M  V30 15 2 15 16
M  V30 16 1 16 17
M  V30 17 1 17 6
M  V30 18 1 16 8
M  V30 19 1 1 18
M  V30 20 1 1 19
M  V30 21 1 1 20
M  V30 22 1 2 21
M  V30 23 1 3 22
M  V30 24 1 4 23
M  V30 25 1 4 24
M  V30 26 1 5 25
M  V30 27 1 5 26
M  V30 28 1 9 27
M  V30 29 1 13 28
M  V30 30 1 14 29
M  V30 31 1 15 30
M  V30 32 1 17 31
M  V30 END BOND
M  V30 END CTAB
M  END
>  <Dataset>  (135) 
ChEMBL_Kinases

>  <Ligand_Instance>  (135) 
nan

>  <PDB_ID>  (135) 
nan

>  <Standardized_SMILES>  (135) 
CC(O)CCc1nc2cc(C(=O)O)ccc2[nH]1

>  <Name>  (135) 
nan

>  <Pocket>  (135) 
nan

>  <ATP_Site>  (135) 
nan

>  <Peripheral>  (135) 
nan

>  <Num_H_Atoms_ProtBoundConf>  (135) 
nan

>  <Num_Resolved_Atoms>  (135) 
nan

>  <Num_Not_Resolved_Atoms>  (135) 
nan

$$$$
CHEMBL1304678
     RDKit          3D

  0  0  0  0  0  0  0  0  0  0999 V3000
M  V30 BEGIN CTAB
M  V30 COUNTS 38 39 0 0 0
M  V30 BEGIN ATOM
M  V30 1 C 1.980477 -0.995274 4.610019 0
M  V30 2 C 1.067202 -0.654172 3.467592 0
M  V30 3 C -0.077797 -1.406977 3.191181 0
M  V30 4 C -0.855396 -1.003608 2.107895 0
M  V30 5 C -0.514305 0.094409 1.334677 0
M  V30 6 S -1.498666 0.595342 -0.027114 0
M  V30 7 O -1.464417 2.075035 -0.208963 0
M  V30 8 O -2.945348 0.218586 0.156279 0
M  V30 9 N -0.941722 -0.209138 -1.448584 0
M  V30 10 C -1.071845 -1.626029 -1.312078 0
M  V30 11 C -0.599965 -2.398966 -2.527600 0
M  V30 12 C -1.360574 -2.033554 -3.736832 0
M  V30 13 C -0.984256 -1.017415 -4.585087 0
M  V30 14 C -1.622672 -0.608663 -5.723396 0
M  V30 15 N -2.753214 -1.302213 -6.026197 0
M  V30 16 C -3.170375 -2.301729 -5.239253 0
M  V30 17 C -2.528846 -2.717000 -4.089921 0
M  V30 18 C 0.622658 0.828941 1.621865 0
M  V30 19 C 1.402830 0.440301 2.693005 0
M  V30 20 C 2.618083 1.217509 3.007684 0
M  V30 21 H 1.947930 -0.133262 5.322698 0
M  V30 22 H 1.602138 -1.889490 5.146979 0
M  V30 23 H 2.978220 -1.217765 4.233557 0
M  V30 24 H -0.316433 -2.259500 3.814702 0
M  V30 25 H -1.743748 -1.559383 1.865740 0
M  V30 26 H -1.513988 0.106505 -2.258049 0
M  V30 27 H -2.132469 -1.904109 -1.137309 0
M  V30 28 H -0.479603 -1.985606 -0.455296 0
M  V30 29 H 0.486788 -2.301135 -2.690766 0
M  V30 30 H -0.788368 -3.473257 -2.319810 0
M  V30 31 H -0.072235 -0.481105 -4.312811 0
M  V30 32 H -1.248849 0.205105 -6.329603 0
M  V30 33 H -4.073806 -2.871512 -5.462421 0
M  V30 34 H -2.873274 -3.524953 -3.461078 0
M  V30 35 H 0.891984 1.672850 1.033929 0
M  V30 36 H 2.897940 1.893031 2.178891 0
M  V30 37 H 3.490592 0.584427 3.229469 0
M  V30 38 H 2.403215 1.785076 3.941279 0
M  V30 END ATOM
M  V30 BEGIN BOND
M  V30 1 1 1 2
M  V30 2 2 2 3
M  V30 3 1 3 4
M  V30 4 2 4 5
M  V30 5 1 5 6
M  V30 6 2 6 7
M  V30 7 2 6 8
M  V30 8 1 6 9
M  V30 9 1 9 10
M  V30 10 1 10 11
M  V30 11 1 11 12
M  V30 12 2 12 13
M  V30 13 1 13 14
M  V30 14 2 14 15
M  V30 15 1 15 16
M  V30 16 2 16 17
M  V30 17 1 5 18
M  V30 18 2 18 19
M  V30 19 1 19 20
M  V30 20 1 19 2
M  V30 21 1 17 12
M  V30 22 1 1 21
M  V30 23 1 1 22
M  V30 24 1 1 23
M  V30 25 1 3 24
M  V30 26 1 4 25
M  V30 27 1 9 26
M  V30 28 1 10 27
M  V30 29 1 10 28
M  V30 30 1 11 29
M  V30 31 1 11 30
M  V30 32 1 13 31
M  V30 33 1 14 32
M  V30 34 1 16 33
M  V30 35 1 17 34
M  V30 36 1 18 35
M  V30 37 1 20 36
M  V30 38 1 20 37
M  V30 39 1 20 38
M  V30 END BOND
M  V30 END CTAB
M  END
>  <Dataset>  (136) 
ChEMBL_Kinases

>  <Ligand_Instance>  (136) 
nan

>  <PDB_ID>  (136) 
nan

>  <Standardized_SMILES>  (136) 
Cc1ccc(S(=O)(=O)NCCc2ccncc2)cc1C

>  <Name>  (136) 
nan

>  <Pocket>  (136) 
nan

>  <ATP_Site>  (136) 
nan

>  <Peripheral>  (136) 
nan

>  <Num_H_Atoms_ProtBoundConf>  (136) 
nan

>  <Num_Resolved_Atoms>  (136) 
nan

>  <Num_Not_Resolved_Atoms>  (136) 
nan

$$$$
CHEMBL1304601
     RDKit          3D

  0  0  0  0  0  0  0  0  0  0999 V3000
M  V30 BEGIN CTAB
M  V30 COUNTS 59 63 0 0 0
M  V30 BEGIN ATOM
M  V30 1 C 5.421629 -3.914592 7.013959 0
M  V30 2 O 6.185860 -3.503236 5.884825 0
M  V30 3 C 5.564749 -3.064800 4.724596 0
M  V30 4 C 6.344714 -2.675859 3.656267 0
M  V30 5 C 5.762870 -2.234842 2.487773 0
M  V30 6 C 4.401126 -2.151041 2.302192 0
M  V30 7 N 3.782590 -1.697704 1.107250 0
M  V30 8 C 2.353007 -1.622133 0.879853 0
M  V30 9 C 2.047480 -0.121764 0.777039 0
M  V30 10 N 2.710591 0.393320 -0.392165 0
M  V30 11 C 2.047634 1.053347 -1.483234 0
M  V30 12 O 2.349333 1.586175 -2.591659 0
M  V30 13 C 0.605417 1.218608 -1.408443 0
M  V30 14 C -0.071147 2.422356 -1.407830 0
M  V30 15 C -1.438588 2.565994 -1.335657 0
M  V30 16 C -2.239317 1.437281 -1.255626 0
M  V30 17 N -3.549465 1.427945 -1.181201 0
M  V30 18 C -4.230421 0.457998 -1.112353 0
M  V30 19 N -5.623245 0.026012 -1.018130 0
M  V30 20 C -6.647328 1.046695 -0.982663 0
M  V30 21 C -7.605453 0.757912 -2.117736 0
M  V30 22 C -7.202253 -0.419891 -2.962668 0
M  V30 23 C -6.904257 -1.646284 -2.167661 0
M  V30 24 C -6.042786 -1.362579 -0.956751 0
M  V30 25 S -2.953230 -0.891294 -1.142541 0
M  V30 26 C -1.589051 0.261734 -1.255684 0
M  V30 27 C -0.193355 0.095771 -1.328916 0
M  V30 28 C 4.135371 0.183038 -0.367673 0
M  V30 29 C 4.498244 -1.246336 -0.042342 0
M  V30 30 C 3.656127 -2.547784 3.390485 0
M  V30 31 C 4.194762 -2.996229 4.580206 0
M  V30 32 H 6.051048 -4.058710 7.893534 0
M  V30 33 H 4.903402 -4.849749 6.784970 0
M  V30 34 H 4.633647 -3.141659 7.228746 0
M  V30 35 H 7.419818 -2.721474 3.747704 0
M  V30 36 H 6.434390 -1.948803 1.699932 0
M  V30 37 H 1.736280 -2.066738 1.663146 0
M  V30 38 H 2.152715 -2.151790 -0.078324 0
M  V30 39 H 2.535608 0.336782 1.655442 0
M  V30 40 H 0.975821 0.090530 0.840485 0
M  V30 41 H 0.601399 3.295338 -1.472730 0
M  V30 42 H -1.772248 3.595681 -1.348888 0
M  V30 43 H -6.166749 2.044655 -1.106625 0
M  V30 44 H -7.174352 1.055369 0.000182 0
M  V30 45 H -8.647138 0.686498 -1.753757 0
M  V30 46 H -7.585781 1.639075 -2.791500 0
M  V30 47 H -6.363872 -0.205025 -3.635625 0
M  V30 48 H -8.107470 -0.666341 -3.588599 0
M  V30 49 H -6.340522 -2.352141 -2.811052 0
M  V30 50 H -7.845811 -2.192828 -1.872164 0
M  V30 51 H -5.175340 -2.051711 -0.900784 0
M  V30 52 H -6.658752 -1.486127 -0.057452 0
M  V30 53 H 0.176343 -0.916222 -1.318154 0
M  V30 54 H 4.580779 0.856864 0.389982 0
M  V30 55 H 4.609097 0.448994 -1.346259 0
M  V30 56 H 4.131374 -1.847165 -0.926317 0
M  V30 57 H 5.577521 -1.392767 -0.031516 0
M  V30 58 H 2.586803 -2.544565 3.415249 0
M  V30 59 H 3.629249 -3.308726 5.436411 0
M  V30 END ATOM
M  V30 BEGIN BOND
M  V30 1 1 1 2
M  V30 2 1 2 3
M  V30 3 2 3 4
M  V30 4 1 4 5
M  V30 5 2 5 6
M  V30 6 1 6 7
M  V30 7 1 7 8
M  V30 8 1 8 9
M  V30 9 1 9 10
M  V30 10 1 10 11
M  V30 11 2 11 12
M  V30 12 1 11 13
M  V30 13 2 13 14
M  V30 14 1 14 15
M  V30 15 2 15 16
M  V30 16 1 16 17
M  V30 17 2 17 18
M  V30 18 1 18 19
M  V30 19 1 19 20
M  V30 20 1 20 21
M  V30 21 1 21 22
M  V30 22 1 22 23
M  V30 23 1 23 24
M  V30 24 1 18 25
M  V30 25 1 25 26
M  V30 26 2 26 27
M  V30 27 1 10 28
M  V30 28 1 28 29
M  V30 29 1 6 30
M  V30 30 2 30 31
M  V30 31 1 31 3
M  V30 32 1 29 7
M  V30 33 1 27 13
M  V30 34 1 26 16
M  V30 35 1 24 19
M  V30 36 1 1 32
M  V30 37 1 1 33
M  V30 38 1 1 34
M  V30 39 1 4 35
M  V30 40 1 5 36
M  V30 41 1 8 37
M  V30 42 1 8 38
M  V30 43 1 9 39
M  V30 44 1 9 40
M  V30 45 1 14 41
M  V30 46 1 15 42
M  V30 47 1 20 43
M  V30 48 1 20 44
M  V30 49 1 21 45
M  V30 50 1 21 46
M  V30 51 1 22 47
M  V30 52 1 22 48
M  V30 53 1 23 49
M  V30 54 1 23 50
M  V30 55 1 24 51
M  V30 56 1 24 52
M  V30 57 1 27 53
M  V30 58 1 28 54
M  V30 59 1 28 55
M  V30 60 1 29 56
M  V30 61 1 29 57
M  V30 62 1 30 58
M  V30 63 1 31 59
M  V30 END BOND
M  V30 END CTAB
M  END
>  <Dataset>  (137) 
ChEMBL_Kinases

>  <Ligand_Instance>  (137) 
nan

>  <PDB_ID>  (137) 
nan

>  <Standardized_SMILES>  (137) 
COc1ccc(N2CCN(C(=O)c3ccc4nc(N5CCCCC5)sc4c3)CC2)cc1

>  <Name>  (137) 
nan

>  <Pocket>  (137) 
nan

>  <ATP_Site>  (137) 
nan

>  <Peripheral>  (137) 
nan

>  <Num_H_Atoms_ProtBoundConf>  (137) 
nan

>  <Num_Resolved_Atoms>  (137) 
nan

>  <Num_Not_Resolved_Atoms>  (137) 
nan

$$$$
CHEMBL1304398
     RDKit          3D

  0  0  0  0  0  0  0  0  0  0999 V3000
M  V30 BEGIN CTAB
M  V30 COUNTS 35 37 0 0 0
M  V30 BEGIN ATOM
M  V30 1 O -2.729497 -0.120352 -0.078839 0
M  V30 2 C -3.065737 0.217939 1.092250 0
M  V30 3 N -2.010731 0.359461 2.039445 0
M  V30 4 C -0.742360 0.080413 1.452438 0
M  V30 5 C -0.333417 -1.235606 1.520184 0
M  V30 6 C 0.893437 -1.534028 0.958361 0
M  V30 7 C 1.755072 -0.625100 0.329321 0
M  V30 8 N 2.984492 -1.016609 -0.214289 0
M  V30 9 C 3.487915 -2.383207 -0.184089 0
M  V30 10 C 4.673172 -2.461030 -1.080762 0
M  V30 11 C 5.094797 -1.029728 -1.289696 0
M  V30 12 C 3.935026 -0.182902 -0.872747 0
M  V30 13 C 1.253858 0.662263 0.314543 0
M  V30 14 Cl 2.196504 1.914182 -0.427640 0
M  V30 15 C 0.041009 1.047160 0.851109 0
M  V30 16 C -4.461245 0.457371 1.478413 0
M  V30 17 C -5.000541 0.827143 2.692074 0
M  V30 18 C -6.371403 0.933374 2.576237 0
M  V30 19 C -6.608295 0.607940 1.236294 0
M  V30 20 O -5.459847 0.336878 0.634322 0
M  V30 21 H -2.203729 0.637699 3.034633 0
M  V30 22 H -0.911110 -2.015988 1.977769 0
M  V30 23 H 1.217350 -2.572225 1.011148 0
M  V30 24 H 3.681359 -2.724973 0.852363 0
M  V30 25 H 2.684914 -3.027854 -0.605260 0
M  V30 26 H 4.487956 -2.985555 -2.040547 0
M  V30 27 H 5.487294 -3.031048 -0.565114 0
M  V30 28 H 6.045423 -0.793944 -0.747598 0
M  V30 29 H 5.371990 -0.937500 -2.366570 0
M  V30 30 H 4.365568 0.600393 -0.187772 0
M  V30 31 H 3.548451 0.273439 -1.830833 0
M  V30 32 H -0.307740 2.070190 0.814150 0
M  V30 33 H -4.421157 1.002981 3.588489 0
M  V30 34 H -7.107026 1.202531 3.328591 0
M  V30 35 H -7.577587 0.574835 0.738913 0
M  V30 END ATOM
M  V30 BEGIN BOND
M  V30 1 2 1 2
M  V30 2 1 2 3
M  V30 3 1 3 4
M  V30 4 2 4 5
M  V30 5 1 5 6
M  V30 6 2 6 7
M  V30 7 1 7 8
M  V30 8 1 8 9
M  V30 9 1 9 10
M  V30 10 1 10 11
M  V30 11 1 11 12
M  V30 12 1 7 13
M  V30 13 1 13 14
M  V30 14 2 13 15
M  V30 15 1 2 16
M  V30 16 2 16 17
M  V30 17 1 17 18
M  V30 18 2 18 19
M  V30 19 1 19 20
M  V30 20 1 15 4
M  V30 21 1 20 16
M  V30 22 1 12 8
M  V30 23 1 3 21
M  V30 24 1 5 22
M  V30 25 1 6 23
M  V30 26 1 9 24
M  V30 27 1 9 25
M  V30 28 1 10 26
M  V30 29 1 10 27
M  V30 30 1 11 28
M  V30 31 1 11 29
M  V30 32 1 12 30
M  V30 33 1 12 31
M  V30 34 1 15 32
M  V30 35 1 17 33
M  V30 36 1 18 34
M  V30 37 1 19 35
M  V30 END BOND
M  V30 END CTAB
M  END
>  <Dataset>  (138) 
ChEMBL_Kinases

>  <Ligand_Instance>  (138) 
nan

>  <PDB_ID>  (138) 
nan

>  <Standardized_SMILES>  (138) 
O=C(Nc1ccc(N2CCCC2)c(Cl)c1)c1ccco1

>  <Name>  (138) 
nan

>  <Pocket>  (138) 
nan

>  <ATP_Site>  (138) 
nan

>  <Peripheral>  (138) 
nan

>  <Num_H_Atoms_ProtBoundConf>  (138) 
nan

>  <Num_Resolved_Atoms>  (138) 
nan

>  <Num_Not_Resolved_Atoms>  (138) 
nan

$$$$
CHEMBL1304242
     RDKit          3D

  0  0  0  0  0  0  0  0  0  0999 V3000
M  V30 BEGIN CTAB
M  V30 COUNTS 33 35 0 0 0
M  V30 BEGIN ATOM
M  V30 1 C -1.596554 -1.483961 4.909348 0
M  V30 2 C -0.392437 -0.668616 4.448002 0
M  V30 3 O -0.361713 -0.748496 3.046188 0
M  V30 4 C 0.550921 -0.165973 2.206797 0
M  V30 5 O 1.481078 0.525054 2.694875 0
M  V30 6 C 0.368161 -0.398706 0.772332 0
M  V30 7 C -0.603915 -1.131393 0.117050 0
M  V30 8 N -0.400346 -1.084079 -1.210722 0
M  V30 9 C 0.693894 -0.327556 -1.415200 0
M  V30 10 C 1.291394 0.005231 -2.635491 0
M  V30 11 C 2.425525 0.803849 -2.647059 0
M  V30 12 C 2.900458 1.227164 -1.424859 0
M  V30 13 O 4.044345 2.032138 -1.443628 0
M  V30 14 C 2.327892 0.911635 -0.208976 0
M  V30 15 C 1.199152 0.115925 -0.209714 0
M  V30 16 C -1.440775 -1.865333 -1.871280 0
M  V30 17 C -2.585892 -1.737191 -0.889079 0
M  V30 18 C -1.811330 -1.961383 0.408554 0
M  V30 19 H -2.434265 -1.391843 4.164400 0
M  V30 20 H -1.999764 -1.108203 5.864933 0
M  V30 21 H -1.382219 -2.557222 5.009282 0
M  V30 22 H -0.434836 0.350284 4.840352 0
M  V30 23 H 0.502652 -1.202035 4.870930 0
M  V30 24 H 0.885834 -0.348428 -3.571036 0
M  V30 25 H 2.918359 1.084800 -3.564395 0
M  V30 26 H 3.968735 3.032292 -1.676410 0
M  V30 27 H 2.742063 1.271225 0.724600 0
M  V30 28 H -1.070071 -2.904889 -1.856793 0
M  V30 29 H -1.673761 -1.478799 -2.862447 0
M  V30 30 H -2.955300 -0.692161 -0.886262 0
M  V30 31 H -3.382550 -2.481456 -1.025393 0
M  V30 32 H -1.469478 -3.000156 0.458110 0
M  V30 33 H -2.364278 -1.603790 1.298099 0
M  V30 END ATOM
M  V30 BEGIN BOND
M  V30 1 1 1 2
M  V30 2 1 2 3
M  V30 3 1 3 4
M  V30 4 2 4 5
M  V30 5 1 4 6
M  V30 6 2 6 7
M  V30 7 1 7 8
M  V30 8 1 8 9
M  V30 9 2 9 10
M  V30 10 1 10 11
M  V30 11 2 11 12
M  V30 12 1 12 13
M  V30 13 1 12 14
M  V30 14 2 14 15
M  V30 15 1 8 16
M  V30 16 1 16 17
M  V30 17 1 17 18
M  V30 18 1 15 6
M  V30 19 1 18 7
M  V30 20 1 15 9
M  V30 21 1 1 19
M  V30 22 1 1 20
M  V30 23 1 1 21
M  V30 24 1 2 22
M  V30 25 1 2 23
M  V30 26 1 10 24
M  V30 27 1 11 25
M  V30 28 1 13 26
M  V30 29 1 14 27
M  V30 30 1 16 28
M  V30 31 1 16 29
M  V30 32 1 17 30
M  V30 33 1 17 31
M  V30 34 1 18 32
M  V30 35 1 18 33
M  V30 END BOND
M  V30 END CTAB
M  END
>  <Dataset>  (139) 
ChEMBL_Kinases

>  <Ligand_Instance>  (139) 
nan

>  <PDB_ID>  (139) 
nan

>  <Standardized_SMILES>  (139) 
CCOC(=O)c1c2n(c3ccc(O)cc13)CCC2

>  <Name>  (139) 
nan

>  <Pocket>  (139) 
nan

>  <ATP_Site>  (139) 
nan

>  <Peripheral>  (139) 
nan

>  <Num_H_Atoms_ProtBoundConf>  (139) 
nan

>  <Num_Resolved_Atoms>  (139) 
nan

>  <Num_Not_Resolved_Atoms>  (139) 
nan

$$$$
CHEMBL1304198
     RDKit          3D

  0  0  0  0  0  0  0  0  0  0999 V3000
M  V30 BEGIN CTAB
M  V30 COUNTS 53 55 0 0 0
M  V30 BEGIN ATOM
M  V30 1 C 3.446655 -2.437682 4.627060 0
M  V30 2 C 4.000760 -1.849878 3.346209 0
M  V30 3 N 3.344152 -2.434419 2.177730 0
M  V30 4 C 3.795652 -3.765190 2.249203 0
M  V30 5 C 3.410030 -4.699072 1.134239 0
M  V30 6 C 2.526416 -1.661646 1.326074 0
M  V30 7 C 2.402125 -0.311350 1.531689 0
M  V30 8 C 1.618697 0.522124 0.770419 0
M  V30 9 C 0.874598 0.034665 -0.292834 0
M  V30 10 C -0.010164 0.764841 -1.227124 0
M  V30 11 N -1.358829 0.921017 -0.815828 0
M  V30 12 C -1.709382 2.133657 -0.163069 0
M  V30 13 O -0.671409 2.875866 -0.089326 0
M  V30 14 C -2.838562 2.800554 0.439822 0
M  V30 15 C -3.991922 3.279588 -0.145143 0
M  V30 16 C -4.792502 3.842500 0.816552 0
M  V30 17 C -4.038466 3.658692 1.969452 0
M  V30 18 O -2.906547 3.050773 1.723566 0
M  V30 19 C -2.597250 0.204135 -0.840652 0
M  V30 20 C -3.106317 -0.107185 -2.195537 0
M  V30 21 C -2.560138 -1.444101 -2.641500 0
M  V30 22 S -2.764207 -2.382116 -1.127253 0
M  V30 23 O -1.732651 -3.426760 -0.947087 0
M  V30 24 O -4.133753 -3.016535 -1.089507 0
M  V30 25 C -2.638702 -1.034092 0.017064 0
M  V30 26 C 0.964991 -1.342597 -0.546070 0
M  V30 27 C 1.775254 -2.099931 0.268041 0
M  V30 28 H 4.034847 -3.312866 4.969957 0
M  V30 29 H 3.374821 -1.617402 5.366672 0
M  V30 30 H 2.419674 -2.811656 4.450634 0
M  V30 31 H 5.093893 -2.015458 3.234876 0
M  V30 32 H 3.874934 -0.759228 3.350655 0
M  V30 33 H 3.357894 -4.238396 3.187676 0
M  V30 34 H 4.913896 -3.886632 2.393815 0
M  V30 35 H 3.667680 -4.341485 0.126283 0
M  V30 36 H 2.359039 -5.035346 1.159174 0
M  V30 37 H 4.068948 -5.640552 1.247656 0
M  V30 38 H 2.867781 0.304457 2.275343 0
M  V30 39 H 1.493683 1.579695 0.891931 0
M  V30 40 H 0.466419 1.782392 -1.333558 0
M  V30 41 H 0.081569 0.324321 -2.236329 0
M  V30 42 H -4.240330 3.225954 -1.206884 0
M  V30 43 H -5.752420 4.300095 0.672633 0
M  V30 44 H -4.362692 3.989308 2.971236 0
M  V30 45 H -3.340053 0.901855 -0.350431 0
M  V30 46 H -4.227867 -0.191803 -2.141205 0
M  V30 47 H -2.830740 0.722282 -2.868717 0
M  V30 48 H -1.530081 -1.406472 -2.992379 0
M  V30 49 H -3.295248 -1.851476 -3.372541 0
M  V30 50 H -1.814738 -1.121127 0.721172 0
M  V30 51 H -3.577881 -1.063986 0.639391 0
M  V30 52 H 0.404415 -1.791291 -1.373076 0
M  V30 53 H 1.770092 -3.135019 0.007434 0
M  V30 END ATOM
M  V30 BEGIN BOND
M  V30 1 1 1 2
M  V30 2 1 2 3
M  V30 3 1 3 4
M  V30 4 1 4 5
M  V30 5 1 3 6
M  V30 6 2 6 7
M  V30 7 1 7 8
M  V30 8 2 8 9
M  V30 9 1 9 10
M  V30 10 1 10 11
M  V30 11 1 11 12
M  V30 12 2 12 13
M  V30 13 1 12 14
M  V30 14 2 14 15
M  V30 15 1 15 16
M  V30 16 2 16 17
M  V30 17 1 17 18
M  V30 18 1 11 19
M  V30 19 1 19 20
M  V30 20 1 20 21
M  V30 21 1 21 22
M  V30 22 2 22 23
M  V30 23 2 22 24
M  V30 24 1 22 25
M  V30 25 1 9 26
M  V30 26 2 26 27
M  V30 27 1 27 6
M  V30 28 1 18 14
M  V30 29 1 25 19
M  V30 30 1 1 28
M  V30 31 1 1 29
M  V30 32 1 1 30
M  V30 33 1 2 31
M  V30 34 1 2 32
M  V30 35 1 4 33
M  V30 36 1 4 34
M  V30 37 1 5 35
M  V30 38 1 5 36
M  V30 39 1 5 37
M  V30 40 1 7 38
M  V30 41 1 8 39
M  V30 42 1 10 40
M  V30 43 1 10 41
M  V30 44 1 15 42
M  V30 45 1 16 43
M  V30 46 1 17 44
M  V30 47 1 19 45
M  V30 48 1 20 46
M  V30 49 1 20 47
M  V30 50 1 21 48
M  V30 51 1 21 49
M  V30 52 1 25 50
M  V30 53 1 25 51
M  V30 54 1 26 52
M  V30 55 1 27 53
M  V30 END BOND
M  V30 END CTAB
M  END
>  <Dataset>  (140) 
ChEMBL_Kinases

>  <Ligand_Instance>  (140) 
nan

>  <PDB_ID>  (140) 
nan

>  <Standardized_SMILES>  (140) 
CCN(CC)c1ccc(CN(C(=O)c2ccco2)C2CCS(=O)(=O)C2)cc1

>  <Name>  (140) 
nan

>  <Pocket>  (140) 
nan

>  <ATP_Site>  (140) 
nan

>  <Peripheral>  (140) 
nan

>  <Num_H_Atoms_ProtBoundConf>  (140) 
nan

>  <Num_Resolved_Atoms>  (140) 
nan

>  <Num_Not_Resolved_Atoms>  (140) 
nan

$$$$
CHEMBL130414
     RDKit          3D

  0  0  0  0  0  0  0  0  0  0999 V3000
M  V30 BEGIN CTAB
M  V30 COUNTS 27 29 0 0 0
M  V30 BEGIN ATOM
M  V30 1 C -1.388024 -0.877018 4.054116 0
M  V30 2 O -0.672054 -2.023529 3.650348 0
M  V30 3 C 0.001680 -2.044342 2.444679 0
M  V30 4 C 0.676612 -3.237364 2.151655 0
M  V30 5 C 1.379319 -3.367117 0.976931 0
M  V30 6 C 1.385455 -2.287995 0.124747 0
M  V30 7 C 0.749703 -1.089693 0.347549 0
M  V30 8 C 0.073895 -1.032370 1.523953 0
M  V30 9 C 0.998270 -0.268856 -0.802158 0
M  V30 10 C 0.641003 0.956906 -0.901169 0
M  V30 11 S 0.867487 2.112801 -2.291290 0
M  V30 12 C -0.835204 2.761129 -2.064803 0
M  V30 13 S -2.202228 3.181275 -2.871634 0
M  V30 14 N -0.772870 2.884981 -0.619449 0
M  V30 15 C 0.038483 1.899952 0.024754 0
M  V30 16 O 0.212076 1.867563 1.271443 0
M  V30 17 C 1.810999 -1.000058 -1.762557 0
M  V30 18 O 2.185652 -0.556863 -2.853765 0
M  V30 19 N 2.048962 -2.282485 -1.155901 0
M  V30 20 H -2.005078 -0.532017 3.210779 0
M  V30 21 H -0.637280 -0.113545 4.347289 0
M  V30 22 H -2.052621 -1.146571 4.903719 0
M  V30 23 H 0.655448 -4.062023 2.836046 0
M  V30 24 H 1.882893 -4.301036 0.790522 0
M  V30 25 H -0.514186 -0.212939 1.843950 0
M  V30 26 H -1.296487 3.649241 -0.073457 0
M  V30 27 H 2.613754 -3.022389 -1.628062 0
M  V30 END ATOM
M  V30 BEGIN BOND
M  V30 1 1 1 2
M  V30 2 1 2 3
M  V30 3 2 3 4
M  V30 4 1 4 5
M  V30 5 2 5 6
M  V30 6 1 6 7
M  V30 7 2 7 8
M  V30 8 1 7 9
M  V30 9 2 9 10
M  V30 10 1 10 11
M  V30 11 1 11 12
M  V30 12 2 12 13
M  V30 13 1 12 14
M  V30 14 1 14 15
M  V30 15 2 15 16
M  V30 16 1 9 17
M  V30 17 2 17 18
M  V30 18 1 17 19
M  V30 19 1 8 3
M  V30 20 1 15 10
M  V30 21 1 19 6
M  V30 22 1 1 20
M  V30 23 1 1 21
M  V30 24 1 1 22
M  V30 25 1 4 23
M  V30 26 1 5 24
M  V30 27 1 8 25
M  V30 28 1 14 26
M  V30 29 1 19 27
M  V30 END BOND
M  V30 END CTAB
M  END
>  <Dataset>  (141) 
ChEMBL_Kinases

>  <Ligand_Instance>  (141) 
nan

>  <PDB_ID>  (141) 
nan

>  <Standardized_SMILES>  (141) 
COc1ccc2c(c1)/C(=C1/SC(=S)NC1=O)C(=O)N2

>  <Name>  (141) 
nan

>  <Pocket>  (141) 
nan

>  <ATP_Site>  (141) 
nan

>  <Peripheral>  (141) 
nan

>  <Num_H_Atoms_ProtBoundConf>  (141) 
nan

>  <Num_Resolved_Atoms>  (141) 
nan

>  <Num_Not_Resolved_Atoms>  (141) 
nan

$$$$
CHEMBL1304071
     RDKit          3D

  0  0  0  0  0  0  0  0  0  0999 V3000
M  V30 BEGIN CTAB
M  V30 COUNTS 43 45 0 0 0
M  V30 BEGIN ATOM
M  V30 1 C 0.909659 -6.545447 -0.958053 0
M  V30 2 O 1.401671 -5.439423 -1.700079 0
M  V30 3 C 1.144697 -4.129190 -1.341323 0
M  V30 4 C 1.595473 -2.973543 -2.025164 0
M  V30 5 C 1.271447 -1.675865 -1.571443 0
M  V30 6 C 0.448452 -1.365439 -0.367986 0
M  V30 7 N 0.534835 -0.009438 -0.518999 0
M  V30 8 C -0.377868 0.804729 -1.301341 0
M  V30 9 S 1.790883 0.961542 0.176053 0
M  V30 10 O 2.701370 -0.000243 0.932913 0
M  V30 11 O 2.650912 1.544098 -0.898652 0
M  V30 12 C 1.221489 2.183210 1.241345 0
M  V30 13 C 1.598620 3.513311 0.992362 0
M  V30 14 C 1.222018 4.574860 1.775145 0
M  V30 15 C 0.420252 4.412204 2.902048 0
M  V30 16 C 0.030590 3.093870 3.170720 0
M  V30 17 C -0.767869 2.879592 4.269484 0
M  V30 18 C -1.202148 1.609441 4.603432 0
M  V30 19 C -0.753948 0.634520 3.735237 0
M  V30 20 N 0.045849 0.783038 2.620875 0
M  V30 21 C 0.429617 2.084565 2.364682 0
M  V30 22 C 0.273594 -2.670151 -0.085696 0
M  V30 23 O -0.521348 -2.172435 1.061163 0
M  V30 24 C -1.052568 -3.145884 1.902367 0
M  V30 25 C 0.328447 -3.968375 -0.141783 0
M  V30 26 H 1.450624 -6.700074 -0.007659 0
M  V30 27 H -0.171474 -6.328323 -0.698521 0
M  V30 28 H 0.858309 -7.452644 -1.605666 0
M  V30 29 H 2.194984 -3.327700 -2.903664 0
M  V30 30 H 1.822557 -1.097903 -2.383413 0
M  V30 31 H -0.610243 1.764945 -0.773945 0
M  V30 32 H -1.325862 0.327949 -1.552122 0
M  V30 33 H 0.132155 1.146310 -2.248798 0
M  V30 34 H 2.230631 3.785768 0.138112 0
M  V30 35 H 1.543290 5.595314 1.535221 0
M  V30 36 H 0.162750 5.274189 3.475673 0
M  V30 37 H -1.073775 3.704030 4.900939 0
M  V30 38 H -1.830409 1.348133 5.442684 0
M  V30 39 H -1.058403 -0.397073 3.911243 0
M  V30 40 H -1.806468 -3.732286 1.307228 0
M  V30 41 H -0.281461 -3.880735 2.222214 0
M  V30 42 H -1.520423 -2.686714 2.815950 0
M  V30 43 H -0.085945 -4.706113 0.476008 0
M  V30 END ATOM
M  V30 BEGIN BOND
M  V30 1 1 1 2
M  V30 2 1 2 3
M  V30 3 2 3 4
M  V30 4 1 4 5
M  V30 5 2 5 6
M  V30 6 1 6 7
M  V30 7 1 7 8
M  V30 8 1 7 9
M  V30 9 2 9 10
M  V30 10 2 9 11
M  V30 11 1 9 12
M  V30 12 2 12 13
M  V30 13 1 13 14
M  V30 14 2 14 15
M  V30 15 1 15 16
M  V30 16 2 16 17
M  V30 17 1 17 18
M  V30 18 2 18 19
M  V30 19 1 19 20
M  V30 20 2 20 21
M  V30 21 1 6 22
M  V30 22 1 22 23
M  V30 23 1 23 24
M  V30 24 2 22 25
M  V30 25 1 25 3
M  V30 26 1 21 12
M  V30 27 1 21 16
M  V30 28 1 1 26
M  V30 29 1 1 27
M  V30 30 1 1 28
M  V30 31 1 4 29
M  V30 32 1 5 30
M  V30 33 1 8 31
M  V30 34 1 8 32
M  V30 35 1 8 33
M  V30 36 1 13 34
M  V30 37 1 14 35
M  V30 38 1 15 36
M  V30 39 1 17 37
M  V30 40 1 18 38
M  V30 41 1 19 39
M  V30 42 1 24 40
M  V30 43 1 24 41
M  V30 44 1 24 42
M  V30 45 1 25 43
M  V30 END BOND
M  V30 END CTAB
M  END
>  <Dataset>  (142) 
ChEMBL_Kinases

>  <Ligand_Instance>  (142) 
nan

>  <PDB_ID>  (142) 
nan

>  <Standardized_SMILES>  (142) 
COc1ccc(N(C)S(=O)(=O)c2cccc3cccnc23)c(OC)c1

>  <Name>  (142) 
nan

>  <Pocket>  (142) 
nan

>  <ATP_Site>  (142) 
nan

>  <Peripheral>  (142) 
nan

>  <Num_H_Atoms_ProtBoundConf>  (142) 
nan

>  <Num_Resolved_Atoms>  (142) 
nan

>  <Num_Not_Resolved_Atoms>  (142) 
nan

$$$$
CHEMBL1304015
     RDKit          3D

  0  0  0  0  0  0  0  0  0  0999 V3000
M  V30 BEGIN CTAB
M  V30 COUNTS 44 46 0 0 0
M  V30 BEGIN ATOM
M  V30 1 O 1.637483 -4.980608 1.426939 0
M  V30 2 C 0.533760 -4.998681 2.024059 0
M  V30 3 N -0.379605 -3.939746 1.819908 0
M  V30 4 C -0.247977 -2.789701 1.004330 0
M  V30 5 C 0.824239 -2.442707 0.221295 0
M  V30 6 C 0.923228 -1.314658 -0.562064 0
M  V30 7 C -0.153306 -0.434440 -0.572934 0
M  V30 8 S -0.037999 0.998004 -1.559296 0
M  V30 9 O 0.832294 0.682791 -2.741755 0
M  V30 10 O -1.397433 1.346124 -2.064230 0
M  V30 11 N 0.616438 2.330158 -0.735410 0
M  V30 12 C -0.155536 2.760904 0.398364 0
M  V30 13 C -0.580413 4.201647 0.130354 0
M  V30 14 C 0.611862 5.105997 -0.029402 0
M  V30 15 C 1.589319 4.599279 -1.063336 0
M  V30 16 C 2.574804 3.657735 -0.405563 0
M  V30 17 C 2.021944 2.253357 -0.485285 0
M  V30 18 C -1.246563 -0.753961 0.203092 0
M  V30 19 C -1.291789 -1.897225 0.968384 0
M  V30 20 C 0.251770 -6.127355 2.907747 0
M  V30 21 C -0.906474 -6.303669 3.642241 0
M  V30 22 C -0.785020 -7.485444 4.343952 0
M  V30 23 C 0.459877 -7.979354 3.997832 0
M  V30 24 Br 1.427752 -9.546347 4.496334 0
M  V30 25 O 1.012316 -7.139742 3.157370 0
M  V30 26 H -1.256252 -4.071431 2.368528 0
M  V30 27 H 1.684320 -3.090120 0.193815 0
M  V30 28 H 1.789857 -1.104203 -1.149612 0
M  V30 29 H 0.413745 2.751112 1.349029 0
M  V30 30 H -1.074358 2.151263 0.505886 0
M  V30 31 H -1.260185 4.248061 -0.745089 0
M  V30 32 H -1.148539 4.553284 1.016762 0
M  V30 33 H 1.113620 5.211665 0.943639 0
M  V30 34 H 0.254391 6.089338 -0.352463 0
M  V30 35 H 2.177984 5.433551 -1.499583 0
M  V30 36 H 1.058894 4.108448 -1.921444 0
M  V30 37 H 3.564485 3.715831 -0.914884 0
M  V30 38 H 2.709418 4.008086 0.640637 0
M  V30 39 H 2.568492 1.578692 -1.142801 0
M  V30 40 H 2.143970 1.827604 0.554126 0
M  V30 41 H -2.094579 -0.084467 0.209458 0
M  V30 42 H -2.185715 -2.078476 1.550921 0
M  V30 43 H -1.782305 -5.690908 3.713470 0
M  V30 44 H -1.414329 -8.030511 5.034265 0
M  V30 END ATOM
M  V30 BEGIN BOND
M  V30 1 2 1 2
M  V30 2 1 2 3
M  V30 3 1 3 4
M  V30 4 2 4 5
M  V30 5 1 5 6
M  V30 6 2 6 7
M  V30 7 1 7 8
M  V30 8 2 8 9
M  V30 9 2 8 10
M  V30 10 1 8 11
M  V30 11 1 11 12
M  V30 12 1 12 13
M  V30 13 1 13 14
M  V30 14 1 14 15
M  V30 15 1 15 16
M  V30 16 1 16 17
M  V30 17 1 7 18
M  V30 18 2 18 19
M  V30 19 1 2 20
M  V30 20 2 20 21
M  V30 21 1 21 22
M  V30 22 2 22 23
M  V30 23 1 23 24
M  V30 24 1 23 25
M  V30 25 1 19 4
M  V30 26 1 25 20
M  V30 27 1 17 11
M  V30 28 1 3 26
M  V30 29 1 5 27
M  V30 30 1 6 28
M  V30 31 1 12 29
M  V30 32 1 12 30
M  V30 33 1 13 31
M  V30 34 1 13 32
M  V30 35 1 14 33
M  V30 36 1 14 34
M  V30 37 1 15 35
M  V30 38 1 15 36
M  V30 39 1 16 37
M  V30 40 1 16 38
M  V30 41 1 17 39
M  V30 42 1 17 40
M  V30 43 1 18 41
M  V30 44 1 19 42
M  V30 45 1 21 43
M  V30 46 1 22 44
M  V30 END BOND
M  V30 END CTAB
M  END
>  <Dataset>  (143) 
ChEMBL_Kinases

>  <Ligand_Instance>  (143) 
nan

>  <PDB_ID>  (143) 
nan

>  <Standardized_SMILES>  (143) 
O=C(Nc1ccc(S(=O)(=O)N2CCCCCC2)cc1)c1ccc(Br)o1

>  <Name>  (143) 
nan

>  <Pocket>  (143) 
nan

>  <ATP_Site>  (143) 
nan

>  <Peripheral>  (143) 
nan

>  <Num_H_Atoms_ProtBoundConf>  (143) 
nan

>  <Num_Resolved_Atoms>  (143) 
nan

>  <Num_Not_Resolved_Atoms>  (143) 
nan

$$$$
CHEMBL1303653
     RDKit          3D

  0  0  0  0  0  0  0  0  0  0999 V3000
M  V30 BEGIN CTAB
M  V30 COUNTS 43 45 0 0 0
M  V30 BEGIN ATOM
M  V30 1 O 2.571012 -1.421946 1.843247 0
M  V30 2 C 1.680400 -1.626945 0.948008 0
M  V30 3 C 1.761401 -2.891904 0.233985 0
M  V30 4 C 2.776242 -3.754489 0.591612 0
M  V30 5 C 2.909292 -4.987331 -0.061523 0
M  V30 6 C 2.011970 -5.319623 -1.062529 0
M  V30 7 F 2.105708 -6.516833 -1.727367 0
M  V30 8 C 0.988367 -4.475377 -1.439492 0
M  V30 9 C 0.890071 -3.262218 -0.768016 0
M  V30 10 C 0.678929 -0.551373 0.750210 0
M  V30 11 C 1.072301 0.707135 1.503132 0
M  V30 12 N 0.094917 1.745407 1.304098 0
M  V30 13 C 0.063956 2.251339 -0.033783 0
M  V30 14 C 0.443904 3.717392 -0.025951 0
M  V30 15 O 1.668012 3.925695 0.610970 0
M  V30 16 C 1.619229 3.527134 1.941626 0
M  V30 17 C 0.369347 2.776041 2.304947 0
M  V30 18 C -0.705651 -0.952807 1.029069 0
M  V30 19 C -1.849816 -0.930073 0.249943 0
M  V30 20 C -3.049946 -1.363997 0.734486 0
M  V30 21 C -3.178837 -1.844234 2.020038 0
M  V30 22 C -2.059620 -1.880393 2.821901 0
M  V30 23 C -0.832137 -1.437612 2.329275 0
M  V30 24 H 3.511198 -3.562649 1.360742 0
M  V30 25 H 3.711031 -5.669391 0.220336 0
M  V30 26 H 0.305317 -4.768576 -2.226044 0
M  V30 27 H 0.094624 -2.602489 -1.061453 0
M  V30 28 H 0.690745 -0.240752 -0.335100 0
M  V30 29 H 1.252986 0.492051 2.574997 0
M  V30 30 H 2.036258 1.114258 1.127012 0
M  V30 31 H 0.741521 1.748013 -0.743801 0
M  V30 32 H -0.987725 2.200993 -0.417686 0
M  V30 33 H 0.544595 4.035446 -1.073023 0
M  V30 34 H -0.324498 4.308072 0.477545 0
M  V30 35 H 2.481023 2.840661 2.134058 0
M  V30 36 H 1.709408 4.396703 2.622602 0
M  V30 37 H -0.515019 3.434679 2.415927 0
M  V30 38 H 0.568934 2.222102 3.253960 0
M  V30 39 H -1.627106 -0.530813 -0.746178 0
M  V30 40 H -3.832285 -1.275344 -0.005466 0
M  V30 41 H -4.185687 -2.164797 2.302302 0
M  V30 42 H -2.191528 -2.264749 3.832143 0
M  V30 43 H -0.037877 -1.525786 3.078031 0
M  V30 END ATOM
M  V30 BEGIN BOND
M  V30 1 2 1 2
M  V30 2 1 2 3
M  V30 3 2 3 4
M  V30 4 1 4 5
M  V30 5 2 5 6
M  V30 6 1 6 7
M  V30 7 1 6 8
M  V30 8 2 8 9
M  V30 9 1 2 10
M  V30 10 1 10 11
M  V30 11 1 11 12
M  V30 12 1 12 13
M  V30 13 1 13 14
M  V30 14 1 14 15
M  V30 15 1 15 16
M  V30 16 1 16 17
M  V30 17 1 10 18
M  V30 18 2 18 19
M  V30 19 1 19 20
M  V30 20 2 20 21
M  V30 21 1 21 22
M  V30 22 2 22 23
M  V30 23 1 9 3
M  V30 24 1 17 12
M  V30 25 1 23 18
M  V30 26 1 4 24
M  V30 27 1 5 25
M  V30 28 1 8 26
M  V30 29 1 9 27
M  V30 30 1 10 28
M  V30 31 1 11 29
M  V30 32 1 11 30
M  V30 33 1 13 31
M  V30 34 1 13 32
M  V30 35 1 14 33
M  V30 36 1 14 34
M  V30 37 1 16 35
M  V30 38 1 16 36
M  V30 39 1 17 37
M  V30 40 1 17 38
M  V30 41 1 19 39
M  V30 42 1 20 40
M  V30 43 1 21 41
M  V30 44 1 22 42
M  V30 45 1 23 43
M  V30 END BOND
M  V30 END CTAB
M  END
>  <Dataset>  (144) 
ChEMBL_Kinases

>  <Ligand_Instance>  (144) 
nan

>  <PDB_ID>  (144) 
nan

>  <Standardized_SMILES>  (144) 
O=C(c1ccc(F)cc1)C(CN1CCOCC1)c1ccccc1

>  <Name>  (144) 
nan

>  <Pocket>  (144) 
nan

>  <ATP_Site>  (144) 
nan

>  <Peripheral>  (144) 
nan

>  <Num_H_Atoms_ProtBoundConf>  (144) 
nan

>  <Num_Resolved_Atoms>  (144) 
nan

>  <Num_Not_Resolved_Atoms>  (144) 
nan

$$$$
CHEMBL1302290
     RDKit          3D

  0  0  0  0  0  0  0  0  0  0999 V3000
M  V30 BEGIN CTAB
M  V30 COUNTS 40 40 0 0 0
M  V30 BEGIN ATOM
M  V30 1 C 3.037251 -6.024562 -0.509892 0
M  V30 2 C 2.253453 -4.767641 -0.820825 0
M  V30 3 C 2.308206 -4.494504 -2.316578 0
M  V30 4 C 2.921162 -3.574868 -0.157261 0
M  V30 5 O 2.164736 -2.419339 -0.467999 0
M  V30 6 C 2.511031 -1.155512 -0.008719 0
M  V30 7 O 3.523973 -0.963440 0.715253 0
M  V30 8 N 1.723718 -0.018112 -0.343901 0
M  V30 9 C 2.050351 1.293710 0.110944 0
M  V30 10 C 2.087911 1.488743 1.588228 0
M  V30 11 O 0.886017 1.224692 2.245911 0
M  V30 12 C -0.299126 1.863724 2.019983 0
M  V30 13 O -0.233173 2.734661 1.151207 0
M  V30 14 N -1.505426 1.600889 2.677875 0
M  V30 15 C -2.770122 2.220645 2.497391 0
M  V30 16 C -3.831965 1.793364 3.265171 0
M  V30 17 C -5.091943 2.338986 3.155463 0
M  V30 18 C -5.357742 3.350303 2.263268 0
M  V30 19 C -4.311937 3.792853 1.486020 0
M  V30 20 Cl -4.610016 5.079743 0.337704 0
M  V30 21 C -3.076775 3.227768 1.622844 0
M  V30 22 H 2.382706 -6.894596 -0.464730 0
M  V30 23 H 3.614645 -5.909921 0.428883 0
M  V30 24 H 3.789021 -6.205755 -1.310450 0
M  V30 25 H 1.207901 -4.875362 -0.538212 0
M  V30 26 H 2.393028 -5.442713 -2.879223 0
M  V30 27 H 3.144813 -3.807094 -2.558370 0
M  V30 28 H 1.379211 -3.984758 -2.605619 0
M  V30 29 H 2.872314 -3.708607 0.943987 0
M  V30 30 H 3.973283 -3.502518 -0.458541 0
M  V30 31 H 0.872318 -0.199243 -0.956210 0
M  V30 32 H 3.101934 1.494317 -0.251557 0
M  V30 33 H 1.441314 2.072786 -0.347868 0
M  V30 34 H 2.879907 0.852881 2.032467 0
M  V30 35 H 2.379066 2.536026 1.783588 0
M  V30 36 H -1.408030 0.840137 3.384788 0
M  V30 37 H -3.665129 0.983594 3.994968 0
M  V30 38 H -5.854245 1.939509 3.796572 0
M  V30 39 H -6.361209 3.749904 2.209819 0
M  V30 40 H -2.318952 3.620864 0.989449 0
M  V30 END ATOM
M  V30 BEGIN BOND
M  V30 1 1 1 2
M  V30 2 1 2 3
M  V30 3 1 2 4
M  V30 4 1 4 5
M  V30 5 1 5 6
M  V30 6 2 6 7
M  V30 7 1 6 8
M  V30 8 1 8 9
M  V30 9 1 9 10
M  V30 10 1 10 11
M  V30 11 1 11 12
M  V30 12 2 12 13
M  V30 13 1 12 14
M  V30 14 1 14 15
M  V30 15 2 15 16
M  V30 16 1 16 17
M  V30 17 2 17 18
M  V30 18 1 18 19
M  V30 19 1 19 20
M  V30 20 2 19 21
M  V30 21 1 21 15
M  V30 22 1 1 22
M  V30 23 1 1 23
M  V30 24 1 1 24
M  V30 25 1 2 25
M  V30 26 1 3 26
M  V30 27 1 3 27
M  V30 28 1 3 28
M  V30 29 1 4 29
M  V30 30 1 4 30
M  V30 31 1 8 31
M  V30 32 1 9 32
M  V30 33 1 9 33
M  V30 34 1 10 34
M  V30 35 1 10 35
M  V30 36 1 14 36
M  V30 37 1 16 37
M  V30 38 1 17 38
M  V30 39 1 18 39
M  V30 40 1 21 40
M  V30 END BOND
M  V30 END CTAB
M  END
>  <Dataset>  (145) 
ChEMBL_Kinases

>  <Ligand_Instance>  (145) 
nan

>  <PDB_ID>  (145) 
nan

>  <Standardized_SMILES>  (145) 
CC(C)COC(=O)NCCOC(=O)Nc1cccc(Cl)c1

>  <Name>  (145) 
nan

>  <Pocket>  (145) 
nan

>  <ATP_Site>  (145) 
nan

>  <Peripheral>  (145) 
nan

>  <Num_H_Atoms_ProtBoundConf>  (145) 
nan

>  <Num_Resolved_Atoms>  (145) 
nan

>  <Num_Not_Resolved_Atoms>  (145) 
nan

$$$$
CHEMBL1302338
     RDKit          3D

  0  0  0  0  0  0  0  0  0  0999 V3000
M  V30 BEGIN CTAB
M  V30 COUNTS 31 32 0 0 0
M  V30 BEGIN ATOM
M  V30 1 N 0.584132 -1.636514 3.737693 0
M  V30 2 C 0.747851 -1.750289 2.314346 0
M  V30 3 O -0.278725 -1.620746 1.611061 0
M  V30 4 C 2.018682 -2.004589 1.637893 0
M  V30 5 C 3.146844 -2.112621 2.394679 0
M  V30 6 C 4.339002 -2.378747 1.672306 0
M  V30 7 S 3.837513 -2.478963 -0.098780 0
M  V30 8 C 2.082522 -2.151434 0.268678 0
M  V30 9 N 1.079151 -2.110295 -0.708296 0
M  V30 10 C 0.960507 -0.883726 -1.496030 0
M  V30 11 O 1.777045 0.022693 -1.243288 0
M  V30 12 C -0.110083 -0.797074 -2.532207 0
M  V30 13 S -0.918567 0.801621 -2.364507 0
M  V30 14 C -1.732854 0.873676 -0.769816 0
M  V30 15 C -0.813891 1.381135 0.150103 0
M  V30 16 C -1.170609 1.542086 1.492288 0
M  V30 17 C -2.429401 1.198626 1.902816 0
M  V30 18 C -3.326975 0.702085 0.998885 0
M  V30 19 C -2.985802 0.539128 -0.332337 0
M  V30 20 F -3.747951 0.051806 -1.354365 0
M  V30 21 H 1.255062 -1.092957 4.331583 0
M  V30 22 H -0.247024 -2.110702 4.193405 0
M  V30 23 H 3.275058 -2.027448 3.452947 0
M  V30 24 H 5.377118 -2.502489 2.062494 0
M  V30 25 H 0.373976 -2.860933 -0.962120 0
M  V30 26 H 0.350149 -0.823742 -3.558006 0
M  V30 27 H -0.803287 -1.633889 -2.381044 0
M  V30 28 H 0.231850 1.734469 0.073112 0
M  V30 29 H -0.552906 1.917019 2.290393 0
M  V30 30 H -2.803414 1.288857 2.926919 0
M  V30 31 H -4.360335 0.399642 1.204657 0
M  V30 END ATOM
M  V30 BEGIN BOND
M  V30 1 1 1 2
M  V30 2 2 2 3
M  V30 3 1 2 4
M  V30 4 1 4 5
M  V30 5 2 5 6
M  V30 6 1 6 7
M  V30 7 1 7 8
M  V30 8 1 8 9
M  V30 9 1 9 10
M  V30 10 2 10 11
M  V30 11 1 10 12
M  V30 12 1 12 13
M  V30 13 1 13 14
M  V30 14 2 14 15
M  V30 15 1 15 16
M  V30 16 2 16 17
M  V30 17 1 17 18
M  V30 18 2 18 19
M  V30 19 1 19 20
M  V30 20 2 8 4
M  V30 21 1 19 14
M  V30 22 1 1 21
M  V30 23 1 1 22
M  V30 24 1 5 23
M  V30 25 1 6 24
M  V30 26 1 9 25
M  V30 27 1 12 26
M  V30 28 1 12 27
M  V30 29 1 15 28
M  V30 30 1 16 29
M  V30 31 1 17 30
M  V30 32 1 18 31
M  V30 END BOND
M  V30 END CTAB
M  END
>  <Dataset>  (146) 
ChEMBL_Kinases

>  <Ligand_Instance>  (146) 
nan

>  <PDB_ID>  (146) 
nan

>  <Standardized_SMILES>  (146) 
NC(=O)c1ccsc1NC(=O)CSc1ccccc1F

>  <Name>  (146) 
nan

>  <Pocket>  (146) 
nan

>  <ATP_Site>  (146) 
nan

>  <Peripheral>  (146) 
nan

>  <Num_H_Atoms_ProtBoundConf>  (146) 
nan

>  <Num_Resolved_Atoms>  (146) 
nan

>  <Num_Not_Resolved_Atoms>  (146) 
nan

$$$$
CHEMBL1302381
     RDKit          3D

  0  0  0  0  0  0  0  0  0  0999 V3000
M  V30 BEGIN CTAB
M  V30 COUNTS 37 38 0 0 0
M  V30 BEGIN ATOM
M  V30 1 C -0.497937 -5.237810 2.914365 0
M  V30 2 C -1.617298 -4.259117 3.012114 0
M  V30 3 N -1.560299 -3.263154 1.928185 0
M  V30 4 C -0.867342 -2.141633 2.155014 0
M  V30 5 N -0.156640 -1.754231 3.324047 0
M  V30 6 C -0.826899 -1.202328 1.095638 0
M  V30 7 C -0.200440 0.129508 0.910527 0
M  V30 8 O 0.421188 0.487485 1.909652 0
M  V30 9 N -0.390634 0.765262 -0.310003 0
M  V30 10 C 0.212130 2.046699 -0.488055 0
M  V30 11 C -0.491702 3.197868 -0.143871 0
M  V30 12 C 0.113837 4.445344 -0.324796 0
M  V30 13 C 1.392543 4.498828 -0.839694 0
M  V30 14 C 2.129106 3.365512 -1.196209 0
M  V30 15 C 1.484983 2.151384 -0.997949 0
M  V30 16 C 2.266547 0.981154 -1.374603 0
M  V30 17 O 3.450206 1.008521 -1.852343 0
M  V30 18 O 1.926033 -0.344457 -1.305047 0
M  V30 19 C 2.879315 -1.305581 -1.740452 0
M  V30 20 S -1.842954 -2.044736 -0.221510 0
M  V30 21 C -2.183760 -3.460065 0.727155 0
M  V30 22 S -3.041339 -4.742077 0.316307 0
M  V30 23 H 0.075874 -5.195105 1.968269 0
M  V30 24 H -0.852918 -6.282381 3.141868 0
M  V30 25 H 0.233310 -5.003603 3.718772 0
M  V30 26 H -1.651211 -3.777777 4.014205 0
M  V30 27 H -2.585898 -4.781508 2.889932 0
M  V30 28 H 0.741555 -2.319967 3.360653 0
M  V30 29 H -0.564642 -1.023271 3.954522 0
M  V30 30 H -0.950210 0.330196 -1.070898 0
M  V30 31 H -1.483677 3.075555 0.251409 0
M  V30 32 H -0.432219 5.332175 -0.058093 0
M  V30 33 H 1.900810 5.463330 -0.995809 0
M  V30 34 H 3.128516 3.470849 -1.595375 0
M  V30 35 H 2.594917 -2.301555 -1.398486 0
M  V30 36 H 2.940508 -1.221854 -2.858836 0
M  V30 37 H 3.904289 -1.043883 -1.377635 0
M  V30 END ATOM
M  V30 BEGIN BOND
M  V30 1 1 1 2
M  V30 2 1 2 3
M  V30 3 1 3 4
M  V30 4 1 4 5
M  V30 5 2 4 6
M  V30 6 1 6 7
M  V30 7 2 7 8
M  V30 8 1 7 9
M  V30 9 1 9 10
M  V30 10 2 10 11
M  V30 11 1 11 12
M  V30 12 2 12 13
M  V30 13 1 13 14
M  V30 14 2 14 15
M  V30 15 1 15 16
M  V30 16 2 16 17
M  V30 17 1 16 18
M  V30 18 1 18 19
M  V30 19 1 6 20
M  V30 20 1 20 21
M  V30 21 2 21 22
M  V30 22 1 21 3
M  V30 23 1 15 10
M  V30 24 1 1 23
M  V30 25 1 1 24
M  V30 26 1 1 25
M  V30 27 1 2 26
M  V30 28 1 2 27
M  V30 29 1 5 28
M  V30 30 1 5 29
M  V30 31 1 9 30
M  V30 32 1 11 31
M  V30 33 1 12 32
M  V30 34 1 13 33
M  V30 35 1 14 34
M  V30 36 1 19 35
M  V30 37 1 19 36
M  V30 38 1 19 37
M  V30 END BOND
M  V30 END CTAB
M  END
>  <Dataset>  (147) 
ChEMBL_Kinases

>  <Ligand_Instance>  (147) 
nan

>  <PDB_ID>  (147) 
nan

>  <Standardized_SMILES>  (147) 
CCn1c(N)c(C(=O)Nc2ccccc2C(=O)OC)sc1=S

>  <Name>  (147) 
nan

>  <Pocket>  (147) 
nan

>  <ATP_Site>  (147) 
nan

>  <Peripheral>  (147) 
nan

>  <Num_H_Atoms_ProtBoundConf>  (147) 
nan

>  <Num_Resolved_Atoms>  (147) 
nan

>  <Num_Not_Resolved_Atoms>  (147) 
nan

$$$$
CHEMBL1302389
     RDKit          3D

  0  0  0  0  0  0  0  0  0  0999 V3000
M  V30 BEGIN CTAB
M  V30 COUNTS 51 53 0 0 0
M  V30 BEGIN ATOM
M  V30 1 C 6.449689 -1.927980 -1.565794 0
M  V30 2 C 6.970980 -1.716576 -0.187405 0
M  V30 3 N 8.214598 -1.904225 0.288847 0
M  V30 4 O 8.233840 -1.600212 1.538484 0
M  V30 5 C 7.087584 -1.205480 1.997437 0
M  V30 6 C 6.596925 -0.757053 3.326559 0
M  V30 7 C 6.237247 -1.269659 0.892463 0
M  V30 8 C 4.787107 -0.922630 0.865712 0
M  V30 9 O 4.538789 0.328776 0.243651 0
M  V30 10 C 3.194716 0.752742 0.171813 0
M  V30 11 C 2.205739 -0.049049 0.700384 0
M  V30 12 C 0.885284 0.341345 0.643578 0
M  V30 13 C 0.644009 1.557409 0.035634 0
M  V30 14 C -0.744657 1.997190 -0.033417 0
M  V30 15 O -1.419399 2.955136 -0.464042 0
M  V30 16 O -1.777615 1.251484 0.487358 0
M  V30 17 C -3.134407 1.648919 0.437701 0
M  V30 18 C -3.892784 0.562857 1.094677 0
M  V30 19 O -3.132398 -0.324930 1.470929 0
M  V30 20 N -5.260939 0.448970 1.312971 0
M  V30 21 C -6.236544 -0.424101 1.880735 0
M  V30 22 C -6.311892 -1.760599 1.266220 0
M  V30 23 C -7.227797 -1.889376 0.221877 0
M  V30 24 C -7.441713 -3.008686 -0.529842 0
M  V30 25 C -6.684846 -4.132289 -0.240011 0
M  V30 26 C -5.769148 -4.076430 0.771669 0
M  V30 27 C -5.611921 -2.910489 1.485448 0
M  V30 28 Cl -4.480328 -2.906706 2.806987 0
M  V30 29 C 1.606084 2.385421 -0.503770 0
M  V30 30 C 2.937472 1.970129 -0.435054 0
M  V30 31 H 5.354833 -1.991514 -1.539229 0
M  V30 32 H 6.684021 -0.982171 -2.133088 0
M  V30 33 H 6.970278 -2.742551 -2.080606 0
M  V30 34 H 5.591177 -1.234431 3.504435 0
M  V30 35 H 7.321703 -1.020437 4.111263 0
M  V30 36 H 6.453527 0.329710 3.281754 0
M  V30 37 H 4.296170 -1.722920 0.236053 0
M  V30 38 H 4.316062 -1.015077 1.861942 0
M  V30 39 H 2.398427 -1.002459 1.175837 0
M  V30 40 H 0.097872 -0.272927 1.052271 0
M  V30 41 H -3.280406 2.570121 1.072141 0
M  V30 42 H -3.506748 1.884803 -0.559841 0
M  V30 43 H -5.695401 1.339229 0.898906 0
M  V30 44 H -7.251932 0.007918 1.858617 0
M  V30 45 H -6.021311 -0.519240 2.990309 0
M  V30 46 H -7.867466 -1.048422 -0.073455 0
M  V30 47 H -8.161208 -3.067426 -1.330990 0
M  V30 48 H -6.774898 -5.068722 -0.774384 0
M  V30 49 H -5.175684 -4.926067 1.013309 0
M  V30 50 H 1.339139 3.328931 -0.967073 0
M  V30 51 H 3.695874 2.613040 -0.855310 0
M  V30 END ATOM
M  V30 BEGIN BOND
M  V30 1 1 1 2
M  V30 2 2 2 3
M  V30 3 1 3 4
M  V30 4 1 4 5
M  V30 5 1 5 6
M  V30 6 2 5 7
M  V30 7 1 7 8
M  V30 8 1 8 9
M  V30 9 1 9 10
M  V30 10 2 10 11
M  V30 11 1 11 12
M  V30 12 2 12 13
M  V30 13 1 13 14
M  V30 14 2 14 15
M  V30 15 1 14 16
M  V30 16 1 16 17
M  V30 17 1 17 18
M  V30 18 2 18 19
M  V30 19 1 18 20
M  V30 20 1 20 21
M  V30 21 1 21 22
M  V30 22 2 22 23
M  V30 23 1 23 24
M  V30 24 2 24 25
M  V30 25 1 25 26
M  V30 26 2 26 27
M  V30 27 1 27 28
M  V30 28 1 13 29
M  V30 29 2 29 30
M  V30 30 1 7 2
M  V30 31 1 30 10
M  V30 32 1 27 22
M  V30 33 1 1 31
M  V30 34 1 1 32
M  V30 35 1 1 33
M  V30 36 1 6 34
M  V30 37 1 6 35
M  V30 38 1 6 36
M  V30 39 1 8 37
M  V30 40 1 8 38
M  V30 41 1 11 39
M  V30 42 1 12 40
M  V30 43 1 17 41
M  V30 44 1 17 42
M  V30 45 1 20 43
M  V30 46 1 21 44
M  V30 47 1 21 45
M  V30 48 1 23 46
M  V30 49 1 24 47
M  V30 50 1 25 48
M  V30 51 1 26 49
M  V30 52 1 29 50
M  V30 53 1 30 51
M  V30 END BOND
M  V30 END CTAB
M  END
>  <Dataset>  (148) 
ChEMBL_Kinases

>  <Ligand_Instance>  (148) 
nan

>  <PDB_ID>  (148) 
nan

>  <Standardized_SMILES>  (148) 
Cc1noc(C)c1COc1ccc(C(=O)OCC(=O)NCc2ccccc2Cl)cc1

>  <Name>  (148) 
nan

>  <Pocket>  (148) 
nan

>  <ATP_Site>  (148) 
nan

>  <Peripheral>  (148) 
nan

>  <Num_H_Atoms_ProtBoundConf>  (148) 
nan

>  <Num_Resolved_Atoms>  (148) 
nan

>  <Num_Not_Resolved_Atoms>  (148) 
nan

$$$$
CHEMBL1302466
     RDKit          3D

  0  0  0  0  0  0  0  0  0  0999 V3000
M  V30 BEGIN CTAB
M  V30 COUNTS 54 56 0 0 0
M  V30 BEGIN ATOM
M  V30 1 C -0.566619 -5.556881 1.879889 0
M  V30 2 C -0.616791 -4.181616 1.325022 0
M  V30 3 C -1.571900 -3.296064 1.769318 0
M  V30 4 C -1.646359 -1.992678 1.267092 0
M  V30 5 C -0.702671 -1.672223 0.308056 0
M  V30 6 C 0.264236 -2.542799 -0.153056 0
M  V30 7 N 1.186773 -2.088040 -1.152108 0
M  V30 8 C 2.604473 -1.929991 -1.278992 0
M  V30 9 C 2.933180 -0.459160 -1.382294 0
M  V30 10 N 1.713570 0.309305 -1.527905 0
M  V30 11 C 1.136632 1.391865 -0.760422 0
M  V30 12 O 0.037556 1.820655 -1.196343 0
M  V30 13 C 2.061157 1.659331 0.335001 0
M  V30 14 C 1.620478 2.714584 1.311805 0
M  V30 15 C 0.341541 2.403535 2.029043 0
M  V30 16 O -0.779984 2.234459 1.230223 0
M  V30 17 C -2.057758 1.938133 1.736595 0
M  V30 18 C -3.113292 1.789508 0.839010 0
M  V30 19 C -4.385690 1.495835 1.324081 0
M  V30 20 C -4.569426 1.357801 2.702952 0
M  V30 21 C -3.493007 1.512769 3.571963 0
M  V30 22 C -2.226952 1.803964 3.103176 0
M  V30 23 C 1.047381 -0.230933 -2.724191 0
M  V30 24 C 0.641025 -1.642650 -2.421263 0
M  V30 25 C 0.306239 -3.820467 0.366242 0
M  V30 26 C 1.316983 -4.778742 -0.094976 0
M  V30 27 H -0.421372 -6.236830 1.002630 0
M  V30 28 H 0.356492 -5.660065 2.484601 0
M  V30 29 H -1.486873 -5.754499 2.440267 0
M  V30 30 H -2.319456 -3.556396 2.531916 0
M  V30 31 H -2.390388 -1.309583 1.616173 0
M  V30 32 H -0.799736 -0.645572 -0.054795 0
M  V30 33 H 3.152303 -2.321137 -0.376970 0
M  V30 34 H 3.027851 -2.515060 -2.142869 0
M  V30 35 H 3.551294 -0.107914 -0.531883 0
M  V30 36 H 3.549674 -0.272426 -2.283947 0
M  V30 37 H 3.011951 2.040927 -0.130163 0
M  V30 38 H 2.325567 0.763249 0.930378 0
M  V30 39 H 2.415866 2.823492 2.085875 0
M  V30 40 H 1.528251 3.716013 0.839197 0
M  V30 41 H 0.521759 1.404592 2.530817 0
M  V30 42 H 0.168912 3.092946 2.894821 0
M  V30 43 H -2.978781 1.894421 -0.223327 0
M  V30 44 H -5.263499 1.364392 0.685792 0
M  V30 45 H -5.548606 1.126615 3.149264 0
M  V30 46 H -3.635312 1.406000 4.637445 0
M  V30 47 H -1.410414 1.917824 3.812433 0
M  V30 48 H 1.702947 -0.133826 -3.588914 0
M  V30 49 H 0.152318 0.412951 -2.939115 0
M  V30 50 H 1.018002 -2.311053 -3.240565 0
M  V30 51 H -0.467008 -1.775081 -2.458582 0
M  V30 52 H 1.921579 -5.142659 0.755451 0
M  V30 53 H 0.790015 -5.659473 -0.532517 0
M  V30 54 H 1.936850 -4.324801 -0.892630 0
M  V30 END ATOM
M  V30 BEGIN BOND
M  V30 1 1 1 2
M  V30 2 2 2 3
M  V30 3 1 3 4
M  V30 4 2 4 5
M  V30 5 1 5 6
M  V30 6 1 6 7
M  V30 7 1 7 8
M  V30 8 1 8 9
M  V30 9 1 9 10
M  V30 10 1 10 11
M  V30 11 2 11 12
M  V30 12 1 11 13
M  V30 13 1 13 14
M  V30 14 1 14 15
M  V30 15 1 15 16
M  V30 16 1 16 17
M  V30 17 2 17 18
M  V30 18 1 18 19
M  V30 19 2 19 20
M  V30 20 1 20 21
M  V30 21 2 21 22
M  V30 22 1 10 23
M  V30 23 1 23 24
M  V30 24 2 6 25
M  V30 25 1 25 26
M  V30 26 1 25 2
M  V30 27 1 24 7
M  V30 28 1 22 17
M  V30 29 1 1 27
M  V30 30 1 1 28
M  V30 31 1 1 29
M  V30 32 1 3 30
M  V30 33 1 4 31
M  V30 34 1 5 32
M  V30 35 1 8 33
M  V30 36 1 8 34
M  V30 37 1 9 35
M  V30 38 1 9 36
M  V30 39 1 13 37
M  V30 40 1 13 38
M  V30 41 1 14 39
M  V30 42 1 14 40
M  V30 43 1 15 41
M  V30 44 1 15 42
M  V30 45 1 18 43
M  V30 46 1 19 44
M  V30 47 1 20 45
M  V30 48 1 21 46
M  V30 49 1 22 47
M  V30 50 1 23 48
M  V30 51 1 23 49
M  V30 52 1 24 50
M  V30 53 1 24 51
M  V30 54 1 26 52
M  V30 55 1 26 53
M  V30 56 1 26 54
M  V30 END BOND
M  V30 END CTAB
M  END
>  <Dataset>  (149) 
ChEMBL_Kinases

>  <Ligand_Instance>  (149) 
nan

>  <PDB_ID>  (149) 
nan

>  <Standardized_SMILES>  (149) 
Cc1cccc(N2CCN(C(=O)CCCOc3ccccc3)CC2)c1C

>  <Name>  (149) 
nan

>  <Pocket>  (149) 
nan

>  <ATP_Site>  (149) 
nan

>  <Peripheral>  (149) 
nan

>  <Num_H_Atoms_ProtBoundConf>  (149) 
nan

>  <Num_Resolved_Atoms>  (149) 
nan

>  <Num_Not_Resolved_Atoms>  (149) 
nan

$$$$
CHEMBL1302599
     RDKit          3D

  0  0  0  0  0  0  0  0  0  0999 V3000
M  V30 BEGIN CTAB
M  V30 COUNTS 37 39 0 0 0
M  V30 BEGIN ATOM
M  V30 1 C 5.412918 -3.844036 -0.754190 0
M  V30 2 N 6.307352 -2.918584 -1.427845 0
M  V30 3 S 5.367984 -1.937202 -2.517882 0
M  V30 4 O 6.282370 -1.016189 -3.280538 0
M  V30 5 O 4.654443 -2.860588 -3.463958 0
M  V30 6 C 4.199369 -1.020127 -1.648954 0
M  V30 7 C 4.385792 0.251724 -1.116355 0
M  V30 8 C 3.463495 1.002578 -0.417371 0
M  V30 9 C 2.211611 0.453425 -0.211050 0
M  V30 10 N 1.204865 1.006948 0.424905 0
M  V30 11 C 0.160271 0.629573 0.634277 0
M  V30 12 N -1.246097 0.601504 1.144283 0
M  V30 13 C -1.520432 0.082957 2.418533 0
M  V30 14 O -0.607129 -0.366014 3.158571 0
M  V30 15 C -2.890568 0.052732 2.919586 0
M  V30 16 C -3.955057 0.471335 2.295529 0
M  V30 17 C -5.317634 0.417885 2.847615 0
M  V30 18 C -6.468143 0.854207 2.215391 0
M  V30 19 C -7.477540 0.597821 3.118845 0
M  V30 20 C -6.915297 0.025804 4.246270 0
M  V30 21 O -5.608196 -0.060913 4.031464 0
M  V30 22 S 0.290317 -1.089032 -0.227376 0
M  V30 23 C 2.019767 -0.791647 -0.728961 0
M  V30 24 C 2.952397 -1.569982 -1.444664 0
M  V30 25 H 6.038310 -4.534463 -0.147294 0
M  V30 26 H 4.732177 -3.219694 -0.111761 0
M  V30 27 H 4.809095 -4.396267 -1.501252 0
M  V30 28 H 6.748419 -2.348197 -0.692189 0
M  V30 29 H 5.392253 0.666192 -1.296201 0
M  V30 30 H 3.821516 1.991026 -0.082622 0
M  V30 31 H -1.939163 0.982890 0.498032 0
M  V30 32 H -3.123436 -0.349247 3.912178 0
M  V30 33 H -3.811119 0.890857 1.287168 0
M  V30 34 H -6.523280 1.297535 1.221644 0
M  V30 35 H -8.500675 0.862640 2.837610 0
M  V30 36 H -7.566421 -0.246546 5.073144 0
M  V30 37 H 2.613112 -2.527327 -1.771613 0
M  V30 END ATOM
M  V30 BEGIN BOND
M  V30 1 1 1 2
M  V30 2 1 2 3
M  V30 3 2 3 4
M  V30 4 2 3 5
M  V30 5 1 3 6
M  V30 6 2 6 7
M  V30 7 1 7 8
M  V30 8 2 8 9
M  V30 9 1 9 10
M  V30 10 2 10 11
M  V30 11 1 11 12
M  V30 12 1 12 13
M  V30 13 2 13 14
M  V30 14 1 13 15
M  V30 15 2 15 16
M  V30 16 1 16 17
M  V30 17 2 17 18
M  V30 18 1 18 19
M  V30 19 2 19 20
M  V30 20 1 20 21
M  V30 21 1 11 22
M  V30 22 1 22 23
M  V30 23 2 23 24
M  V30 24 1 24 6
M  V30 25 1 23 9
M  V30 26 1 21 17
M  V30 27 1 1 25
M  V30 28 1 1 26
M  V30 29 1 1 27
M  V30 30 1 2 28
M  V30 31 1 7 29
M  V30 32 1 8 30
M  V30 33 1 12 31
M  V30 34 1 15 32
M  V30 35 1 16 33
M  V30 36 1 18 34
M  V30 37 1 19 35
M  V30 38 1 20 36
M  V30 39 1 24 37
M  V30 END BOND
M  V30 END CTAB
M  END
>  <Dataset>  (150) 
ChEMBL_Kinases

>  <Ligand_Instance>  (150) 
nan

>  <PDB_ID>  (150) 
nan

>  <Standardized_SMILES>  (150) 
CNS(=O)(=O)c1ccc2nc(NC(=O)/C=C/c3ccco3)sc2c1

>  <Name>  (150) 
nan

>  <Pocket>  (150) 
nan

>  <ATP_Site>  (150) 
nan

>  <Peripheral>  (150) 
nan

>  <Num_H_Atoms_ProtBoundConf>  (150) 
nan

>  <Num_Resolved_Atoms>  (150) 
nan

>  <Num_Not_Resolved_Atoms>  (150) 
nan

$$$$
CHEMBL1302705
     RDKit          3D

  0  0  0  0  0  0  0  0  0  0999 V3000
M  V30 BEGIN CTAB
M  V30 COUNTS 43 46 0 0 0
M  V30 BEGIN ATOM
M  V30 1 C 1.284726 -6.187724 1.219212 0
M  V30 2 C 0.605447 -5.522025 2.221683 0
M  V30 3 C 0.424116 -4.144863 2.087215 0
M  V30 4 C 0.888343 -3.426150 1.008698 0
M  V30 5 C 0.638959 -1.989870 0.977322 0
M  V30 6 C 1.044465 -1.162748 -0.031360 0
M  V30 7 C 0.781391 0.206582 -0.015407 0
M  V30 8 N 1.201589 1.073000 -1.063833 0
M  V30 9 C 1.919769 0.506231 -2.173980 0
M  V30 10 C 2.165057 1.448196 -3.291520 0
M  V30 11 O 1.962994 2.785439 -3.009388 0
M  V30 12 C 0.765209 3.031808 -2.355249 0
M  V30 13 C 0.885218 2.466977 -0.955629 0
M  V30 14 N 0.104900 0.650734 1.056330 0
M  V30 15 C -0.313086 -0.126093 2.070670 0
M  V30 16 C -1.042841 0.456400 3.192136 0
M  V30 17 C -1.465054 -0.354905 4.225667 0
M  V30 18 C -2.157246 0.245474 5.273367 0
M  V30 19 C -2.383957 1.622956 5.220919 0
M  V30 20 C -1.959312 2.420605 4.187571 0
M  V30 21 C -1.264404 1.818589 3.135534 0
M  V30 22 N -0.032467 -1.458249 2.010624 0
M  V30 23 C 1.563320 -4.106996 0.019067 0
M  V30 24 C 1.757910 -5.473413 0.126003 0
M  V30 25 H 1.404953 -7.257184 1.360750 0
M  V30 26 H 0.219823 -6.050115 3.094463 0
M  V30 27 H -0.120160 -3.678362 2.912854 0
M  V30 28 H 1.584279 -1.570683 -0.868578 0
M  V30 29 H 2.899458 0.175195 -1.769737 0
M  V30 30 H 1.411429 -0.421638 -2.544888 0
M  V30 31 H 1.432720 1.198297 -4.112741 0
M  V30 32 H 3.170176 1.364975 -3.761371 0
M  V30 33 H -0.124027 2.616662 -2.824762 0
M  V30 34 H 0.685339 4.139333 -2.271851 0
M  V30 35 H -0.094129 2.664227 -0.465297 0
M  V30 36 H 1.688859 3.003777 -0.390316 0
M  V30 37 H -1.274136 -1.426484 4.240198 0
M  V30 38 H -2.517861 -0.327220 6.115895 0
M  V30 39 H -2.914032 2.129078 6.007721 0
M  V30 40 H -2.149006 3.482942 4.173903 0
M  V30 41 H -0.915130 2.426759 2.301651 0
M  V30 42 H 1.932845 -3.579962 -0.824326 0
M  V30 43 H 2.278526 -6.048931 -0.620435 0
M  V30 END ATOM
M  V30 BEGIN BOND
M  V30 1 2 1 2
M  V30 2 1 2 3
M  V30 3 2 3 4
M  V30 4 1 4 5
M  V30 5 2 5 6
M  V30 6 1 6 7
M  V30 7 1 7 8
M  V30 8 1 8 9
M  V30 9 1 9 10
M  V30 10 1 10 11
M  V30 11 1 11 12
M  V30 12 1 12 13
M  V30 13 2 7 14
M  V30 14 1 14 15
M  V30 15 1 15 16
M  V30 16 2 16 17
M  V30 17 1 17 18
M  V30 18 2 18 19
M  V30 19 1 19 20
M  V30 20 2 20 21
M  V30 21 2 15 22
M  V30 22 1 4 23
M  V30 23 2 23 24
M  V30 24 1 24 1
M  V30 25 1 22 5
M  V30 26 1 13 8
M  V30 27 1 21 16
M  V30 28 1 1 25
M  V30 29 1 2 26
M  V30 30 1 3 27
M  V30 31 1 6 28
M  V30 32 1 9 29
M  V30 33 1 9 30
M  V30 34 1 10 31
M  V30 35 1 10 32
M  V30 36 1 12 33
M  V30 37 1 12 34
M  V30 38 1 13 35
M  V30 39 1 13 36
M  V30 40 1 17 37
M  V30 41 1 18 38
M  V30 42 1 19 39
M  V30 43 1 20 40
M  V30 44 1 21 41
M  V30 45 1 23 42
M  V30 46 1 24 43
M  V30 END BOND
M  V30 END CTAB
M  END
>  <Dataset>  (151) 
ChEMBL_Kinases

>  <Ligand_Instance>  (151) 
nan

>  <PDB_ID>  (151) 
nan

>  <Standardized_SMILES>  (151) 
c1ccc(-c2cc(N3CCOCC3)nc(-c3ccccc3)n2)cc1

>  <Name>  (151) 
nan

>  <Pocket>  (151) 
nan

>  <ATP_Site>  (151) 
nan

>  <Peripheral>  (151) 
nan

>  <Num_H_Atoms_ProtBoundConf>  (151) 
nan

>  <Num_Resolved_Atoms>  (151) 
nan

>  <Num_Not_Resolved_Atoms>  (151) 
nan

$$$$
CHEMBL1302760
     RDKit          3D

  0  0  0  0  0  0  0  0  0  0999 V3000
M  V30 BEGIN CTAB
M  V30 COUNTS 45 47 0 0 0
M  V30 BEGIN ATOM
M  V30 1 C -1.590668 -6.325296 1.640359 0
M  V30 2 C -0.837730 -5.264279 1.373367 0
M  V30 3 C -0.792962 -3.939831 2.059010 0
M  V30 4 N -1.121722 -2.842896 1.162346 0
M  V30 5 C -0.156652 -2.202388 0.445123 0
M  V30 6 N 1.232491 -2.350923 0.340476 0
M  V30 7 C 2.193805 -1.628709 -0.443700 0
M  V30 8 C 2.255038 -0.175857 -0.135853 0
M  V30 9 C 1.550515 0.853263 -0.727146 0
M  V30 10 C 1.731315 2.156150 -0.308911 0
M  V30 11 C 2.605047 2.505470 0.700647 0
M  V30 12 N 2.735007 3.871993 1.074412 0
M  V30 13 C 1.922229 4.833850 0.353822 0
M  V30 14 C 3.647985 4.258617 2.133405 0
M  V30 15 C 3.328230 1.504679 1.316842 0
M  V30 16 C 3.133835 0.208646 0.885107 0
M  V30 17 N -0.802619 -1.278019 -0.248471 0
M  V30 18 C -2.113300 -1.257425 -0.046787 0
M  V30 19 C -3.225275 -0.557851 -0.467298 0
M  V30 20 C -4.494872 -0.838997 -0.010716 0
M  V30 21 C -4.656148 -1.872807 0.913033 0
M  V30 22 C -3.554918 -2.595706 1.355554 0
M  V30 23 C -2.301474 -2.273379 0.865961 0
M  V30 24 H -1.641169 -7.312330 1.148880 0
M  V30 25 H -2.296454 -6.281828 2.467976 0
M  V30 26 H -0.135286 -5.342510 0.530312 0
M  V30 27 H 0.214989 -3.828351 2.494894 0
M  V30 28 H -1.517941 -3.948246 2.918441 0
M  V30 29 H 1.578957 -3.138049 0.961514 0
M  V30 30 H 1.897790 -1.702933 -1.513242 0
M  V30 31 H 3.196107 -2.040871 -0.305932 0
M  V30 32 H 0.880902 0.545997 -1.511297 0
M  V30 33 H 1.130326 2.901058 -0.835751 0
M  V30 34 H 0.873844 4.521523 0.412899 0
M  V30 35 H 2.322036 4.889982 -0.676991 0
M  V30 36 H 2.005433 5.830194 0.831135 0
M  V30 37 H 3.617614 3.529293 2.970391 0
M  V30 38 H 3.367644 5.234463 2.581338 0
M  V30 39 H 4.667046 4.358062 1.679512 0
M  V30 40 H 4.022505 1.724897 2.109163 0
M  V30 41 H 3.725212 -0.549084 1.399307 0
M  V30 42 H -3.062799 0.236311 -1.183380 0
M  V30 43 H -5.373555 -0.277532 -0.350604 0
M  V30 44 H -5.639575 -2.118666 1.291178 0
M  V30 45 H -3.691951 -3.392691 2.069821 0
M  V30 END ATOM
M  V30 BEGIN BOND
M  V30 1 2 1 2
M  V30 2 1 2 3
M  V30 3 1 3 4
M  V30 4 1 4 5
M  V30 5 1 5 6
M  V30 6 1 6 7
M  V30 7 1 7 8
M  V30 8 2 8 9
M  V30 9 1 9 10
M  V30 10 2 10 11
M  V30 11 1 11 12
M  V30 12 1 12 13
M  V30 13 1 12 14
M  V30 14 1 11 15
M  V30 15 2 15 16
M  V30 16 2 5 17
M  V30 17 1 17 18
M  V30 18 2 18 19
M  V30 19 1 19 20
M  V30 20 2 20 21
M  V30 21 1 21 22
M  V30 22 2 22 23
M  V30 23 1 23 4
M  V30 24 1 16 8
M  V30 25 1 23 18
M  V30 26 1 1 24
M  V30 27 1 1 25
M  V30 28 1 2 26
M  V30 29 1 3 27
M  V30 30 1 3 28
M  V30 31 1 6 29
M  V30 32 1 7 30
M  V30 33 1 7 31
M  V30 34 1 9 32
M  V30 35 1 10 33
M  V30 36 1 13 34
M  V30 37 1 13 35
M  V30 38 1 13 36
M  V30 39 1 14 37
M  V30 40 1 14 38
M  V30 41 1 14 39
M  V30 42 1 15 40
M  V30 43 1 16 41
M  V30 44 1 19 42
M  V30 45 1 20 43
M  V30 46 1 21 44
M  V30 47 1 22 45
M  V30 END BOND
M  V30 END CTAB
M  END
>  <Dataset>  (152) 
ChEMBL_Kinases

>  <Ligand_Instance>  (152) 
nan

>  <PDB_ID>  (152) 
nan

>  <Standardized_SMILES>  (152) 
C=CCn1c(NCc2ccc(N(C)C)cc2)nc2ccccc21

>  <Name>  (152) 
nan

>  <Pocket>  (152) 
nan

>  <ATP_Site>  (152) 
nan

>  <Peripheral>  (152) 
nan

>  <Num_H_Atoms_ProtBoundConf>  (152) 
nan

>  <Num_Resolved_Atoms>  (152) 
nan

>  <Num_Not_Resolved_Atoms>  (152) 
nan

$$$$
CHEMBL1303639
     RDKit          3D

  0  0  0  0  0  0  0  0  0  0999 V3000
M  V30 BEGIN CTAB
M  V30 COUNTS 49 52 0 0 0
M  V30 BEGIN ATOM
M  V30 1 C -0.991935 -6.879951 0.805805 0
M  V30 2 C 0.033251 -6.822777 -0.278669 0
M  V30 3 O 0.800711 -5.645598 -0.306390 0
M  V30 4 C 0.291528 -4.365015 -0.472386 0
M  V30 5 C 1.270580 -3.376881 -0.462312 0
M  V30 6 C 0.939769 -2.047227 -0.614533 0
M  V30 7 C -0.365765 -1.658786 -0.780488 0
M  V30 8 C -0.984526 -0.321996 -0.960157 0
M  V30 9 C -0.056716 0.798000 -0.646976 0
M  V30 10 C 0.245504 0.964220 0.810283 0
M  V30 11 C 1.034363 2.212043 0.976911 0
M  V30 12 C 0.451517 3.436360 0.729804 0
M  V30 13 C 1.157714 4.602283 0.876675 0
M  V30 14 C 2.468789 4.528878 1.278249 0
M  V30 15 C 3.043953 3.311221 1.522676 0
M  V30 16 C 2.359925 2.098991 1.385140 0
M  V30 17 C 2.999513 0.794482 1.653663 0
M  V30 18 N -0.950820 1.098494 1.615045 0
M  V30 19 N -1.263881 1.643121 2.758193 0
M  V30 20 C -2.567947 1.473144 3.056029 0
M  V30 21 N -3.196083 1.962213 4.244359 0
M  V30 22 N -3.080970 0.770247 2.008930 0
M  V30 23 C -2.085230 0.537110 1.117105 0
M  V30 24 N -2.166235 -0.168223 -0.136317 0
M  V30 25 C -1.350789 -2.653935 -0.790630 0
M  V30 26 C -1.025431 -3.989393 -0.638495 0
M  V30 27 H -1.071086 -5.942855 1.369219 0
M  V30 28 H -0.763333 -7.727421 1.502878 0
M  V30 29 H -2.005584 -7.123081 0.379684 0
M  V30 30 H -0.453807 -6.952293 -1.282597 0
M  V30 31 H 0.775887 -7.663479 -0.186846 0
M  V30 32 H 2.352334 -3.498935 -0.342769 0
M  V30 33 H 1.612814 -1.202239 -0.622962 0
M  V30 34 H -1.336771 -0.209549 -2.008144 0
M  V30 35 H -0.450239 1.740057 -1.089072 0
M  V30 36 H 0.900068 0.614581 -1.174834 0
M  V30 37 H 0.793668 0.093345 1.215590 0
M  V30 38 H -0.570168 3.549756 0.413665 0
M  V30 39 H 0.819732 5.624855 0.715431 0
M  V30 40 H 3.148488 5.374350 1.435544 0
M  V30 41 H 4.081977 3.184278 1.844900 0
M  V30 42 H 3.993753 1.003415 2.113111 0
M  V30 43 H 3.255872 0.261237 0.693891 0
M  V30 44 H 2.467091 0.166876 2.378078 0
M  V30 45 H -3.682558 1.182970 4.749376 0
M  V30 46 H -3.043328 3.004806 4.372143 0
M  V30 47 H -3.089709 -0.563486 -0.435253 0
M  V30 48 H -2.419124 -2.520100 -0.910014 0
M  V30 49 H -1.733861 -4.805566 -0.636936 0
M  V30 END ATOM
M  V30 BEGIN BOND
M  V30 1 1 1 2
M  V30 2 1 2 3
M  V30 3 1 3 4
M  V30 4 2 4 5
M  V30 5 1 5 6
M  V30 6 2 6 7
M  V30 7 1 7 8
M  V30 8 1 8 9
M  V30 9 1 9 10
M  V30 10 1 10 11
M  V30 11 2 11 12
M  V30 12 1 12 13
M  V30 13 2 13 14
M  V30 14 1 14 15
M  V30 15 2 15 16
M  V30 16 1 16 17
M  V30 17 1 10 18
M  V30 18 1 18 19
M  V30 19 2 19 20
M  V30 20 1 20 21
M  V30 21 1 20 22
M  V30 22 2 22 23
M  V30 23 1 23 24
M  V30 24 1 7 25
M  V30 25 2 25 26
M  V30 26 1 26 4
M  V30 27 1 24 8
M  V30 28 1 16 11
M  V30 29 1 23 18
M  V30 30 1 1 27
M  V30 31 1 1 28
M  V30 32 1 1 29
M  V30 33 1 2 30
M  V30 34 1 2 31
M  V30 35 1 5 32
M  V30 36 1 6 33
M  V30 37 1 8 34
M  V30 38 1 9 35
M  V30 39 1 9 36
M  V30 40 1 10 37
M  V30 41 1 12 38
M  V30 42 1 13 39
M  V30 43 1 14 40
M  V30 44 1 15 41
M  V30 45 1 17 42
M  V30 46 1 17 43
M  V30 47 1 17 44
M  V30 48 1 21 45
M  V30 49 1 21 46
M  V30 50 1 24 47
M  V30 51 1 25 48
M  V30 52 1 26 49
M  V30 END BOND
M  V30 END CTAB
M  END
>  <Dataset>  (153) 
ChEMBL_Kinases

>  <Ligand_Instance>  (153) 
nan

>  <PDB_ID>  (153) 
nan

>  <Standardized_SMILES>  (153) 
CCOc1ccc(C2CC(c3ccccc3C)n3nc(N)nc3N2)cc1

>  <Name>  (153) 
nan

>  <Pocket>  (153) 
nan

>  <ATP_Site>  (153) 
nan

>  <Peripheral>  (153) 
nan

>  <Num_H_Atoms_ProtBoundConf>  (153) 
nan

>  <Num_Resolved_Atoms>  (153) 
nan

>  <Num_Not_Resolved_Atoms>  (153) 
nan

$$$$
CHEMBL1303252
     RDKit          3D

  0  0  0  0  0  0  0  0  0  0999 V3000
M  V30 BEGIN CTAB
M  V30 COUNTS 56 59 0 0 0
M  V30 BEGIN ATOM
M  V30 1 C 1.068197 -2.772721 6.412344 0
M  V30 2 O 1.611494 -3.181069 5.157505 0
M  V30 3 C 2.246806 -2.247676 4.353391 0
M  V30 4 C 2.418477 -0.907980 4.647319 0
M  V30 5 C 3.073923 -0.104709 3.743001 0
M  V30 6 C 3.586515 -0.564826 2.524123 0
M  V30 7 C 4.267291 0.440409 1.668578 0
M  V30 8 N 3.320862 1.101279 0.764445 0
M  V30 9 C 2.797721 0.508649 -0.414231 0
M  V30 10 O 3.115840 -0.653064 -0.778664 0
M  V30 11 C 1.840951 1.253650 -1.270743 0
M  V30 12 C 0.567000 1.640472 -0.569651 0
M  V30 13 C -0.654580 1.020019 -1.198087 0
M  V30 14 N -0.489486 -0.306002 -1.631526 0
M  V30 15 S -1.092979 -1.499936 -0.576638 0
M  V30 16 O -0.470253 -1.242634 0.779554 0
M  V30 17 O -0.772400 -2.884097 -0.984658 0
M  V30 18 C -2.813487 -1.319600 -0.364127 0
M  V30 19 C -3.445187 -1.088307 0.855151 0
M  V30 20 C -4.816865 -0.963009 0.899506 0
M  V30 21 C -5.602722 -1.057182 -0.221228 0
M  V30 22 C -4.953428 -1.288963 -1.433606 0
M  V30 23 C -5.746768 -1.386001 -2.576813 0
M  V30 24 C -5.176211 -1.616577 -3.825044 0
M  V30 25 C -3.788910 -1.737310 -3.827972 0
M  V30 26 N -3.004635 -1.646388 -2.732364 0
M  V30 27 C -3.573590 -1.421955 -1.525681 0
M  V30 28 C 0.653029 -0.621764 -2.378295 0
M  V30 29 C 1.579355 0.521351 -2.566071 0
M  V30 30 C 3.395960 -1.901035 2.268576 0
M  V30 31 C 2.743799 -2.722533 3.157971 0
M  V30 32 H 0.629841 -3.657324 6.921120 0
M  V30 33 H 0.279264 -1.999156 6.269601 0
M  V30 34 H 1.842780 -2.359680 7.060187 0
M  V30 35 H 2.029297 -0.558280 5.573757 0
M  V30 36 H 3.178873 0.938223 4.027762 0
M  V30 37 H 5.096941 -0.025070 1.088406 0
M  V30 38 H 4.690378 1.239260 2.310442 0
M  V30 39 H 2.984081 2.067356 0.961895 0
M  V30 40 H 2.355204 2.197955 -1.548584 0
M  V30 41 H 0.451123 2.740098 -0.499337 0
M  V30 42 H 0.630038 1.261215 0.470787 0
M  V30 43 H -0.949136 1.651503 -2.063178 0
M  V30 44 H -1.538012 1.070939 -0.497228 0
M  V30 45 H -2.787641 -1.022104 1.706897 0
M  V30 46 H -5.276453 -0.782913 1.869071 0
M  V30 47 H -6.679163 -0.964316 -0.224228 0
M  V30 48 H -6.834348 -1.294006 -2.591416 0
M  V30 49 H -5.706207 -1.704945 -4.752600 0
M  V30 50 H -3.310704 -1.916629 -4.778420 0
M  V30 51 H 0.299458 -0.908800 -3.415792 0
M  V30 52 H 1.168859 -1.533755 -2.012918 0
M  V30 53 H 1.164852 1.192387 -3.346194 0
M  V30 54 H 2.580783 0.225172 -2.957611 0
M  V30 55 H 3.788985 -2.253953 1.338114 0
M  V30 56 H 2.648692 -3.759531 2.856250 0
M  V30 END ATOM
M  V30 BEGIN BOND
M  V30 1 1 1 2
M  V30 2 1 2 3
M  V30 3 2 3 4
M  V30 4 1 4 5
M  V30 5 2 5 6
M  V30 6 1 6 7
M  V30 7 1 7 8
M  V30 8 1 8 9
M  V30 9 2 9 10
M  V30 10 1 9 11
M  V30 11 1 11 12
M  V30 12 1 12 13
M  V30 13 1 13 14
M  V30 14 1 14 15
M  V30 15 2 15 16
M  V30 16 2 15 17
M  V30 17 1 15 18
M  V30 18 2 18 19
M  V30 19 1 19 20
M  V30 20 2 20 21
M  V30 21 1 21 22
M  V30 22 2 22 23
M  V30 23 1 23 24
M  V30 24 2 24 25
M  V30 25 1 25 26
M  V30 26 2 26 27
M  V30 27 1 14 28
M  V30 28 1 28 29
M  V30 29 1 6 30
M  V30 30 2 30 31
M  V30 31 1 31 3
M  V30 32 1 29 11
M  V30 33 1 27 18
M  V30 34 1 27 22
M  V30 35 1 1 32
M  V30 36 1 1 33
M  V30 37 1 1 34
M  V30 38 1 4 35
M  V30 39 1 5 36
M  V30 40 1 7 37
M  V30 41 1 7 38
M  V30 42 1 8 39
M  V30 43 1 11 40
M  V30 44 1 12 41
M  V30 45 1 12 42
M  V30 46 1 13 43
M  V30 47 1 13 44
M  V30 48 1 19 45
M  V30 49 1 20 46
M  V30 50 1 21 47
M  V30 51 1 23 48
M  V30 52 1 24 49
M  V30 53 1 25 50
M  V30 54 1 28 51
M  V30 55 1 28 52
M  V30 56 1 29 53
M  V30 57 1 29 54
M  V30 58 1 30 55
M  V30 59 1 31 56
M  V30 END BOND
M  V30 END CTAB
M  END
>  <Dataset>  (154) 
ChEMBL_Kinases

>  <Ligand_Instance>  (154) 
nan

>  <PDB_ID>  (154) 
nan

>  <Standardized_SMILES>  (154) 
COc1ccc(CNC(=O)C2CCN(S(=O)(=O)c3cccc4cccnc34)CC2)cc1

>  <Name>  (154) 
nan

>  <Pocket>  (154) 
nan

>  <ATP_Site>  (154) 
nan

>  <Peripheral>  (154) 
nan

>  <Num_H_Atoms_ProtBoundConf>  (154) 
nan

>  <Num_Resolved_Atoms>  (154) 
nan

>  <Num_Not_Resolved_Atoms>  (154) 
nan

$$$$
CHEMBL1303326
     RDKit          3D

  0  0  0  0  0  0  0  0  0  0999 V3000
M  V30 BEGIN CTAB
M  V30 COUNTS 48 50 0 0 0
M  V30 BEGIN ATOM
M  V30 1 C -0.653639 1.519275 -0.895612 0
M  V30 2 C -0.821371 0.219333 -0.186882 0
M  V30 3 N 0.159559 -0.789037 -0.526087 0
M  V30 4 C 1.431679 -0.371740 0.032095 0
M  V30 5 C 1.371466 -0.331662 1.515474 0
M  V30 6 C 1.854428 0.613249 2.268111 0
M  V30 7 C 2.557379 1.835604 1.911707 0
M  V30 8 C 2.059921 2.997014 2.518045 0
M  V30 9 C 2.598038 4.279255 2.328978 0
M  V30 10 C 3.684510 4.365369 1.490474 0
M  V30 11 C 4.203852 3.247047 0.877668 0
M  V30 12 N 5.318555 3.348128 0.028068 0 CHG=1 VAL=4
M  V30 13 O 5.935437 2.475731 -0.604934 0
M  V30 14 O 5.948301 4.559061 -0.240028 0 CHG=-1 VAL=1
M  V30 15 C 3.641251 2.015652 1.091561 0
M  V30 16 C 0.680544 -1.492525 2.139817 0
M  V30 17 O 0.990159 -1.908231 3.280272 0
M  V30 18 C -0.400949 -2.173902 1.389074 0
M  V30 19 C -1.409997 -2.730163 2.032898 0
M  V30 20 C -2.463998 -3.399527 1.278792 0
M  V30 21 C -3.742752 -3.002372 1.707146 0
M  V30 22 C -4.916738 -3.520837 1.161007 0
M  V30 23 C -4.776484 -4.465348 0.153098 0
M  V30 24 C -3.532712 -4.836751 -0.247490 0
M  V30 25 N -3.420819 -5.802854 -1.267225 0 CHG=1 VAL=4
M  V30 26 O -4.448453 -6.306455 -1.816695 0
M  V30 27 O -2.388213 -6.420869 -1.911210 0 CHG=-1 VAL=1
M  V30 28 C -2.390070 -4.326390 0.290609 0
M  V30 29 C -0.236471 -2.123322 -0.100470 0
M  V30 30 H -0.916575 2.327991 -0.178775 0
M  V30 31 H -1.327433 1.521186 -1.801092 0
M  V30 32 H 0.345261 1.753506 -1.267321 0
M  V30 33 H -1.815532 -0.204628 -0.355184 0
M  V30 34 H -0.683697 0.380261 0.927303 0
M  V30 35 H 1.753909 0.557245 -0.426735 0
M  V30 36 H 2.164587 -1.163140 -0.234047 0
M  V30 37 H 1.718305 0.478675 3.360872 0
M  V30 38 H 1.210261 2.965250 3.180032 0
M  V30 39 H 2.181672 5.147500 2.815382 0
M  V30 40 H 4.182140 5.318192 1.275881 0
M  V30 41 H 3.976143 1.078437 0.653284 0
M  V30 42 H -1.410467 -2.668067 3.126142 0
M  V30 43 H -3.947382 -2.262094 2.494488 0
M  V30 44 H -5.902420 -3.251535 1.457736 0
M  V30 45 H -5.664027 -4.882060 -0.299078 0
M  V30 46 H -1.365191 -4.597208 0.004312 0
M  V30 47 H 0.598972 -2.804845 -0.359410 0
M  V30 48 H -1.186915 -2.334610 -0.577323 0
M  V30 END ATOM
M  V30 BEGIN BOND
M  V30 1 1 1 2
M  V30 2 1 2 3
M  V30 3 1 3 4
M  V30 4 1 4 5
M  V30 5 2 5 6
M  V30 6 1 6 7
M  V30 7 2 7 8
M  V30 8 1 8 9
M  V30 9 2 9 10
M  V30 10 1 10 11
M  V30 11 1 11 12
M  V30 12 2 12 13
M  V30 13 1 12 14
M  V30 14 2 11 15
M  V30 15 1 5 16
M  V30 16 2 16 17
M  V30 17 1 16 18
M  V30 18 2 18 19
M  V30 19 1 19 20
M  V30 20 2 20 21
M  V30 21 1 21 22
M  V30 22 2 22 23
M  V30 23 1 23 24
M  V30 24 1 24 25
M  V30 25 2 25 26
M  V30 26 1 25 27
M  V30 27 2 24 28
M  V30 28 1 18 29
M  V30 29 1 29 3
M  V30 30 1 15 7
M  V30 31 1 28 20
M  V30 32 1 1 30
M  V30 33 1 1 31
M  V30 34 1 1 32
M  V30 35 1 2 33
M  V30 36 1 2 34
M  V30 37 1 4 35
M  V30 38 1 4 36
M  V30 39 1 6 37
M  V30 40 1 8 38
M  V30 41 1 9 39
M  V30 42 1 10 40
M  V30 43 1 15 41
M  V30 44 1 19 42
M  V30 45 1 21 43
M  V30 46 1 22 44
M  V30 47 1 23 45
M  V30 48 1 28 46
M  V30 49 1 29 47
M  V30 50 1 29 48
M  V30 END BOND
M  V30 END CTAB
M  END
>  <Dataset>  (155) 
ChEMBL_Kinases

>  <Ligand_Instance>  (155) 
nan

>  <PDB_ID>  (155) 
nan

>  <Standardized_SMILES>  (155) 
CCN1C/C(=C\c2cccc([N+](=O)[O-])c2)C(=O)/C(=C/c2cccc([N+](=O)[O-])c2)C1

>  <Name>  (155) 
nan

>  <Pocket>  (155) 
nan

>  <ATP_Site>  (155) 
nan

>  <Peripheral>  (155) 
nan

>  <Num_H_Atoms_ProtBoundConf>  (155) 
nan

>  <Num_Resolved_Atoms>  (155) 
nan

>  <Num_Not_Resolved_Atoms>  (155) 
nan

$$$$
CHEMBL1303342
     RDKit          3D

  0  0  0  0  0  0  0  0  0  0999 V3000
M  V30 BEGIN CTAB
M  V30 COUNTS 44 45 0 0 0
M  V30 BEGIN ATOM
M  V30 1 C 1.285970 -4.663315 -0.596891 0
M  V30 2 C 0.810957 -3.282238 -0.879469 0
M  V30 3 C -0.515303 -3.201339 -1.292974 0
M  V30 4 C -0.994773 -1.924233 -1.566567 0
M  V30 5 C -2.417340 -1.727598 -2.021077 0
M  V30 6 C -0.210655 -0.785611 -1.440090 0
M  V30 7 C 1.098460 -0.922290 -1.026281 0
M  V30 8 C 1.893342 0.296732 -0.904475 0
M  V30 9 O 1.342950 1.392086 -1.181074 0
M  V30 10 N 3.249434 0.317325 -0.492554 0
M  V30 11 C 3.933870 1.583616 -0.409137 0
M  V30 12 C 3.235806 2.460366 0.563026 0
M  V30 13 O 3.541331 3.647692 0.903307 0
M  V30 14 O 2.098332 2.060936 1.256110 0
M  V30 15 C 1.561420 3.011760 2.138634 0
M  V30 16 C 0.370873 2.568404 2.851935 0
M  V30 17 O -0.180563 3.373871 3.674956 0
M  V30 18 N -0.101220 1.265736 2.585592 0
M  V30 19 C -1.157285 0.369079 2.973004 0
M  V30 20 C -0.788750 -0.417069 4.066683 0
M  V30 21 C -1.661768 -1.361643 4.614282 0
M  V30 22 C -2.892691 -1.439927 3.984785 0
M  V30 23 N -3.246614 -0.683365 2.932695 0
M  V30 24 C -2.406098 0.225172 2.406460 0
M  V30 25 Cl -2.716378 1.272312 1.054916 0
M  V30 26 C 1.608084 -2.170396 -0.746354 0
M  V30 27 H 1.698626 -5.071451 -1.561786 0
M  V30 28 H 2.096738 -4.677710 0.148814 0
M  V30 29 H 0.472949 -5.328968 -0.263628 0
M  V30 30 H -1.147320 -4.067553 -1.400056 0
M  V30 31 H -2.872727 -1.084334 -1.228801 0
M  V30 32 H -2.435155 -1.113439 -2.940428 0
M  V30 33 H -2.936691 -2.678890 -2.139683 0
M  V30 34 H -0.659911 0.192171 -1.674656 0
M  V30 35 H 3.725306 -0.576481 -0.258696 0
M  V30 36 H 3.946828 2.013440 -1.442847 0
M  V30 37 H 4.984822 1.440517 -0.050778 0
M  V30 38 H 1.257892 3.881042 1.495867 0
M  V30 39 H 2.342410 3.290289 2.859070 0
M  V30 40 H 0.384110 0.640638 1.902082 0
M  V30 41 H 0.182098 -0.365285 4.574344 0
M  V30 42 H -1.391901 -1.977933 5.460575 0
M  V30 43 H -3.621514 -2.165072 4.371029 0
M  V30 44 H 2.629936 -2.287863 -0.422275 0
M  V30 END ATOM
M  V30 BEGIN BOND
M  V30 1 1 1 2
M  V30 2 2 2 3
M  V30 3 1 3 4
M  V30 4 1 4 5
M  V30 5 2 4 6
M  V30 6 1 6 7
M  V30 7 1 7 8
M  V30 8 2 8 9
M  V30 9 1 8 10
M  V30 10 1 10 11
M  V30 11 1 11 12
M  V30 12 2 12 13
M  V30 13 1 12 14
M  V30 14 1 14 15
M  V30 15 1 15 16
M  V30 16 2 16 17
M  V30 17 1 16 18
M  V30 18 1 18 19
M  V30 19 2 19 20
M  V30 20 1 20 21
M  V30 21 2 21 22
M  V30 22 1 22 23
M  V30 23 2 23 24
M  V30 24 1 24 25
M  V30 25 2 7 26
M  V30 26 1 26 2
M  V30 27 1 24 19
M  V30 28 1 1 27
M  V30 29 1 1 28
M  V30 30 1 1 29
M  V30 31 1 3 30
M  V30 32 1 5 31
M  V30 33 1 5 32
M  V30 34 1 5 33
M  V30 35 1 6 34
M  V30 36 1 10 35
M  V30 37 1 11 36
M  V30 38 1 11 37
M  V30 39 1 15 38
M  V30 40 1 15 39
M  V30 41 1 18 40
M  V30 42 1 20 41
M  V30 43 1 21 42
M  V30 44 1 22 43
M  V30 45 1 26 44
M  V30 END BOND
M  V30 END CTAB
M  END
>  <Dataset>  (156) 
ChEMBL_Kinases

>  <Ligand_Instance>  (156) 
nan

>  <PDB_ID>  (156) 
nan

>  <Standardized_SMILES>  (156) 
Cc1cc(C)cc(C(=O)NCC(=O)OCC(=O)Nc2cccnc2Cl)c1

>  <Name>  (156) 
nan

>  <Pocket>  (156) 
nan

>  <ATP_Site>  (156) 
nan

>  <Peripheral>  (156) 
nan

>  <Num_H_Atoms_ProtBoundConf>  (156) 
nan

>  <Num_Resolved_Atoms>  (156) 
nan

>  <Num_Not_Resolved_Atoms>  (156) 
nan

$$$$
CHEMBL1303378
     RDKit          3D

  0  0  0  0  0  0  0  0  0  0999 V3000
M  V30 BEGIN CTAB
M  V30 COUNTS 60 62 0 0 0
M  V30 BEGIN ATOM
M  V30 1 C 3.438038 -4.494585 -0.503525 0
M  V30 2 C 3.465284 -3.470273 0.575201 0
M  V30 3 C 4.282659 -3.567173 1.679431 0
M  V30 4 C 4.237249 -2.571878 2.623423 0
M  V30 5 C 3.398695 -1.482021 2.496626 0
M  V30 6 C 3.426151 -0.448135 3.584558 0
M  V30 7 C 2.560638 -1.365566 1.382202 0
M  V30 8 N 1.715481 -0.226719 1.299971 0
M  V30 9 C 2.214843 0.920001 0.657117 0
M  V30 10 O 3.403605 0.853632 0.178893 0
M  V30 11 C 1.781691 2.295686 0.321358 0
M  V30 12 O 0.473429 2.486164 0.815059 0
M  V30 13 C 0.152374 2.458253 2.139637 0
M  V30 14 O 1.147153 2.251741 2.920390 0
M  V30 15 C -1.058571 2.605233 2.927391 0
M  V30 16 C -2.310695 2.936528 2.192002 0
M  V30 17 C -2.734524 1.967661 1.170821 0
M  V30 18 C -2.438017 2.016955 -0.182176 0
M  V30 19 C -2.863662 1.063814 -1.085734 0
M  V30 20 C -3.619990 -0.000971 -0.664542 0
M  V30 21 S -4.088921 -1.122691 -1.930143 0
M  V30 22 O -5.331517 -1.854719 -1.449481 0
M  V30 23 O -4.398295 -0.416629 -3.210881 0
M  V30 24 N -2.872985 -2.297289 -2.124067 0
M  V30 25 C -2.639443 -3.093859 -0.960996 0
M  V30 26 C -1.846989 -4.348707 -1.308579 0
M  V30 27 O -1.038553 -4.143113 -2.415241 0
M  V30 28 C -0.585545 -2.829018 -2.499414 0
M  V30 29 C -1.683981 -1.850007 -2.775982 0
M  V30 30 C -3.937548 -0.087965 0.673834 0
M  V30 31 C -3.496040 0.876346 1.532354 0
M  V30 32 C 2.631812 -2.379637 0.456530 0
M  V30 33 H 2.375889 -4.846161 -0.548363 0
M  V30 34 H 4.147340 -5.306469 -0.335614 0
M  V30 35 H 3.614903 -3.941691 -1.454220 0
M  V30 36 H 4.929329 -4.440421 1.745470 0
M  V30 37 H 4.875453 -2.639734 3.492539 0
M  V30 38 H 3.710632 -0.941499 4.520401 0
M  V30 39 H 2.382272 -0.091386 3.684418 0
M  V30 40 H 4.127362 0.350291 3.285623 0
M  V30 41 H 0.741223 -0.029087 1.615628 0
M  V30 42 H 2.446003 3.032847 0.847275 0
M  V30 43 H 1.800092 2.487299 -0.775808 0
M  V30 44 H -1.164816 1.718373 3.591683 0
M  V30 45 H -0.873478 3.455624 3.652977 0
M  V30 46 H -3.164910 3.164237 2.886057 0
M  V30 47 H -2.154760 3.921248 1.660995 0
M  V30 48 H -1.848772 2.852887 -0.532666 0
M  V30 49 H -2.566011 1.211206 -2.127122 0
M  V30 50 H -3.546245 -3.411408 -0.444341 0
M  V30 51 H -2.024152 -2.528951 -0.226485 0
M  V30 52 H -2.566994 -5.175733 -1.453795 0
M  V30 53 H -1.217569 -4.611437 -0.435220 0
M  V30 54 H -0.087661 -2.531573 -1.545581 0
M  V30 55 H 0.170009 -2.710561 -3.300839 0
M  V30 56 H -1.823452 -1.646441 -3.857763 0
M  V30 57 H -1.400356 -0.874914 -2.314681 0
M  V30 58 H -4.534776 -0.948888 0.941416 0
M  V30 59 H -3.774098 0.758390 2.570882 0
M  V30 60 H 2.000391 -2.302071 -0.394032 0
M  V30 END ATOM
M  V30 BEGIN BOND
M  V30 1 1 1 2
M  V30 2 2 2 3
M  V30 3 1 3 4
M  V30 4 2 4 5
M  V30 5 1 5 6
M  V30 6 1 5 7
M  V30 7 1 7 8
M  V30 8 1 8 9
M  V30 9 2 9 10
M  V30 10 1 9 11
M  V30 11 1 11 12
M  V30 12 1 12 13
M  V30 13 2 13 14
M  V30 14 1 13 15
M  V30 15 1 15 16
M  V30 16 1 16 17
M  V30 17 2 17 18
M  V30 18 1 18 19
M  V30 19 2 19 20
M  V30 20 1 20 21
M  V30 21 2 21 22
M  V30 22 2 21 23
M  V30 23 1 21 24
M  V30 24 1 24 25
M  V30 25 1 25 26
M  V30 26 1 26 27
M  V30 27 1 27 28
M  V30 28 1 28 29
M  V30 29 1 20 30
M  V30 30 2 30 31
M  V30 31 2 7 32
M  V30 32 1 32 2
M  V30 33 1 31 17
M  V30 34 1 29 24
M  V30 35 1 1 33
M  V30 36 1 1 34
M  V30 37 1 1 35
M  V30 38 1 3 36
M  V30 39 1 4 37
M  V30 40 1 6 38
M  V30 41 1 6 39
M  V30 42 1 6 40
M  V30 43 1 8 41
M  V30 44 1 11 42
M  V30 45 1 11 43
M  V30 46 1 15 44
M  V30 47 1 15 45
M  V30 48 1 16 46
M  V30 49 1 16 47
M  V30 50 1 18 48
M  V30 51 1 19 49
M  V30 52 1 25 50
M  V30 53 1 25 51
M  V30 54 1 26 52
M  V30 55 1 26 53
M  V30 56 1 28 54
M  V30 57 1 28 55
M  V30 58 1 29 56
M  V30 59 1 29 57
M  V30 60 1 30 58
M  V30 61 1 31 59
M  V30 62 1 32 60
M  V30 END BOND
M  V30 END CTAB
M  END
>  <Dataset>  (157) 
ChEMBL_Kinases

>  <Ligand_Instance>  (157) 
nan

>  <PDB_ID>  (157) 
nan

>  <Standardized_SMILES>  (157) 
Cc1ccc(C)c(NC(=O)COC(=O)CCc2ccc(S(=O)(=O)N3CCOCC3)cc2)c1

>  <Name>  (157) 
nan

>  <Pocket>  (157) 
nan

>  <ATP_Site>  (157) 
nan

>  <Peripheral>  (157) 
nan

>  <Num_H_Atoms_ProtBoundConf>  (157) 
nan

>  <Num_Resolved_Atoms>  (157) 
nan

>  <Num_Not_Resolved_Atoms>  (157) 
nan

$$$$
CHEMBL1303387
     RDKit          3D

  0  0  0  0  0  0  0  0  0  0999 V3000
M  V30 BEGIN CTAB
M  V30 COUNTS 32 34 0 0 0
M  V30 BEGIN ATOM
M  V30 1 O -1.383973 0.273030 5.327354 0
M  V30 2 C -1.431109 -0.100285 4.126876 0
M  V30 3 N -0.336772 -0.000281 3.312150 0
M  V30 4 C -0.398849 -0.403328 2.027816 0
M  V30 5 C 0.787542 -0.285161 1.177193 0
M  V30 6 C 0.812323 -0.656005 -0.090768 0
M  V30 7 C 1.947143 -0.573223 -1.005758 0
M  V30 8 C 1.848305 -0.996608 -2.320178 0
M  V30 9 C 2.934863 -0.908040 -3.165158 0
M  V30 10 C 4.153237 -0.406271 -2.764469 0
M  V30 11 O 5.181549 -0.356741 -3.679014 0
M  V30 12 C 4.273053 0.021556 -1.457192 0
M  V30 13 O 5.490633 0.519124 -1.069717 0
M  V30 14 C 3.174948 -0.074217 -0.624227 0
M  V30 15 O -1.502833 -0.902303 1.516791 0
M  V30 16 C -2.609690 -1.031499 2.246911 0
M  V30 17 C -3.709208 -1.566164 1.611678 0
M  V30 18 C -4.843933 -1.681778 2.416538 0
M  V30 19 C -4.881627 -1.294120 3.754137 0
M  V30 20 C -3.735015 -0.765050 4.321177 0
M  V30 21 C -2.581094 -0.626015 3.574569 0
M  V30 22 H 1.706912 0.121702 1.574120 0
M  V30 23 H -0.114655 -1.061030 -0.473295 0
M  V30 24 H 0.898656 -1.402170 -2.680897 0
M  V30 25 H 2.816804 -1.254613 -4.202062 0
M  V30 26 H 5.224555 0.472400 -4.277911 0
M  V30 27 H 5.625718 1.173321 -0.320381 0
M  V30 28 H 3.341843 0.276859 0.376489 0
M  V30 29 H -3.695014 -1.867376 0.588222 0
M  V30 30 H -5.732437 -2.107245 1.925282 0
M  V30 31 H -5.818249 -1.424295 4.302164 0
M  V30 32 H -3.745739 -0.458471 5.358936 0
M  V30 END ATOM
M  V30 BEGIN BOND
M  V30 1 2 1 2
M  V30 2 1 2 3
M  V30 3 2 3 4
M  V30 4 1 4 5
M  V30 5 2 5 6
M  V30 6 1 6 7
M  V30 7 2 7 8
M  V30 8 1 8 9
M  V30 9 2 9 10
M  V30 10 1 10 11
M  V30 11 1 10 12
M  V30 12 1 12 13
M  V30 13 2 12 14
M  V30 14 1 4 15
M  V30 15 1 15 16
M  V30 16 2 16 17
M  V30 17 1 17 18
M  V30 18 2 18 19
M  V30 19 1 19 20
M  V30 20 2 20 21
M  V30 21 1 21 2
M  V30 22 1 14 7
M  V30 23 1 21 16
M  V30 24 1 5 22
M  V30 25 1 6 23
M  V30 26 1 8 24
M  V30 27 1 9 25
M  V30 28 1 11 26
M  V30 29 1 13 27
M  V30 30 1 14 28
M  V30 31 1 17 29
M  V30 32 1 18 30
M  V30 33 1 19 31
M  V30 34 1 20 32
M  V30 END BOND
M  V30 END CTAB
M  END
>  <Dataset>  (158) 
ChEMBL_Kinases

>  <Ligand_Instance>  (158) 
nan

>  <PDB_ID>  (158) 
nan

>  <Standardized_SMILES>  (158) 
O=c1nc(/C=C/c2ccc(O)c(O)c2)oc2ccccc12

>  <Name>  (158) 
nan

>  <Pocket>  (158) 
nan

>  <ATP_Site>  (158) 
nan

>  <Peripheral>  (158) 
nan

>  <Num_H_Atoms_ProtBoundConf>  (158) 
nan

>  <Num_Resolved_Atoms>  (158) 
nan

>  <Num_Not_Resolved_Atoms>  (158) 
nan

$$$$
CHEMBL1303401
     RDKit          3D

  0  0  0  0  0  0  0  0  0  0999 V3000
M  V30 BEGIN CTAB
M  V30 COUNTS 57 61 0 0 0
M  V30 BEGIN ATOM
M  V30 1 O -1.614385 -4.132849 2.184797 0
M  V30 2 C -0.761485 -3.801698 1.289140 0
M  V30 3 C 0.339229 -2.899888 1.588875 0
M  V30 4 C 1.549407 -2.850262 0.931861 0
M  V30 5 C 2.543142 -1.958334 1.267717 0
M  V30 6 C 2.313494 -1.065854 2.320432 0
M  V30 7 C 3.406429 -0.129551 2.633745 0
M  V30 8 N 3.269525 1.141998 1.949616 0
M  V30 9 C 3.774812 1.419244 0.734610 0
M  V30 10 O 4.417185 0.522166 0.132430 0
M  V30 11 N 3.637893 2.602674 0.114578 0
M  V30 12 C 2.956352 3.632485 0.694996 0
M  V30 13 C 2.778949 4.870854 0.111895 0
M  V30 14 C 2.064821 5.852706 0.791113 0
M  V30 15 C 1.516378 5.646257 2.038444 0
M  V30 16 C 1.700465 4.404522 2.611411 0
M  V30 17 C 2.410571 3.394257 1.961629 0
M  V30 18 C 2.586171 2.155720 2.546768 0
M  V30 19 O 2.061760 2.037524 3.680746 0
M  V30 20 C 1.097990 -1.132594 2.963567 0
M  V30 21 C 0.093581 -2.020110 2.638437 0
M  V30 22 N -1.171974 -4.490397 0.091036 0
M  V30 23 C -2.332634 -5.308217 0.157320 0
M  V30 24 C -3.493131 -4.779796 -0.652470 0
M  V30 25 N -2.952142 -3.760323 -1.543352 0
M  V30 26 C -3.372064 -2.411803 -1.718891 0
M  V30 27 C -2.720885 -1.526844 -2.544421 0
M  V30 28 C -3.184786 -0.237285 -2.666916 0
M  V30 29 C -4.300183 0.211674 -1.979925 0
M  V30 30 F -4.644995 1.508541 -2.198219 0
M  V30 31 C -4.944317 -0.677879 -1.157593 0
M  V30 32 C -4.474420 -1.991299 -1.030771 0
M  V30 33 C -1.848720 -4.364094 -2.274328 0
M  V30 34 C -0.738572 -4.629421 -1.282904 0
M  V30 35 H 1.719236 -3.530706 0.137964 0
M  V30 36 H 3.474451 -1.990881 0.690017 0
M  V30 37 H 4.406231 -0.546226 2.390321 0
M  V30 38 H 3.405364 0.018612 3.751956 0
M  V30 39 H 4.052107 2.761304 -0.826849 0
M  V30 40 H 3.213167 5.032548 -0.874708 0
M  V30 41 H 1.959299 6.805707 0.278647 0
M  V30 42 H 0.965009 6.405668 2.561417 0
M  V30 43 H 1.266729 4.244398 3.594047 0
M  V30 44 H 0.923436 -0.444190 3.776623 0
M  V30 45 H -0.829602 -1.975823 3.224852 0
M  V30 46 H -2.181725 -6.375042 -0.148607 0
M  V30 47 H -2.690886 -5.364066 1.206514 0
M  V30 48 H -3.919049 -5.570435 -1.304251 0
M  V30 49 H -4.294811 -4.367306 -0.008580 0
M  V30 50 H -1.849211 -1.814305 -3.101346 0
M  V30 51 H -2.634980 0.437221 -3.336703 0
M  V30 52 H -5.811098 -0.283396 -0.641329 0
M  V30 53 H -5.089898 -2.554565 -0.351837 0
M  V30 54 H -2.172857 -5.352294 -2.709848 0
M  V30 55 H -1.492539 -3.785881 -3.123351 0
M  V30 56 H -0.337084 -5.654493 -1.405074 0
M  V30 57 H 0.017269 -3.841726 -1.474159 0
M  V30 END ATOM
M  V30 BEGIN BOND
M  V30 1 2 1 2
M  V30 2 1 2 3
M  V30 3 2 3 4
M  V30 4 1 4 5
M  V30 5 2 5 6
M  V30 6 1 6 7
M  V30 7 1 7 8
M  V30 8 1 8 9
M  V30 9 2 9 10
M  V30 10 1 9 11
M  V30 11 1 11 12
M  V30 12 2 12 13
M  V30 13 1 13 14
M  V30 14 2 14 15
M  V30 15 1 15 16
M  V30 16 2 16 17
M  V30 17 1 17 18
M  V30 18 2 18 19
M  V30 19 1 6 20
M  V30 20 2 20 21
M  V30 21 1 2 22
M  V30 22 1 22 23
M  V30 23 1 23 24
M  V30 24 1 24 25
M  V30 25 1 25 26
M  V30 26 2 26 27
M  V30 27 1 27 28
M  V30 28 2 28 29
M  V30 29 1 29 30
M  V30 30 1 29 31
M  V30 31 2 31 32
M  V30 32 1 25 33
M  V30 33 1 33 34
M  V30 34 1 21 3
M  V30 35 1 34 22
M  V30 36 1 18 8
M  V30 37 1 32 26
M  V30 38 1 17 12
M  V30 39 1 4 35
M  V30 40 1 5 36
M  V30 41 1 7 37
M  V30 42 1 7 38
M  V30 43 1 11 39
M  V30 44 1 13 40
M  V30 45 1 14 41
M  V30 46 1 15 42
M  V30 47 1 16 43
M  V30 48 1 20 44
M  V30 49 1 21 45
M  V30 50 1 23 46
M  V30 51 1 23 47
M  V30 52 1 24 48
M  V30 53 1 24 49
M  V30 54 1 27 50
M  V30 55 1 28 51
M  V30 56 1 31 52
M  V30 57 1 32 53
M  V30 58 1 33 54
M  V30 59 1 33 55
M  V30 60 1 34 56
M  V30 61 1 34 57
M  V30 END BOND
M  V30 END CTAB
M  END
>  <Dataset>  (159) 
ChEMBL_Kinases

>  <Ligand_Instance>  (159) 
nan

>  <PDB_ID>  (159) 
nan

>  <Standardized_SMILES>  (159) 
O=C(c1ccc(Cn2c(=O)[nH]c3ccccc3c2=O)cc1)N1CCN(c2ccc(F)cc2)CC1

>  <Name>  (159) 
nan

>  <Pocket>  (159) 
nan

>  <ATP_Site>  (159) 
nan

>  <Peripheral>  (159) 
nan

>  <Num_H_Atoms_ProtBoundConf>  (159) 
nan

>  <Num_Resolved_Atoms>  (159) 
nan

>  <Num_Not_Resolved_Atoms>  (159) 
nan

$$$$
CHEMBL1303439
     RDKit          3D

  0  0  0  0  0  0  0  0  0  0999 V3000
M  V30 BEGIN CTAB
M  V30 COUNTS 50 50 0 0 0
M  V30 BEGIN ATOM
M  V30 1 C -0.182691 -7.692354 2.305630 0
M  V30 2 C 1.157757 -7.022750 2.534947 0
M  V30 3 C 1.179520 -5.793336 1.617915 0
M  V30 4 C 2.465295 -5.037099 1.751804 0
M  V30 5 O 2.492241 -3.926668 0.926321 0
M  V30 6 C 1.726477 -2.818638 0.867222 0
M  V30 7 C 2.198088 -2.017710 -0.185094 0
M  V30 8 C 1.604075 -0.787297 -0.502181 0
M  V30 9 C 0.530598 -0.343986 0.230664 0
M  V30 10 C -0.168500 0.927777 -0.013483 0
M  V30 11 N -0.367462 1.551692 1.283770 0
M  V30 12 C 0.163526 2.833661 1.559234 0
M  V30 13 O 0.839368 3.583850 0.791891 0
M  V30 14 O 0.101905 3.604195 2.693150 0
M  V30 15 C 0.724254 4.866372 2.711183 0
M  V30 16 C 2.212419 4.805158 2.463764 0
M  V30 17 N -1.485189 0.754000 -0.581464 0
M  V30 18 C -1.899864 1.455374 -1.748413 0
M  V30 19 O -1.039102 2.229225 -2.239917 0
M  V30 20 O -3.165547 1.267387 -2.267018 0
M  V30 21 C -3.571977 1.983276 -3.447366 0
M  V30 22 C -3.466998 3.445200 -3.072597 0
M  V30 23 C 0.047328 -1.109872 1.269096 0
M  V30 24 C 0.648639 -2.312980 1.559254 0
M  V30 25 H -0.459582 -8.378704 3.128597 0
M  V30 26 H -0.922351 -6.875764 2.140447 0
M  V30 27 H -0.099791 -8.212981 1.317838 0
M  V30 28 H 1.962890 -7.693871 2.192685 0
M  V30 29 H 1.317719 -6.736471 3.577660 0
M  V30 30 H 1.199048 -6.235001 0.578035 0
M  V30 31 H 0.267891 -5.250338 1.824776 0
M  V30 32 H 3.266345 -5.741275 1.369455 0
M  V30 33 H 2.687296 -4.805365 2.821424 0
M  V30 34 H 3.034852 -2.196269 -0.878820 0
M  V30 35 H 1.913468 -0.122590 -1.294706 0
M  V30 36 H 0.427410 1.655942 -0.605103 0
M  V30 37 H -0.886807 1.150081 2.095196 0
M  V30 38 H 0.201233 5.610806 2.072627 0
M  V30 39 H 0.615841 5.238729 3.768296 0
M  V30 40 H 2.587438 3.786932 2.591563 0
M  V30 41 H 2.800277 5.438281 3.180913 0
M  V30 42 H 2.460098 5.152450 1.443589 0
M  V30 43 H -2.128653 0.088838 -0.100760 0
M  V30 44 H -4.604531 1.700131 -3.731711 0
M  V30 45 H -2.836295 1.781563 -4.238546 0
M  V30 46 H -2.432609 3.772218 -3.298219 0
M  V30 47 H -4.185204 4.077546 -3.627295 0
M  V30 48 H -3.590545 3.584502 -1.958765 0
M  V30 49 H -0.788017 -0.898026 1.937077 0
M  V30 50 H 0.349939 -2.977280 2.354704 0
M  V30 END ATOM
M  V30 BEGIN BOND
M  V30 1 1 1 2
M  V30 2 1 2 3
M  V30 3 1 3 4
M  V30 4 1 4 5
M  V30 5 1 5 6
M  V30 6 2 6 7
M  V30 7 1 7 8
M  V30 8 2 8 9
M  V30 9 1 9 10
M  V30 10 1 10 11
M  V30 11 1 11 12
M  V30 12 2 12 13
M  V30 13 1 12 14
M  V30 14 1 14 15
M  V30 15 1 15 16
M  V30 16 1 10 17
M  V30 17 1 17 18
M  V30 18 2 18 19
M  V30 19 1 18 20
M  V30 20 1 20 21
M  V30 21 1 21 22
M  V30 22 1 9 23
M  V30 23 2 23 24
M  V30 24 1 24 6
M  V30 25 1 1 25
M  V30 26 1 1 26
M  V30 27 1 1 27
M  V30 28 1 2 28
M  V30 29 1 2 29
M  V30 30 1 3 30
M  V30 31 1 3 31
M  V30 32 1 4 32
M  V30 33 1 4 33
M  V30 34 1 7 34
M  V30 35 1 8 35
M  V30 36 1 10 36
M  V30 37 1 11 37
M  V30 38 1 15 38
M  V30 39 1 15 39
M  V30 40 1 16 40
M  V30 41 1 16 41
M  V30 42 1 16 42
M  V30 43 1 17 43
M  V30 44 1 21 44
M  V30 45 1 21 45
M  V30 46 1 22 46
M  V30 47 1 22 47
M  V30 48 1 22 48
M  V30 49 1 23 49
M  V30 50 1 24 50
M  V30 END BOND
M  V30 END CTAB
M  END
>  <Dataset>  (160) 
ChEMBL_Kinases

>  <Ligand_Instance>  (160) 
nan

>  <PDB_ID>  (160) 
nan

>  <Standardized_SMILES>  (160) 
CCCCOc1ccc(C(NC(=O)OCC)NC(=O)OCC)cc1

>  <Name>  (160) 
nan

>  <Pocket>  (160) 
nan

>  <ATP_Site>  (160) 
nan

>  <Peripheral>  (160) 
nan

>  <Num_H_Atoms_ProtBoundConf>  (160) 
nan

>  <Num_Resolved_Atoms>  (160) 
nan

>  <Num_Not_Resolved_Atoms>  (160) 
nan

$$$$
CHEMBL1303569
     RDKit          3D

  0  0  0  0  0  0  0  0  0  0999 V3000
M  V30 BEGIN CTAB
M  V30 COUNTS 51 54 0 0 0
M  V30 BEGIN ATOM
M  V30 1 C -3.162803 -5.938751 5.765426 0
M  V30 2 C -2.146335 -4.748532 5.664852 0
M  V30 3 O -2.024791 -4.424558 4.327284 0
M  V30 4 C -1.323302 -3.476636 3.650272 0
M  V30 5 C -0.509200 -2.539362 4.395794 0
M  V30 6 C 0.168680 -1.604475 3.648784 0
M  V30 7 C 0.182917 -1.435553 2.299434 0
M  V30 8 C 0.837774 -0.519278 1.377002 0
M  V30 9 C -0.016334 0.704066 1.123185 0
M  V30 10 N 0.546565 1.606543 0.142952 0
M  V30 11 C 1.134195 2.516096 -0.830302 0
M  V30 12 N 2.443516 2.921100 -0.689962 0
M  V30 13 C 2.855068 3.641399 -1.839193 0
M  V30 14 C 4.157196 4.037628 -1.798580 0
M  V30 15 C 4.623708 4.714348 -2.956087 0
M  V30 16 C 3.678150 4.827920 -3.860540 0
M  V30 17 C 2.363141 4.497629 -4.048214 0
M  V30 18 C 1.898577 3.825987 -2.905218 0
M  V30 19 N 0.653722 3.270242 -2.693193 0
M  V30 20 C -0.244288 3.470594 -3.732129 0
M  V30 21 N -1.338548 2.854458 -3.283134 0
M  V30 22 N -1.110964 2.355630 -2.125378 0
M  V30 23 C 0.105662 2.542575 -1.627580 0
M  V30 24 C -0.612457 -2.361254 1.679008 0
M  V30 25 C -1.348748 -3.353305 2.266127 0
M  V30 26 O -2.160230 -4.357035 1.827725 0
M  V30 27 C -2.406841 -4.691598 0.509325 0
M  V30 28 C -1.141805 -5.194103 -0.200008 0
M  V30 29 H -2.617322 -6.867400 5.583228 0
M  V30 30 H -3.906991 -5.740606 4.982125 0
M  V30 31 H -3.581464 -5.915616 6.770798 0
M  V30 32 H -1.220448 -5.225321 6.106847 0
M  V30 33 H -2.495444 -3.992044 6.357726 0
M  V30 34 H -0.403793 -2.544774 5.485951 0
M  V30 35 H 0.816892 -0.863003 4.149134 0
M  V30 36 H 0.977466 -0.999523 0.386749 0
M  V30 37 H 1.850175 -0.193080 1.748329 0
M  V30 38 H -0.292127 1.190912 2.054566 0
M  V30 39 H -0.999173 0.285992 0.707263 0
M  V30 40 H 1.423161 1.575115 0.755919 0
M  V30 41 H 4.770313 3.851411 -0.955602 0
M  V30 42 H 5.626804 5.053688 -3.015973 0
M  V30 43 H 4.066099 5.358449 -4.774695 0
M  V30 44 H 1.654439 4.629360 -4.810451 0
M  V30 45 H -0.258887 3.967299 -4.721951 0
M  V30 46 H -0.758830 -2.380243 0.590544 0
M  V30 47 H -3.125967 -5.559012 0.535638 0
M  V30 48 H -2.811544 -3.877129 -0.122001 0
M  V30 49 H -0.736401 -6.054402 0.387141 0
M  V30 50 H -1.437462 -5.559346 -1.220797 0
M  V30 51 H -0.394018 -4.409206 -0.343479 0
M  V30 END ATOM
M  V30 BEGIN BOND
M  V30 1 1 1 2
M  V30 2 1 2 3
M  V30 3 1 3 4
M  V30 4 2 4 5
M  V30 5 1 5 6
M  V30 6 2 6 7
M  V30 7 1 7 8
M  V30 8 1 8 9
M  V30 9 1 9 10
M  V30 10 1 10 11
M  V30 11 2 11 12
M  V30 12 1 12 13
M  V30 13 2 13 14
M  V30 14 1 14 15
M  V30 15 2 15 16
M  V30 16 1 16 17
M  V30 17 2 17 18
M  V30 18 1 18 19
M  V30 19 1 19 20
M  V30 20 2 20 21
M  V30 21 1 21 22
M  V30 22 2 22 23
M  V30 23 1 7 24
M  V30 24 2 24 25
M  V30 25 1 25 26
M  V30 26 1 26 27
M  V30 27 1 27 28
M  V30 28 1 25 4
M  V30 29 1 23 11
M  V30 30 1 18 13
M  V30 31 1 23 19
M  V30 32 1 1 29
M  V30 33 1 1 30
M  V30 34 1 1 31
M  V30 35 1 2 32
M  V30 36 1 2 33
M  V30 37 1 5 34
M  V30 38 1 6 35
M  V30 39 1 8 36
M  V30 40 1 8 37
M  V30 41 1 9 38
M  V30 42 1 9 39
M  V30 43 1 10 40
M  V30 44 1 14 41
M  V30 45 1 15 42
M  V30 46 1 16 43
M  V30 47 1 17 44
M  V30 48 1 20 45
M  V30 49 1 24 46
M  V30 50 1 27 47
M  V30 51 1 27 48
M  V30 52 1 28 49
M  V30 53 1 28 50
M  V30 54 1 28 51
M  V30 END BOND
M  V30 END CTAB
M  END
>  <Dataset>  (161) 
ChEMBL_Kinases

>  <Ligand_Instance>  (161) 
nan

>  <PDB_ID>  (161) 
nan

>  <Standardized_SMILES>  (161) 
CCOc1ccc(CCNc2nc3ccccc3n3cnnc23)cc1OCC

>  <Name>  (161) 
nan

>  <Pocket>  (161) 
nan

>  <ATP_Site>  (161) 
nan

>  <Peripheral>  (161) 
nan

>  <Num_H_Atoms_ProtBoundConf>  (161) 
nan

>  <Num_Resolved_Atoms>  (161) 
nan

>  <Num_Not_Resolved_Atoms>  (161) 
nan

$$$$
CHEMBL1302787
     RDKit          3D

  0  0  0  0  0  0  0  0  0  0999 V3000
M  V30 BEGIN CTAB
M  V30 COUNTS 34 36 0 0 0
M  V30 BEGIN ATOM
M  V30 1 C 0.174300 -1.964490 2.042391 0
M  V30 2 C 1.451968 -2.412811 1.474035 0
M  V30 3 C 1.816607 -3.764904 1.490211 0
M  V30 4 C 2.992913 -4.279637 0.980628 0
M  V30 5 C 3.880468 -3.389851 0.409570 0
M  V30 6 C 3.533689 -2.050883 0.386480 0
M  V30 7 C 2.359449 -1.535732 0.894810 0
M  V30 8 C 2.063056 -0.107615 0.834648 0
M  V30 9 N 2.885464 0.811913 0.290772 0
M  V30 10 N 2.293685 1.995078 0.413697 0
M  V30 11 C 1.111568 1.796896 1.031897 0
M  V30 12 S -0.242251 2.830781 1.556600 0
M  V30 13 C -1.503074 3.040399 0.307051 0
M  V30 14 C -2.234183 1.797204 -0.020755 0
M  V30 15 C -3.380067 1.395432 0.630929 0
M  V30 16 C -4.100040 0.259005 0.374727 0
M  V30 17 C -3.588074 -0.531131 -0.646529 0
M  V30 18 F -4.228513 -1.694714 -0.989732 0
M  V30 19 C -2.435457 -0.211599 -1.365750 0
M  V30 20 C -1.766651 0.964743 -1.036942 0
M  V30 21 O 1.017116 0.505722 1.266818 0
M  V30 22 H -0.468390 -2.882592 2.189030 0
M  V30 23 H 0.374055 -1.556606 3.046049 0
M  V30 24 H -0.438130 -1.318255 1.393061 0
M  V30 25 H 1.078866 -4.428604 1.953717 0
M  V30 26 H 3.175150 -5.347482 1.045937 0
M  V30 27 H 4.816756 -3.754195 -0.002354 0
M  V30 28 H 4.226079 -1.332781 -0.062585 0
M  V30 29 H -2.186533 3.846167 0.645725 0
M  V30 30 H -1.028076 3.401698 -0.630991 0
M  V30 31 H -3.705977 2.083401 1.420239 0
M  V30 32 H -4.990428 -0.023067 0.904323 0
M  V30 33 H -2.090537 -0.881054 -2.157503 0
M  V30 34 H -0.866417 1.196077 -1.611964 0
M  V30 END ATOM
M  V30 BEGIN BOND
M  V30 1 1 1 2
M  V30 2 2 2 3
M  V30 3 1 3 4
M  V30 4 2 4 5
M  V30 5 1 5 6
M  V30 6 2 6 7
M  V30 7 1 7 8
M  V30 8 2 8 9
M  V30 9 1 9 10
M  V30 10 2 10 11
M  V30 11 1 11 12
M  V30 12 1 12 13
M  V30 13 1 13 14
M  V30 14 2 14 15
M  V30 15 1 15 16
M  V30 16 2 16 17
M  V30 17 1 17 18
M  V30 18 1 17 19
M  V30 19 2 19 20
M  V30 20 1 11 21
M  V30 21 1 7 2
M  V30 22 1 21 8
M  V30 23 1 20 14
M  V30 24 1 1 22
M  V30 25 1 1 23
M  V30 26 1 1 24
M  V30 27 1 3 25
M  V30 28 1 4 26
M  V30 29 1 5 27
M  V30 30 1 6 28
M  V30 31 1 13 29
M  V30 32 1 13 30
M  V30 33 1 15 31
M  V30 34 1 16 32
M  V30 35 1 19 33
M  V30 36 1 20 34
M  V30 END BOND
M  V30 END CTAB
M  END
>  <Dataset>  (162) 
ChEMBL_Kinases

>  <Ligand_Instance>  (162) 
nan

>  <PDB_ID>  (162) 
nan

>  <Standardized_SMILES>  (162) 
Cc1ccccc1-c1nnc(SCc2ccc(F)cc2)o1

>  <Name>  (162) 
nan

>  <Pocket>  (162) 
nan

>  <ATP_Site>  (162) 
nan

>  <Peripheral>  (162) 
nan

>  <Num_H_Atoms_ProtBoundConf>  (162) 
nan

>  <Num_Resolved_Atoms>  (162) 
nan

>  <Num_Not_Resolved_Atoms>  (162) 
nan

$$$$
CHEMBL1277293
     RDKit          3D

  0  0  0  0  0  0  0  0  0  0999 V3000
M  V30 BEGIN CTAB
M  V30 COUNTS 50 54 0 0 0
M  V30 BEGIN ATOM
M  V30 1 C 6.020363 -1.340958 -4.686958 0
M  V30 2 O 5.525580 -2.161879 -3.654231 0
M  V30 3 C 4.439011 -1.862340 -2.857872 0
M  V30 4 C 4.065541 -2.776123 -1.872492 0
M  V30 5 C 2.991198 -2.533675 -1.047486 0
M  V30 6 C 2.230982 -1.365442 -1.161331 0
M  V30 7 N 1.139502 -1.207651 -0.261456 0
M  V30 8 C 1.368626 -0.563599 0.982643 0
M  V30 9 O 2.589383 -0.221031 1.079243 0
M  V30 10 C 0.363395 -0.306220 2.042744 0
M  V30 11 C 0.797777 0.308810 3.128411 0
M  V30 12 C 2.194653 0.752014 3.352758 0
M  V30 13 N -0.199832 0.512338 4.120668 0
M  V30 14 C -1.540161 0.084598 3.942539 0
M  V30 15 N -2.585614 0.183373 4.783337 0
M  V30 16 C -3.675337 -0.387594 4.189675 0
M  V30 17 C -4.943712 -0.526458 4.650301 0
M  V30 18 C -5.860335 -1.154572 3.833832 0
M  V30 19 C -5.468803 -1.615568 2.594506 0
M  V30 20 C -4.172868 -1.436419 2.204898 0
M  V30 21 C -3.179416 -0.816369 2.956965 0
M  V30 22 N -1.875053 -0.531241 2.797142 0
M  V30 23 C -0.990797 -0.784979 1.679190 0
M  V30 24 C -1.549489 0.049058 0.546042 0
M  V30 25 C -2.367904 -0.151680 -0.549809 0
M  V30 26 C -2.504206 1.044844 -1.217526 0
M  V30 27 C -1.753835 1.947537 -0.496702 0
M  V30 28 O -1.230475 1.321963 0.501445 0
M  V30 29 C 2.605996 -0.463699 -2.139702 0
M  V30 30 C 3.684484 -0.711196 -2.965009 0
M  V30 31 H 6.476514 -1.936788 -5.505073 0
M  V30 32 H 6.752858 -0.581840 -4.300726 0
M  V30 33 H 5.193134 -0.751184 -5.149040 0
M  V30 34 H 4.626383 -3.708448 -1.739179 0
M  V30 35 H 2.738287 -3.280560 -0.290547 0
M  V30 36 H 0.144426 -1.538967 -0.438922 0
M  V30 37 H 2.914285 -0.095160 3.376155 0
M  V30 38 H 2.225061 1.275133 4.354745 0
M  V30 39 H 2.482763 1.536931 2.593301 0
M  V30 40 H 0.066882 0.988852 4.999625 0
M  V30 41 H -5.268023 -0.179434 5.601120 0
M  V30 42 H -6.876158 -1.286019 4.158496 0
M  V30 43 H -6.200485 -2.104086 1.971044 0
M  V30 44 H -3.933197 -1.820764 1.231009 0
M  V30 45 H -0.997738 -1.849685 1.373987 0
M  V30 46 H -2.749031 -1.145472 -0.710783 0
M  V30 47 H -3.106112 1.123644 -2.112478 0
M  V30 48 H -1.670419 2.986824 -0.787150 0
M  V30 49 H 2.009934 0.430140 -2.213472 0
M  V30 50 H 3.953504 0.009602 -3.718611 0
M  V30 END ATOM
M  V30 BEGIN BOND
M  V30 1 1 1 2
M  V30 2 1 2 3
M  V30 3 2 3 4
M  V30 4 1 4 5
M  V30 5 2 5 6
M  V30 6 1 6 7
M  V30 7 1 7 8
M  V30 8 2 8 9
M  V30 9 1 8 10
M  V30 10 2 10 11
M  V30 11 1 11 12
M  V30 12 1 11 13
M  V30 13 1 13 14
M  V30 14 2 14 15
M  V30 15 1 15 16
M  V30 16 2 16 17
M  V30 17 1 17 18
M  V30 18 2 18 19
M  V30 19 1 19 20
M  V30 20 2 20 21
M  V30 21 1 21 22
M  V30 22 1 22 23
M  V30 23 1 23 24
M  V30 24 2 24 25
M  V30 25 1 25 26
M  V30 26 2 26 27
M  V30 27 1 27 28
M  V30 28 1 6 29
M  V30 29 2 29 30
M  V30 30 1 30 3
M  V30 31 1 23 10
M  V30 32 1 28 24
M  V30 33 1 22 14
M  V30 34 1 21 16
M  V30 35 1 1 31
M  V30 36 1 1 32
M  V30 37 1 1 33
M  V30 38 1 4 34
M  V30 39 1 5 35
M  V30 40 1 7 36
M  V30 41 1 12 37
M  V30 42 1 12 38
M  V30 43 1 12 39
M  V30 44 1 13 40
M  V30 45 1 17 41
M  V30 46 1 18 42
M  V30 47 1 19 43
M  V30 48 1 20 44
M  V30 49 1 23 45
M  V30 50 1 25 46
M  V30 51 1 26 47
M  V30 52 1 27 48
M  V30 53 1 29 49
M  V30 54 1 30 50
M  V30 END BOND
M  V30 END CTAB
M  END
>  <Dataset>  (163) 
ChEMBL_Kinases

>  <Ligand_Instance>  (163) 
nan

>  <PDB_ID>  (163) 
nan

>  <Standardized_SMILES>  (163) 
COc1ccc(NC(=O)C2=C(C)Nc3nc4ccccc4n3C2c2ccco2)cc1

>  <Name>  (163) 
nan

>  <Pocket>  (163) 
nan

>  <ATP_Site>  (163) 
nan

>  <Peripheral>  (163) 
nan

>  <Num_H_Atoms_ProtBoundConf>  (163) 
nan

>  <Num_Resolved_Atoms>  (163) 
nan

>  <Num_Not_Resolved_Atoms>  (163) 
nan

$$$$
CHEMBL1277199
     RDKit          3D

  0  0  0  0  0  0  0  0  0  0999 V3000
M  V30 BEGIN CTAB
M  V30 COUNTS 40 43 0 0 0
M  V30 BEGIN ATOM
M  V30 1 C -0.720861 -3.617081 1.323377 0
M  V30 2 C -0.626838 -2.426960 2.171101 0
M  V30 3 C 0.034845 -1.421183 1.651415 0
M  V30 4 C 0.714068 -1.183614 0.416556 0
M  V30 5 O 1.319268 -0.132028 0.060818 0
M  V30 6 N 0.986545 -1.879526 -0.781104 0
M  V30 7 C 1.714191 -1.304558 -1.818307 0
M  V30 8 C 3.065314 -1.309664 -2.060458 0
M  V30 9 C 3.595012 -0.663716 -3.172428 0
M  V30 10 C 2.778181 0.000747 -4.064144 0
M  V30 11 F 3.272161 0.637307 -5.154778 0
M  V30 12 C 1.414641 0.023437 -3.847293 0
M  V30 13 C 0.889230 -0.627773 -2.727859 0
M  V30 14 C 0.191839 -0.147581 2.444693 0
M  V30 15 C -0.471141 0.934507 1.630596 0
M  V30 16 C -0.100187 2.283378 1.661724 0
M  V30 17 C -0.940843 2.941723 0.784438 0
M  V30 18 C -1.778790 1.969005 0.263701 0
M  V30 19 O -1.481834 0.796100 0.777792 0
M  V30 20 C -0.485966 -0.279829 3.736719 0
M  V30 21 C -0.465266 0.783893 4.605128 0
M  V30 22 N -1.156349 0.366077 5.689165 0
M  V30 23 N -1.584622 -0.889837 5.506357 0
M  V30 24 C -1.179516 -1.305771 4.304220 0
M  V30 25 N -1.232131 -2.425700 3.444574 0
M  V30 26 H -1.271668 -3.461120 0.381131 0
M  V30 27 H 0.261698 -4.057212 1.098027 0
M  V30 28 H -1.235936 -4.403863 1.938888 0
M  V30 29 H 0.581963 -2.841587 -0.778387 0
M  V30 30 H 3.634215 -1.844380 -1.326486 0
M  V30 31 H 4.651294 -0.694710 -3.319350 0
M  V30 32 H 0.781082 0.545575 -4.549559 0
M  V30 33 H -0.207011 -0.546463 -2.652510 0
M  V30 34 H 1.258857 0.149566 2.541905 0
M  V30 35 H 0.687701 2.654887 2.269288 0
M  V30 36 H -0.872806 4.009977 0.611894 0
M  V30 37 H -2.535292 2.245791 -0.457218 0
M  V30 38 H -0.098555 1.794441 4.705939 0
M  V30 39 H -1.442592 0.747652 6.613528 0
M  V30 40 H -1.740423 -3.268352 3.782735 0
M  V30 END ATOM
M  V30 BEGIN BOND
M  V30 1 1 1 2
M  V30 2 2 2 3
M  V30 3 1 3 4
M  V30 4 2 4 5
M  V30 5 1 4 6
M  V30 6 1 6 7
M  V30 7 2 7 8
M  V30 8 1 8 9
M  V30 9 2 9 10
M  V30 10 1 10 11
M  V30 11 1 10 12
M  V30 12 2 12 13
M  V30 13 1 3 14
M  V30 14 1 14 15
M  V30 15 2 15 16
M  V30 16 1 16 17
M  V30 17 2 17 18
M  V30 18 1 18 19
M  V30 19 1 14 20
M  V30 20 2 20 21
M  V30 21 1 21 22
M  V30 22 1 22 23
M  V30 23 2 23 24
M  V30 24 1 24 25
M  V30 25 1 25 2
M  V30 26 1 13 7
M  V30 27 1 19 15
M  V30 28 1 24 20
M  V30 29 1 1 26
M  V30 30 1 1 27
M  V30 31 1 1 28
M  V30 32 1 6 29
M  V30 33 1 8 30
M  V30 34 1 9 31
M  V30 35 1 12 32
M  V30 36 1 13 33
M  V30 37 1 14 34
M  V30 38 1 16 35
M  V30 39 1 17 36
M  V30 40 1 18 37
M  V30 41 1 21 38
M  V30 42 1 22 39
M  V30 43 1 25 40
M  V30 END BOND
M  V30 END CTAB
M  END
>  <Dataset>  (164) 
ChEMBL_Kinases

>  <Ligand_Instance>  (164) 
nan

>  <PDB_ID>  (164) 
nan

>  <Standardized_SMILES>  (164) 
CC1=C(C(=O)Nc2ccc(F)cc2)C(c2ccco2)c2c[nH]nc2N1

>  <Name>  (164) 
nan

>  <Pocket>  (164) 
nan

>  <ATP_Site>  (164) 
nan

>  <Peripheral>  (164) 
nan

>  <Num_H_Atoms_ProtBoundConf>  (164) 
nan

>  <Num_Resolved_Atoms>  (164) 
nan

>  <Num_Not_Resolved_Atoms>  (164) 
nan

$$$$
CHEMBL1277132
     RDKit          3D

  0  0  0  0  0  0  0  0  0  0999 V3000
M  V30 BEGIN CTAB
M  V30 COUNTS 64 68 0 0 0
M  V30 BEGIN ATOM
M  V30 1 N 7.138974 -2.836387 2.198839 0
M  V30 2 C 6.096152 -3.004829 2.954689 0
M  V30 3 N 5.244135 -4.172065 2.967939 0
M  V30 4 N 5.781003 -1.944612 3.839555 0
M  V30 5 C 5.870517 -0.563022 3.489286 0
M  V30 6 C 4.839313 -0.102385 2.496843 0
M  V30 7 C 4.909230 -0.837028 1.198478 0
M  V30 8 N 3.880890 -0.321613 0.281948 0
M  V30 9 C 3.741661 0.996618 -0.195374 0
M  V30 10 O 4.577535 1.864635 0.186045 0
M  V30 11 C 2.701705 1.451436 -1.104225 0
M  V30 12 C 2.675434 2.790080 -1.435953 0
M  V30 13 C 1.728939 3.346319 -2.299693 0
M  V30 14 C 0.768978 2.558054 -2.861100 0
M  V30 15 C 0.765484 1.216459 -2.551907 0
M  V30 16 C -0.180273 0.146249 -3.035187 0
M  V30 17 N -1.252216 0.082197 -2.061803 0
M  V30 18 C -2.330817 0.966522 -1.939129 0
M  V30 19 O -2.475965 1.953376 -2.708282 0
M  V30 20 C -3.259759 0.628441 -0.837782 0
M  V30 21 C -3.611260 1.612126 0.060725 0
M  V30 22 C -4.477157 1.297164 1.102795 0
M  V30 23 C -4.973585 0.029968 1.234912 0
M  V30 24 C -4.637438 -0.933525 0.365594 0
M  V30 25 C -3.781641 -0.637244 -0.670790 0
M  V30 26 N -3.607466 -1.779242 -1.398145 0
M  V30 27 C -4.351110 -2.753070 -0.803496 0
M  V30 28 C -4.473705 -4.086490 -1.205602 0
M  V30 29 C -5.267779 -4.958124 -0.495650 0
M  V30 30 C -5.937693 -4.468203 0.626091 0
M  V30 31 O -6.734517 -5.360388 1.331068 0
M  V30 32 C -5.774095 -3.146567 0.967336 0
M  V30 33 C -5.000720 -2.245743 0.298006 0
M  V30 34 C -5.813566 0.091688 2.402602 0
M  V30 35 O -6.517143 -0.726256 3.009147 0
M  V30 36 N -5.799062 1.400798 2.943352 0
M  V30 37 C -4.947253 2.223573 2.138264 0
M  V30 38 O -4.663774 3.436261 2.272445 0
M  V30 39 C 1.721641 0.678005 -1.684807 0
M  V30 40 H 7.723690 -1.993090 2.214319 0
M  V30 41 H 5.228607 -5.195592 3.199330 0
M  V30 42 H 4.249643 -4.267117 2.689657 0
M  V30 43 H 5.450255 -2.167272 4.829987 0
M  V30 44 H 5.875718 0.094700 4.407176 0
M  V30 45 H 6.866892 -0.314951 3.011520 0
M  V30 46 H 3.812860 -0.169496 2.964075 0
M  V30 47 H 5.002788 0.996846 2.302801 0
M  V30 48 H 5.883015 -0.726627 0.727936 0
M  V30 49 H 4.688152 -1.922377 1.304684 0
M  V30 50 H 3.131062 -0.964584 -0.094515 0
M  V30 51 H 3.390300 3.535330 -1.055477 0
M  V30 52 H 1.707932 4.395015 -2.560139 0
M  V30 53 H -0.019524 2.845058 -3.540415 0
M  V30 54 H 0.324086 -0.794509 -3.234310 0
M  V30 55 H -0.614204 0.527734 -3.991637 0
M  V30 56 H -1.114459 -0.754465 -1.416374 0
M  V30 57 H -3.188928 2.602119 -0.089895 0
M  V30 58 H -3.018811 -1.911281 -2.259558 0
M  V30 59 H -3.960169 -4.470548 -2.067793 0
M  V30 60 H -5.345741 -5.982983 -0.826971 0
M  V30 61 H -6.599095 -5.431055 2.349540 0
M  V30 62 H -6.313187 -2.867552 1.822689 0
M  V30 63 H -6.278520 1.841481 3.783323 0
M  V30 64 H 1.754507 -0.383343 -1.413272 0
M  V30 END ATOM
M  V30 BEGIN BOND
M  V30 1 2 1 2 CFG=2
M  V30 2 1 2 3
M  V30 3 1 2 4
M  V30 4 1 4 5
M  V30 5 1 5 6
M  V30 6 1 6 7
M  V30 7 1 7 8
M  V30 8 1 8 9
M  V30 9 2 9 10
M  V30 10 1 9 11
M  V30 11 2 11 12
M  V30 12 1 12 13
M  V30 13 2 13 14
M  V30 14 1 14 15
M  V30 15 1 15 16
M  V30 16 1 16 17
M  V30 17 1 17 18
M  V30 18 2 18 19
M  V30 19 1 18 20
M  V30 20 2 20 21
M  V30 21 1 21 22
M  V30 22 2 22 23
M  V30 23 1 23 24
M  V30 24 2 24 25
M  V30 25 1 25 26
M  V30 26 1 26 27
M  V30 27 2 27 28
M  V30 28 1 28 29
M  V30 29 2 29 30
M  V30 30 1 30 31
M  V30 31 1 30 32
M  V30 32 2 32 33
M  V30 33 1 23 34
M  V30 34 2 34 35
M  V30 35 1 34 36
M  V30 36 1 36 37
M  V30 37 2 37 38
M  V30 38 2 15 39
M  V30 39 1 39 11
M  V30 40 1 25 20
M  V30 41 1 33 27
M  V30 42 1 37 22
M  V30 43 1 33 24
M  V30 44 1 1 40
M  V30 45 1 3 41
M  V30 46 1 3 42
M  V30 47 1 4 43
M  V30 48 1 5 44
M  V30 49 1 5 45
M  V30 50 1 6 46
M  V30 51 1 6 47
M  V30 52 1 7 48
M  V30 53 1 7 49
M  V30 54 1 8 50
M  V30 55 1 12 51
M  V30 56 1 13 52
M  V30 57 1 14 53
M  V30 58 1 16 54
M  V30 59 1 16 55
M  V30 60 1 17 56
M  V30 61 1 21 57
M  V30 62 1 26 58
M  V30 63 1 28 59
M  V30 64 1 29 60
M  V30 65 1 31 61
M  V30 66 1 32 62
M  V30 67 1 36 63
M  V30 68 1 39 64
M  V30 END BOND
M  V30 END CTAB
M  END
>  <Dataset>  (165) 
ChEMBL_Kinases

>  <Ligand_Instance>  (165) 
nan

>  <PDB_ID>  (165) 
nan

>  <Standardized_SMILES>  (165) 
N=C(N)NCCCNC(=O)c1cccc(CNC(=O)c2cc3c(c4c2[nH]c2ccc(O)cc24)C(=O)NC3=O)c1

>  <Name>  (165) 
nan

>  <Pocket>  (165) 
nan

>  <ATP_Site>  (165) 
nan

>  <Peripheral>  (165) 
nan

>  <Num_H_Atoms_ProtBoundConf>  (165) 
nan

>  <Num_Resolved_Atoms>  (165) 
nan

>  <Num_Not_Resolved_Atoms>  (165) 
nan

$$$$
CHEMBL1277043
     RDKit          3D

  0  0  0  0  0  0  0  0  0  0999 V3000
M  V30 BEGIN CTAB
M  V30 COUNTS 63 67 0 0 0
M  V30 BEGIN ATOM
M  V30 1 N 4.343319 -0.242897 3.627329 0
M  V30 2 C 5.419315 -0.862684 3.984411 0
M  V30 3 N 5.297395 -1.247870 5.342208 0
M  V30 4 N 6.478174 -1.051881 3.051616 0
M  V30 5 C 6.085797 -0.901055 1.647307 0
M  V30 6 C 5.197054 -1.977473 1.183503 0
M  V30 7 C 4.823394 -1.833464 -0.259491 0
M  V30 8 N 4.098803 -0.700545 -0.660079 0
M  V30 9 C 3.824733 0.648604 -0.890941 0
M  V30 10 O 4.803046 1.369304 -0.558217 0
M  V30 11 C 2.631524 1.292685 -1.429199 0
M  V30 12 C 2.638372 2.660240 -1.349733 0
M  V30 13 C 1.513228 3.323316 -1.855497 0
M  V30 14 C 0.432672 2.649594 -2.414404 0
M  V30 15 C 0.439209 1.270055 -2.488673 0
M  V30 16 C -0.647508 0.428927 -3.059237 0
M  V30 17 N -1.518017 0.061610 -1.944901 0
M  V30 18 C -2.481269 0.851320 -1.301673 0
M  V30 19 O -2.655811 2.029215 -1.696794 0
M  V30 20 C -3.232097 0.225636 -0.188999 0
M  V30 21 C -3.089553 0.800261 1.058638 0
M  V30 22 C -3.787825 0.219519 2.125684 0
M  V30 23 C -4.586932 -0.880841 1.946530 0
M  V30 24 C -4.712704 -1.429936 0.709635 0
M  V30 25 C -4.032258 -0.868245 -0.343838 0
M  V30 26 N -4.330189 -1.599270 -1.431142 0
M  V30 27 C -5.183788 -2.602318 -1.061326 0
M  V30 28 C -5.734513 -3.577953 -1.864666 0
M  V30 29 C -6.597392 -4.543625 -1.330941 0
M  V30 30 C -6.861070 -4.459097 0.041626 0
M  V30 31 C -6.272114 -3.455879 0.773393 0
M  V30 32 C -5.431585 -2.504573 0.288150 0
M  V30 33 C -5.127569 -1.184204 3.244412 0
M  V30 34 O -5.893950 -2.048370 3.685801 0
M  V30 35 N -4.633224 -0.246622 4.183222 0
M  V30 36 C -3.771072 0.674675 3.521398 0
M  V30 37 O -3.132661 1.654768 3.991806 0
M  V30 38 C 1.555868 0.634510 -1.985159 0
M  V30 39 H 3.524635 -0.051186 4.213921 0
M  V30 40 H 5.671328 -1.059868 6.293083 0
M  V30 41 H 4.617575 -1.989754 5.673600 0
M  V30 42 H 7.383768 -1.273058 3.553568 0
M  V30 43 H 7.021855 -0.915248 1.057064 0
M  V30 44 H 5.603575 0.082967 1.501780 0
M  V30 45 H 4.215038 -1.990039 1.741654 0
M  V30 46 H 5.707832 -2.963919 1.283386 0
M  V30 47 H 5.787579 -1.953531 -0.868732 0
M  V30 48 H 4.265886 -2.761968 -0.588425 0
M  V30 49 H 3.155427 -1.097673 -1.007706 0
M  V30 50 H 3.444082 3.241625 -0.927790 0
M  V30 51 H 1.517613 4.400918 -1.792428 0
M  V30 52 H -0.429636 3.167797 -2.803651 0
M  V30 53 H -1.205837 1.017256 -3.820370 0
M  V30 54 H -0.167220 -0.466474 -3.496917 0
M  V30 55 H -1.382432 -0.938043 -1.595340 0
M  V30 56 H -2.467099 1.651900 1.177608 0
M  V30 57 H -3.971477 -1.435246 -2.404937 0
M  V30 58 H -5.528284 -3.635081 -2.914633 0
M  V30 59 H -7.016280 -5.294974 -1.969911 0
M  V30 60 H -7.528107 -5.210444 0.441520 0
M  V30 61 H -6.534337 -3.477436 1.796647 0
M  V30 62 H -4.789212 -0.128418 5.220270 0
M  V30 63 H 1.579463 -0.428111 -2.034724 0
M  V30 END ATOM
M  V30 BEGIN BOND
M  V30 1 2 1 2 CFG=2
M  V30 2 1 2 3
M  V30 3 1 2 4
M  V30 4 1 4 5
M  V30 5 1 5 6
M  V30 6 1 6 7
M  V30 7 1 7 8
M  V30 8 1 8 9
M  V30 9 2 9 10
M  V30 10 1 9 11
M  V30 11 2 11 12
M  V30 12 1 12 13
M  V30 13 2 13 14
M  V30 14 1 14 15
M  V30 15 1 15 16
M  V30 16 1 16 17
M  V30 17 1 17 18
M  V30 18 2 18 19
M  V30 19 1 18 20
M  V30 20 2 20 21
M  V30 21 1 21 22
M  V30 22 2 22 23
M  V30 23 1 23 24
M  V30 24 2 24 25
M  V30 25 1 25 26
M  V30 26 1 26 27
M  V30 27 2 27 28
M  V30 28 1 28 29
M  V30 29 2 29 30
M  V30 30 1 30 31
M  V30 31 2 31 32
M  V30 32 1 23 33
M  V30 33 2 33 34
M  V30 34 1 33 35
M  V30 35 1 35 36
M  V30 36 2 36 37
M  V30 37 2 15 38
M  V30 38 1 38 11
M  V30 39 1 25 20
M  V30 40 1 32 27
M  V30 41 1 36 22
M  V30 42 1 32 24
M  V30 43 1 1 39
M  V30 44 1 3 40
M  V30 45 1 3 41
M  V30 46 1 4 42
M  V30 47 1 5 43
M  V30 48 1 5 44
M  V30 49 1 6 45
M  V30 50 1 6 46
M  V30 51 1 7 47
M  V30 52 1 7 48
M  V30 53 1 8 49
M  V30 54 1 12 50
M  V30 55 1 13 51
M  V30 56 1 14 52
M  V30 57 1 16 53
M  V30 58 1 16 54
M  V30 59 1 17 55
M  V30 60 1 21 56
M  V30 61 1 26 57
M  V30 62 1 28 58
M  V30 63 1 29 59
M  V30 64 1 30 60
M  V30 65 1 31 61
M  V30 66 1 35 62
M  V30 67 1 38 63
M  V30 END BOND
M  V30 END CTAB
M  END
>  <Dataset>  (166) 
ChEMBL_Kinases

>  <Ligand_Instance>  (166) 
nan

>  <PDB_ID>  (166) 
nan

>  <Standardized_SMILES>  (166) 
N=C(N)NCCCNC(=O)c1cccc(CNC(=O)c2cc3c(c4c2[nH]c2ccccc24)C(=O)NC3=O)c1

>  <Name>  (166) 
nan

>  <Pocket>  (166) 
nan

>  <ATP_Site>  (166) 
nan

>  <Peripheral>  (166) 
nan

>  <Num_H_Atoms_ProtBoundConf>  (166) 
nan

>  <Num_Resolved_Atoms>  (166) 
nan

>  <Num_Not_Resolved_Atoms>  (166) 
nan

$$$$
CHEMBL1277017
     RDKit          3D

  0  0  0  0  0  0  0  0  0  0999 V3000
M  V30 BEGIN CTAB
M  V30 COUNTS 44 47 0 0 0
M  V30 BEGIN ATOM
M  V30 1 C -2.893505 -6.621403 1.965397 0
M  V30 2 O -3.148528 -5.649891 0.991315 0
M  V30 3 C -2.472505 -4.437997 0.939993 0
M  V30 4 C -2.789012 -3.538042 -0.056292 0
M  V30 5 C -2.095127 -2.348707 -0.071014 0
M  V30 6 C -1.119632 -1.967721 0.806003 0
M  V30 7 N -0.390256 -0.759145 0.819381 0
M  V30 8 C -0.454385 0.365245 -0.037817 0
M  V30 9 O -1.294967 0.300449 -0.970939 0
M  V30 10 C 0.380836 1.560007 0.100888 0
M  V30 11 C 0.225741 2.561930 -0.766120 0
M  V30 12 C -0.740675 2.543204 -1.867426 0
M  V30 13 N 1.047099 3.737724 -0.594616 0
M  V30 14 C 2.013980 3.916419 0.428468 0
M  V30 15 N 2.853095 4.889209 0.784810 0
M  V30 16 N 3.487061 4.416926 1.870288 0
M  V30 17 C 3.076821 3.166735 2.219371 0
M  V30 18 C 2.115586 2.838970 1.278526 0
M  V30 19 C 1.380828 1.556885 1.227259 0
M  V30 20 C 2.397451 0.468405 0.981883 0
M  V30 21 C 3.179340 -0.304962 1.813293 0
M  V30 22 C 3.940455 -1.156680 1.040581 0
M  V30 23 C 3.585559 -0.863240 -0.257983 0
M  V30 24 O 2.697866 0.075047 -0.237788 0
M  V30 25 C -0.846307 -2.904996 1.777689 0
M  V30 26 C -1.496140 -4.114371 1.857912 0
M  V30 27 H -1.835719 -6.904943 2.081415 0
M  V30 28 H -3.426486 -7.551530 1.656442 0
M  V30 29 H -3.315876 -6.316429 2.952162 0
M  V30 30 H -3.541592 -3.775160 -0.772392 0
M  V30 31 H -2.376284 -1.680449 -0.864836 0
M  V30 32 H 0.320076 -0.625556 1.570582 0
M  V30 33 H -0.561732 1.743492 -2.618670 0
M  V30 34 H -1.779323 2.507856 -1.459958 0
M  V30 35 H -0.649168 3.502584 -2.443185 0
M  V30 36 H 0.937539 4.539892 -1.270800 0
M  V30 37 H 4.208095 5.026427 2.329880 0
M  V30 38 H 3.520031 2.685914 3.080412 0
M  V30 39 H 0.854303 1.348695 2.169333 0
M  V30 40 H 3.086711 -0.139781 2.891494 0
M  V30 41 H 4.629775 -1.857324 1.472261 0
M  V30 42 H 4.014563 -1.370052 -1.121249 0
M  V30 43 H -0.079626 -2.720202 2.546682 0
M  V30 44 H -1.248080 -4.814254 2.634953 0
M  V30 END ATOM
M  V30 BEGIN BOND
M  V30 1 1 1 2
M  V30 2 1 2 3
M  V30 3 2 3 4
M  V30 4 1 4 5
M  V30 5 2 5 6
M  V30 6 1 6 7
M  V30 7 1 7 8
M  V30 8 2 8 9
M  V30 9 1 8 10
M  V30 10 2 10 11
M  V30 11 1 11 12
M  V30 12 1 11 13
M  V30 13 1 13 14
M  V30 14 2 14 15
M  V30 15 1 15 16
M  V30 16 1 16 17
M  V30 17 2 17 18
M  V30 18 1 18 19
M  V30 19 1 19 20
M  V30 20 2 20 21
M  V30 21 1 21 22
M  V30 22 2 22 23
M  V30 23 1 23 24
M  V30 24 1 6 25
M  V30 25 2 25 26
M  V30 26 1 26 3
M  V30 27 1 19 10
M  V30 28 1 24 20
M  V30 29 1 18 14
M  V30 30 1 1 27
M  V30 31 1 1 28
M  V30 32 1 1 29
M  V30 33 1 4 30
M  V30 34 1 5 31
M  V30 35 1 7 32
M  V30 36 1 12 33
M  V30 37 1 12 34
M  V30 38 1 12 35
M  V30 39 1 13 36
M  V30 40 1 16 37
M  V30 41 1 17 38
M  V30 42 1 19 39
M  V30 43 1 21 40
M  V30 44 1 22 41
M  V30 45 1 23 42
M  V30 46 1 25 43
M  V30 47 1 26 44
M  V30 END BOND
M  V30 END CTAB
M  END
>  <Dataset>  (167) 
ChEMBL_Kinases

>  <Ligand_Instance>  (167) 
nan

>  <PDB_ID>  (167) 
nan

>  <Standardized_SMILES>  (167) 
COc1ccc(NC(=O)C2=C(C)Nc3n[nH]cc3C2c2ccco2)cc1

>  <Name>  (167) 
nan

>  <Pocket>  (167) 
nan

>  <ATP_Site>  (167) 
nan

>  <Peripheral>  (167) 
nan

>  <Num_H_Atoms_ProtBoundConf>  (167) 
nan

>  <Num_Resolved_Atoms>  (167) 
nan

>  <Num_Not_Resolved_Atoms>  (167) 
nan

$$$$
CHEMBL1276955
     RDKit          3D

  0  0  0  0  0  0  0  0  0  0999 V3000
M  V30 BEGIN CTAB
M  V30 COUNTS 61 65 0 0 0
M  V30 BEGIN ATOM
M  V30 1 N 1.934574 -1.466196 5.904629 0
M  V30 2 C 1.928514 -1.123173 4.670662 0
M  V30 3 N 1.680839 -1.959421 3.522669 0
M  V30 4 N 2.194847 0.240973 4.364853 0
M  V30 5 C 1.848713 1.333119 5.249652 0
M  V30 6 C 0.346683 1.507139 5.355721 0
M  V30 7 N -0.254796 1.782736 4.072156 0
M  V30 8 C 0.069466 2.904313 3.263897 0
M  V30 9 O 0.943494 3.688751 3.733798 0
M  V30 10 C -0.502990 3.227189 1.964494 0
M  V30 11 C -0.029056 4.350791 1.326914 0
M  V30 12 C -0.569619 4.663473 0.079495 0
M  V30 13 C -1.554483 3.831278 -0.457192 0
M  V30 14 C -2.026617 2.689886 0.204904 0
M  V30 15 C -3.074640 1.961498 -0.553368 0
M  V30 16 N -2.463149 0.992869 -1.449480 0
M  V30 17 C -1.934956 -0.279995 -1.054526 0
M  V30 18 O -2.055378 -0.487809 0.154137 0
M  V30 19 C -1.321633 -1.227251 -1.977072 0
M  V30 20 C -1.216691 -0.980737 -3.317037 0
M  V30 21 C -0.613130 -1.929431 -4.149406 0
M  V30 22 C -0.133925 -3.097264 -3.609174 0
M  V30 23 C -0.237860 -3.343412 -2.277694 0
M  V30 24 C -0.832787 -2.406580 -1.460648 0
M  V30 25 N -0.788288 -2.921477 -0.233798 0
M  V30 26 C -0.188012 -4.144020 -0.254685 0
M  V30 27 C 0.069390 -5.032450 0.798471 0
M  V30 28 C 0.696506 -6.238562 0.576743 0
M  V30 29 C 1.065426 -6.543069 -0.730909 0
M  V30 30 O 1.702106 -7.761903 -0.978066 0
M  V30 31 C 0.784155 -5.627848 -1.719229 0
M  V30 32 C 0.169432 -4.426773 -1.557062 0
M  V30 33 C 0.405384 -3.810013 -4.739328 0
M  V30 34 O 0.965032 -4.904682 -4.878209 0
M  V30 35 N 0.248258 -3.074251 -5.939239 0
M  V30 36 C -0.412774 -1.835119 -5.609463 0
M  V30 37 O -0.741282 -0.897935 -6.375862 0
M  V30 38 C -1.465006 2.434061 1.416424 0
M  V30 39 H 2.111887 -0.865444 6.722782 0
M  V30 40 H 2.217881 -2.628929 2.911866 0
M  V30 41 H 0.742114 -2.034729 3.034927 0
M  V30 42 H 2.671907 0.451610 3.436391 0
M  V30 43 H 2.223199 1.113864 6.274010 0
M  V30 44 H 2.353625 2.245374 4.903705 0
M  V30 45 H 0.087185 2.238312 6.134939 0
M  V30 46 H -0.036146 0.523156 5.713381 0
M  V30 47 H -0.987481 1.128397 3.677692 0
M  V30 48 H 0.734702 5.018603 1.715838 0
M  V30 49 H -0.236170 5.532900 -0.467521 0
M  V30 50 H -1.931333 4.144792 -1.442424 0
M  V30 51 H -3.753083 1.454579 0.176121 0
M  V30 52 H -3.695841 2.635410 -1.162341 0
M  V30 53 H -2.403146 1.251154 -2.476790 0
M  V30 54 H -1.588938 -0.071034 -3.749189 0
M  V30 55 H -1.140656 -2.516551 0.682689 0
M  V30 56 H -0.206074 -4.821575 1.822166 0
M  V30 57 H 0.901157 -6.933570 1.377789 0
M  V30 58 H 2.526756 -7.992838 -0.472912 0
M  V30 59 H 1.098232 -5.941661 -2.675741 0
M  V30 60 H 0.497724 -3.241373 -6.940092 0
M  V30 61 H -1.851065 1.560230 1.899971 0
M  V30 END ATOM
M  V30 BEGIN BOND
M  V30 1 2 1 2 CFG=2
M  V30 2 1 2 3
M  V30 3 1 2 4
M  V30 4 1 4 5
M  V30 5 1 5 6
M  V30 6 1 6 7
M  V30 7 1 7 8
M  V30 8 2 8 9
M  V30 9 1 8 10
M  V30 10 2 10 11
M  V30 11 1 11 12
M  V30 12 2 12 13
M  V30 13 1 13 14
M  V30 14 1 14 15
M  V30 15 1 15 16
M  V30 16 1 16 17
M  V30 17 2 17 18
M  V30 18 1 17 19
M  V30 19 2 19 20
M  V30 20 1 20 21
M  V30 21 2 21 22
M  V30 22 1 22 23
M  V30 23 2 23 24
M  V30 24 1 24 25
M  V30 25 1 25 26
M  V30 26 2 26 27
M  V30 27 1 27 28
M  V30 28 2 28 29
M  V30 29 1 29 30
M  V30 30 1 29 31
M  V30 31 2 31 32
M  V30 32 1 22 33
M  V30 33 2 33 34
M  V30 34 1 33 35
M  V30 35 1 35 36
M  V30 36 2 36 37
M  V30 37 2 14 38
M  V30 38 1 38 10
M  V30 39 1 24 19
M  V30 40 1 32 26
M  V30 41 1 36 21
M  V30 42 1 32 23
M  V30 43 1 1 39
M  V30 44 1 3 40
M  V30 45 1 3 41
M  V30 46 1 4 42
M  V30 47 1 5 43
M  V30 48 1 5 44
M  V30 49 1 6 45
M  V30 50 1 6 46
M  V30 51 1 7 47
M  V30 52 1 11 48
M  V30 53 1 12 49
M  V30 54 1 13 50
M  V30 55 1 15 51
M  V30 56 1 15 52
M  V30 57 1 16 53
M  V30 58 1 20 54
M  V30 59 1 25 55
M  V30 60 1 27 56
M  V30 61 1 28 57
M  V30 62 1 30 58
M  V30 63 1 31 59
M  V30 64 1 35 60
M  V30 65 1 38 61
M  V30 END BOND
M  V30 END CTAB
M  END
>  <Dataset>  (168) 
ChEMBL_Kinases

>  <Ligand_Instance>  (168) 
nan

>  <PDB_ID>  (168) 
nan

>  <Standardized_SMILES>  (168) 
N=C(N)NCCNC(=O)c1cccc(CNC(=O)c2cc3c(c4c2[nH]c2ccc(O)cc24)C(=O)NC3=O)c1

>  <Name>  (168) 
nan

>  <Pocket>  (168) 
nan

>  <ATP_Site>  (168) 
nan

>  <Peripheral>  (168) 
nan

>  <Num_H_Atoms_ProtBoundConf>  (168) 
nan

>  <Num_Resolved_Atoms>  (168) 
nan

>  <Num_Not_Resolved_Atoms>  (168) 
nan

$$$$
CHEMBL1276867
     RDKit          3D

  0  0  0  0  0  0  0  0  0  0999 V3000
M  V30 BEGIN CTAB
M  V30 COUNTS 60 64 0 0 0
M  V30 BEGIN ATOM
M  V30 1 N 1.538510 0.590897 4.210649 0
M  V30 2 C 1.930715 -0.503911 3.701802 0
M  V30 3 N 1.646864 -1.740275 4.347738 0
M  V30 4 N 2.655239 -0.435975 2.486998 0
M  V30 5 C 3.673310 0.570770 2.214291 0
M  V30 6 C 4.242108 0.380948 0.814673 0
M  V30 7 N 3.223070 0.531180 -0.197497 0
M  V30 8 C 2.520710 1.735602 -0.432271 0
M  V30 9 O 2.864018 2.723499 0.318227 0
M  V30 10 C 1.478230 2.024184 -1.388979 0
M  V30 11 C 1.051341 3.349389 -1.532028 0
M  V30 12 C 0.031850 3.627926 -2.452673 0
M  V30 13 C -0.574479 2.686468 -3.223471 0
M  V30 14 C -0.210925 1.382194 -3.135835 0
M  V30 15 C -0.564646 0.007912 -3.660831 0
M  V30 16 N -1.457640 -0.547732 -2.652939 0
M  V30 17 C -2.853142 -0.753566 -2.334209 0
M  V30 18 O -3.596183 -0.392875 -3.230519 0
M  V30 19 C -2.783104 -1.333670 -0.985690 0
M  V30 20 C -3.535780 -0.509702 -0.192449 0
M  V30 21 C -3.624938 -0.661826 1.207972 0
M  V30 22 C -2.875466 -1.721969 1.690033 0
M  V30 23 C -2.131939 -2.532127 0.882462 0
M  V30 24 C -2.062047 -2.369912 -0.474336 0
M  V30 25 N -1.282301 -3.240150 -1.093938 0
M  V30 26 C -0.816927 -4.016143 -0.073490 0
M  V30 27 C 0.055224 -5.063673 -0.237636 0
M  V30 28 C 0.474092 -5.780716 0.900924 0
M  V30 29 C -0.009548 -5.394881 2.125846 0
M  V30 30 C -0.887304 -4.323900 2.208270 0
M  V30 31 C -1.326924 -3.596706 1.148371 0
M  V30 32 C -3.073841 -1.714517 3.101835 0
M  V30 33 O -2.695675 -2.372716 4.076565 0
M  V30 34 N -3.940482 -0.656278 3.474612 0
M  V30 35 C -4.322037 0.051168 2.286659 0
M  V30 36 O -5.076731 1.061917 2.095279 0
M  V30 37 C 0.825803 1.093915 -2.202746 0
M  V30 38 H 0.996631 0.651232 5.103961 0
M  V30 39 H 1.105251 -1.782699 5.223621 0
M  V30 40 H 1.984035 -2.656378 3.958730 0
M  V30 41 H 2.425458 -1.171394 1.754480 0
M  V30 42 H 3.181858 1.561625 2.313425 0
M  V30 43 H 4.469634 0.454792 2.974292 0
M  V30 44 H 5.111833 1.059459 0.685143 0
M  V30 45 H 4.654700 -0.657690 0.784259 0
M  V30 46 H 2.930244 -0.253301 -0.852369 0
M  V30 47 H 1.472441 4.179548 -0.972519 0
M  V30 48 H -0.338156 4.626561 -2.612757 0
M  V30 49 H -1.353346 2.726526 -3.957526 0
M  V30 50 H -1.185746 0.231447 -4.591441 0
M  V30 51 H 0.293342 -0.530600 -3.934576 0
M  V30 52 H -0.636775 -0.846656 -2.028880 0
M  V30 53 H -4.161665 0.346256 -0.517143 0
M  V30 54 H -1.115797 -3.249420 -2.131742 0
M  V30 55 H 0.461433 -5.417850 -1.146664 0
M  V30 56 H 1.153465 -6.607870 0.811705 0
M  V30 57 H 0.308335 -5.939279 3.029581 0
M  V30 58 H -1.225479 -4.082364 3.173872 0
M  V30 59 H -4.360464 -0.262040 4.357542 0
M  V30 60 H 1.276418 0.120381 -1.951792 0
M  V30 END ATOM
M  V30 BEGIN BOND
M  V30 1 2 1 2 CFG=2
M  V30 2 1 2 3
M  V30 3 1 2 4
M  V30 4 1 4 5
M  V30 5 1 5 6
M  V30 6 1 6 7
M  V30 7 1 7 8
M  V30 8 2 8 9
M  V30 9 1 8 10
M  V30 10 2 10 11
M  V30 11 1 11 12
M  V30 12 2 12 13
M  V30 13 1 13 14
M  V30 14 1 14 15
M  V30 15 1 15 16
M  V30 16 1 16 17
M  V30 17 2 17 18
M  V30 18 1 17 19
M  V30 19 2 19 20
M  V30 20 1 20 21
M  V30 21 2 21 22
M  V30 22 1 22 23
M  V30 23 2 23 24
M  V30 24 1 24 25
M  V30 25 1 25 26
M  V30 26 2 26 27
M  V30 27 1 27 28
M  V30 28 2 28 29
M  V30 29 1 29 30
M  V30 30 2 30 31
M  V30 31 1 22 32
M  V30 32 2 32 33
M  V30 33 1 32 34
M  V30 34 1 34 35
M  V30 35 2 35 36
M  V30 36 2 14 37
M  V30 37 1 37 10
M  V30 38 1 24 19
M  V30 39 1 31 26
M  V30 40 1 35 21
M  V30 41 1 31 23
M  V30 42 1 1 38
M  V30 43 1 3 39
M  V30 44 1 3 40
M  V30 45 1 4 41
M  V30 46 1 5 42
M  V30 47 1 5 43
M  V30 48 1 6 44
M  V30 49 1 6 45
M  V30 50 1 7 46
M  V30 51 1 11 47
M  V30 52 1 12 48
M  V30 53 1 13 49
M  V30 54 1 15 50
M  V30 55 1 15 51
M  V30 56 1 16 52
M  V30 57 1 20 53
M  V30 58 1 25 54
M  V30 59 1 27 55
M  V30 60 1 28 56
M  V30 61 1 29 57
M  V30 62 1 30 58
M  V30 63 1 34 59
M  V30 64 1 37 60
M  V30 END BOND
M  V30 END CTAB
M  END
>  <Dataset>  (169) 
ChEMBL_Kinases

>  <Ligand_Instance>  (169) 
nan

>  <PDB_ID>  (169) 
nan

>  <Standardized_SMILES>  (169) 
N=C(N)NCCNC(=O)c1cccc(CNC(=O)c2cc3c(c4c2[nH]c2ccccc24)C(=O)NC3=O)c1

>  <Name>  (169) 
nan

>  <Pocket>  (169) 
nan

>  <ATP_Site>  (169) 
nan

>  <Peripheral>  (169) 
nan

>  <Num_H_Atoms_ProtBoundConf>  (169) 
nan

>  <Num_Resolved_Atoms>  (169) 
nan

>  <Num_Not_Resolved_Atoms>  (169) 
nan

$$$$
CHEMBL1276446
     RDKit          3D

  0  0  0  0  0  0  0  0  0  0999 V3000
M  V30 BEGIN CTAB
M  V30 COUNTS 46 50 0 0 0
M  V30 BEGIN ATOM
M  V30 1 O 2.031696 -1.208848 -0.593454 0
M  V30 2 C 2.455738 -0.024094 -0.615216 0
M  V30 3 N 2.669610 0.835143 -1.729052 0
M  V30 4 C 3.159413 2.094571 -1.294329 0
M  V30 5 C 3.550389 3.311390 -1.838629 0
M  V30 6 C 3.998908 4.390271 -1.126686 0
M  V30 7 C 4.091330 4.320909 0.249463 0
M  V30 8 N 4.497728 5.255964 1.074041 0
M  V30 9 C 4.585778 5.224809 2.238201 0
M  V30 10 S 3.965946 3.428409 2.541654 0
M  V30 11 C 3.719532 3.154892 0.804450 0
M  V30 12 C 3.251644 2.023114 0.088394 0
M  V30 13 C 2.826706 0.723544 0.583312 0
M  V30 14 C 2.812548 0.383098 1.851989 0
M  V30 15 N 2.373388 -0.921356 2.200451 0
M  V30 16 C 0.997089 -1.181401 2.324442 0
M  V30 17 C 0.051706 -0.214538 2.120116 0
M  V30 18 C -1.310895 -0.518124 2.254334 0
M  V30 19 C -1.739661 -1.807899 2.598242 0
M  V30 20 S -3.464838 -1.870227 2.696570 0
M  V30 21 O -4.042582 -0.667565 3.352130 0
M  V30 22 O -3.799988 -3.104568 3.521666 0
M  V30 23 N -4.205869 -2.121845 1.164496 0
M  V30 24 C -4.150264 -3.168776 0.210900 0
M  V30 25 C -3.355059 -4.251721 0.526891 0
M  V30 26 C -3.192791 -5.362561 -0.291550 0
M  V30 27 C -3.867218 -5.394560 -1.502299 0
M  V30 28 C -4.637775 -4.280464 -1.744014 0
M  V30 29 N -4.817756 -3.194834 -0.981673 0
M  V30 30 C -0.775377 -2.762913 2.799077 0
M  V30 31 C 0.561474 -2.451003 2.663702 0
M  V30 32 H 2.505887 0.614235 -2.717670 0
M  V30 33 H 3.462542 3.327266 -2.935581 0
M  V30 34 H 4.254525 5.247027 -1.740570 0
M  V30 35 H 4.912160 5.957405 2.977657 0
M  V30 36 H 3.113927 1.028540 2.665680 0
M  V30 37 H 3.076482 -1.675436 2.361410 0
M  V30 38 H 0.431340 0.753357 1.859603 0
M  V30 39 H -1.924534 0.364994 2.057174 0
M  V30 40 H -4.849670 -1.353471 0.820892 0
M  V30 41 H -2.785763 -4.343235 1.438542 0
M  V30 42 H -2.568224 -6.211823 -0.042314 0
M  V30 43 H -3.826859 -6.194421 -2.225286 0
M  V30 44 H -5.204333 -4.226894 -2.681181 0
M  V30 45 H -1.192267 -3.706260 3.060952 0
M  V30 46 H 1.242531 -3.266566 2.840974 0
M  V30 END ATOM
M  V30 BEGIN BOND
M  V30 1 2 1 2
M  V30 2 1 2 3
M  V30 3 1 3 4
M  V30 4 2 4 5
M  V30 5 1 5 6
M  V30 6 2 6 7
M  V30 7 1 7 8
M  V30 8 2 8 9
M  V30 9 1 9 10
M  V30 10 1 10 11
M  V30 11 2 11 12
M  V30 12 1 12 13
M  V30 13 2 13 14
M  V30 14 1 14 15
M  V30 15 1 15 16
M  V30 16 2 16 17
M  V30 17 1 17 18
M  V30 18 2 18 19
M  V30 19 1 19 20
M  V30 20 2 20 21
M  V30 21 2 20 22
M  V30 22 1 20 23
M  V30 23 1 23 24
M  V30 24 2 24 25
M  V30 25 1 25 26
M  V30 26 2 26 27
M  V30 27 1 27 28
M  V30 28 2 28 29
M  V30 29 1 19 30
M  V30 30 2 30 31
M  V30 31 1 13 2
M  V30 32 1 31 16
M  V30 33 1 12 4
M  V30 34 1 29 24
M  V30 35 1 11 7
M  V30 36 1 3 32
M  V30 37 1 5 33
M  V30 38 1 6 34
M  V30 39 1 9 35
M  V30 40 1 14 36
M  V30 41 1 15 37
M  V30 42 1 17 38
M  V30 43 1 18 39
M  V30 44 1 23 40
M  V30 45 1 25 41
M  V30 46 1 26 42
M  V30 47 1 27 43
M  V30 48 1 28 44
M  V30 49 1 30 45
M  V30 50 1 31 46
M  V30 END BOND
M  V30 END CTAB
M  END
>  <Dataset>  (170) 
ChEMBL_Kinases

>  <Ligand_Instance>  (170) 
nan

>  <PDB_ID>  (170) 
nan

>  <Standardized_SMILES>  (170) 
O=C1Nc2ccc3ncsc3c2/C1=C/Nc1ccc(S(=O)(=O)Nc2ccccn2)cc1

>  <Name>  (170) 
nan

>  <Pocket>  (170) 
nan

>  <ATP_Site>  (170) 
nan

>  <Peripheral>  (170) 
nan

>  <Num_H_Atoms_ProtBoundConf>  (170) 
nan

>  <Num_Resolved_Atoms>  (170) 
nan

>  <Num_Not_Resolved_Atoms>  (170) 
nan

$$$$
CHEMBL1276317
     RDKit          3D

  0  0  0  0  0  0  0  0  0  0999 V3000
M  V30 BEGIN CTAB
M  V30 COUNTS 43 46 0 0 0
M  V30 BEGIN ATOM
M  V30 1 O -2.811668 2.963422 -1.112078 0
M  V30 2 C -2.253803 1.908063 -1.488745 0
M  V30 3 N -2.600256 1.356875 -2.789412 0
M  V30 4 C -1.788516 0.167501 -2.898705 0
M  V30 5 C -1.805614 -0.659831 -3.987413 0
M  V30 6 C -1.002389 -1.775464 -4.027210 0
M  V30 7 C -0.194187 -2.005258 -2.923918 0
M  V30 8 C -0.220983 -1.125971 -1.844082 0
M  V30 9 C -1.001345 -0.036648 -1.798090 0
M  V30 10 C -1.266383 1.030653 -0.899015 0
M  V30 11 C -0.715519 1.223921 0.267438 0
M  V30 12 N -0.996013 2.310984 1.119265 0
M  V30 13 C -0.230875 2.250294 2.322635 0
M  V30 14 C -0.224472 3.134505 3.416530 0
M  V30 15 C 0.629868 2.793513 4.434300 0
M  V30 16 C 1.436498 1.667086 4.408574 0
M  V30 17 C 1.358035 0.864382 3.294831 0
M  V30 18 C 0.535886 1.107848 2.214847 0
M  V30 19 C 0.266058 0.441669 0.960530 0
M  V30 20 N 0.856546 -0.606701 0.694220 0
M  V30 21 O 1.780573 -1.355660 1.334684 0
M  V30 22 C 1.506011 -2.514852 2.099086 0
M  V30 23 C 2.679964 -3.458324 2.129957 0
M  V30 24 O 3.827570 -2.841120 2.677571 0
M  V30 25 C 2.410276 -4.652550 3.021870 0
M  V30 26 O 2.196089 -4.186567 4.333222 0
M  V30 27 H -3.285452 1.758867 -3.470823 0
M  V30 28 H -2.418500 -0.513706 -4.866874 0
M  V30 29 H -0.984443 -2.452326 -4.865748 0
M  V30 30 H 0.433726 -2.912208 -2.997701 0
M  V30 31 H 0.446491 -1.463576 -1.127338 0
M  V30 32 H -1.673022 3.070204 0.912163 0
M  V30 33 H -0.858620 4.005528 3.421584 0
M  V30 34 H 0.631078 3.475942 5.269860 0
M  V30 35 H 2.082710 1.468665 5.256232 0
M  V30 36 H 2.019387 0.020285 3.351624 0
M  V30 37 H 0.656870 -3.046737 1.644592 0
M  V30 38 H 1.220588 -2.190250 3.140473 0
M  V30 39 H 2.890204 -3.769114 1.087527 0
M  V30 40 H 4.542100 -3.499709 2.816603 0
M  V30 41 H 3.303436 -5.300743 3.063708 0
M  V30 42 H 1.565621 -5.289905 2.673885 0
M  V30 43 H 3.031447 -3.742370 4.618132 0
M  V30 END ATOM
M  V30 BEGIN BOND
M  V30 1 2 1 2
M  V30 2 1 2 3
M  V30 3 1 3 4
M  V30 4 2 4 5
M  V30 5 1 5 6
M  V30 6 2 6 7
M  V30 7 1 7 8
M  V30 8 2 8 9
M  V30 9 1 9 10
M  V30 10 2 10 11
M  V30 11 1 11 12
M  V30 12 1 12 13
M  V30 13 2 13 14
M  V30 14 1 14 15
M  V30 15 2 15 16
M  V30 16 1 16 17
M  V30 17 2 17 18
M  V30 18 1 18 19
M  V30 19 2 19 20
M  V30 20 1 20 21
M  V30 21 1 21 22
M  V30 22 1 22 23
M  V30 23 1 23 24
M  V30 24 1 23 25
M  V30 25 1 25 26
M  V30 26 1 10 2
M  V30 27 1 19 11
M  V30 28 1 9 4
M  V30 29 1 18 13
M  V30 30 1 3 27
M  V30 31 1 5 28
M  V30 32 1 6 29
M  V30 33 1 7 30
M  V30 34 1 8 31
M  V30 35 1 12 32
M  V30 36 1 14 33
M  V30 37 1 15 34
M  V30 38 1 16 35
M  V30 39 1 17 36
M  V30 40 1 22 37
M  V30 41 1 22 38
M  V30 42 1 23 39
M  V30 43 1 24 40
M  V30 44 1 25 41
M  V30 45 1 25 42
M  V30 46 1 26 43
M  V30 END BOND
M  V30 END CTAB
M  END
>  <Dataset>  (171) 
ChEMBL_Kinases

>  <Ligand_Instance>  (171) 
nan

>  <PDB_ID>  (171) 
nan

>  <Standardized_SMILES>  (171) 
O=C1Nc2ccccc2/C1=C1/Nc2ccccc2/C1=N\OCC(O)CO

>  <Name>  (171) 
nan

>  <Pocket>  (171) 
nan

>  <ATP_Site>  (171) 
nan

>  <Peripheral>  (171) 
nan

>  <Num_H_Atoms_ProtBoundConf>  (171) 
nan

>  <Num_Resolved_Atoms>  (171) 
nan

>  <Num_Not_Resolved_Atoms>  (171) 
nan

$$$$
CHEMBL1272291
     RDKit          3D

  0  0  0  0  0  0  0  0  0  0999 V3000
M  V30 BEGIN CTAB
M  V30 COUNTS 74 77 0 0 0
M  V30 BEGIN ATOM
M  V30 1 C 5.959650 1.661928 6.202862 0
M  V30 2 C 4.641050 2.377576 6.278290 0
M  V30 3 N 3.787356 2.135208 5.128941 0
M  V30 4 C 2.863571 1.009336 5.174367 0
M  V30 5 C 3.969599 3.074614 4.049290 0
M  V30 6 O 4.834649 3.934855 4.291164 0
M  V30 7 C 3.087266 2.784256 2.928607 0
M  V30 8 C 3.509858 2.181981 1.735037 0
M  V30 9 C 2.578791 1.959431 0.754368 0
M  V30 10 C 1.264164 2.301427 0.901085 0
M  V30 11 C 0.860515 2.892663 2.074607 0
M  V30 12 C 1.763053 3.134834 3.085954 0
M  V30 13 N -0.529893 3.191311 2.032456 0
M  V30 14 C -1.013707 2.763014 0.771500 0
M  V30 15 O -2.178260 2.852300 0.356978 0
M  V30 16 C 0.113842 2.196902 0.050096 0
M  V30 17 C 0.172024 1.620060 -1.123856 0
M  V30 18 N -1.100669 1.635608 -1.815210 0
M  V30 19 C -1.598022 0.327912 -2.122032 0
M  V30 20 C -2.304916 -0.314664 -1.125689 0
M  V30 21 C -2.820191 -1.573749 -1.336705 0
M  V30 22 C -2.680226 -2.278996 -2.520081 0
M  V30 23 N -3.223620 -3.573149 -2.708984 0
M  V30 24 C -3.980597 -4.108886 -1.609019 0
M  V30 25 C -3.194414 -4.858830 -0.587535 0
M  V30 26 N -4.103264 -5.313956 0.442496 0
M  V30 27 C -4.964766 -6.314296 -0.100511 0
M  V30 28 C -4.809751 -4.248440 1.112580 0
M  V30 29 C -3.064430 -4.368569 -3.888941 0
M  V30 30 C -3.696328 -5.700091 -4.002249 0
M  V30 31 O -2.417352 -4.081964 -4.928397 0
M  V30 32 C -1.965730 -1.579606 -3.467155 0
M  V30 33 C -1.424656 -0.320099 -3.320586 0
M  V30 34 C 1.189724 0.901666 -1.813588 0
M  V30 35 C 1.458852 1.505722 -3.052695 0
M  V30 36 C 2.370981 0.986079 -3.977891 0
M  V30 37 C 3.035628 -0.165960 -3.664847 0
M  V30 38 C 2.808490 -0.798402 -2.462248 0
M  V30 39 C 1.909391 -0.279489 -1.559070 0
M  V30 40 H 6.768949 2.365268 5.859136 0
M  V30 41 H 6.248976 1.349257 7.220563 0
M  V30 42 H 5.927622 0.761304 5.570125 0
M  V30 43 H 4.098831 1.999028 7.177720 0
M  V30 44 H 4.779257 3.471215 6.455662 0
M  V30 45 H 3.310882 0.153072 5.678280 0
M  V30 46 H 1.954896 1.384469 5.670619 0
M  V30 47 H 2.686340 0.700664 4.124423 0
M  V30 48 H 4.569027 1.966441 1.762073 0
M  V30 49 H 3.076979 1.531715 -0.065583 0
M  V30 50 H 1.422500 3.599992 4.000158 0
M  V30 51 H -1.110758 3.643629 2.778379 0
M  V30 52 H -1.573466 2.543965 -2.046621 0
M  V30 53 H -2.451753 0.180348 -0.174683 0
M  V30 54 H -3.348808 -1.987783 -0.499529 0
M  V30 55 H -4.633611 -3.320494 -1.206817 0
M  V30 56 H -4.708552 -4.869756 -2.037636 0
M  V30 57 H -2.351690 -4.264746 -0.160894 0
M  V30 58 H -2.716759 -5.775110 -0.989781 0
M  V30 59 H -5.396468 -6.977810 0.682086 0
M  V30 60 H -5.819110 -5.787872 -0.610974 0
M  V30 61 H -4.449274 -6.893155 -0.892913 0
M  V30 62 H -5.260740 -4.633187 2.049382 0
M  V30 63 H -5.663064 -3.983575 0.450044 0
M  V30 64 H -4.210937 -3.352883 1.264841 0
M  V30 65 H -3.702207 -6.288995 -3.066953 0
M  V30 66 H -3.141357 -6.350916 -4.733498 0
M  V30 67 H -4.770244 -5.606366 -4.318505 0
M  V30 68 H -1.770071 -1.988292 -4.443249 0
M  V30 69 H -0.875505 0.186615 -4.095425 0
M  V30 70 H 1.004845 2.430938 -3.446012 0
M  V30 71 H 2.591513 1.430620 -4.929079 0
M  V30 72 H 3.747681 -0.622534 -4.320431 0
M  V30 73 H 3.277610 -1.712640 -2.114742 0
M  V30 74 H 1.617020 -0.647169 -0.582091 0
M  V30 END ATOM
M  V30 BEGIN BOND
M  V30 1 1 1 2
M  V30 2 1 2 3
M  V30 3 1 3 4
M  V30 4 1 3 5
M  V30 5 2 5 6
M  V30 6 1 5 7
M  V30 7 2 7 8
M  V30 8 1 8 9
M  V30 9 2 9 10
M  V30 10 1 10 11
M  V30 11 2 11 12
M  V30 12 1 11 13
M  V30 13 1 13 14
M  V30 14 2 14 15
M  V30 15 1 14 16
M  V30 16 2 16 17
M  V30 17 1 17 18
M  V30 18 1 18 19
M  V30 19 2 19 20
M  V30 20 1 20 21
M  V30 21 2 21 22
M  V30 22 1 22 23
M  V30 23 1 23 24
M  V30 24 1 24 25
M  V30 25 1 25 26
M  V30 26 1 26 27
M  V30 27 1 26 28
M  V30 28 1 23 29
M  V30 29 1 29 30
M  V30 30 2 29 31
M  V30 31 1 22 32
M  V30 32 2 32 33
M  V30 33 1 17 34
M  V30 34 2 34 35
M  V30 35 1 35 36
M  V30 36 2 36 37
M  V30 37 1 37 38
M  V30 38 2 38 39
M  V30 39 1 12 7
M  V30 40 1 33 19
M  V30 41 1 39 34
M  V30 42 1 16 10
M  V30 43 1 1 40
M  V30 44 1 1 41
M  V30 45 1 1 42
M  V30 46 1 2 43
M  V30 47 1 2 44
M  V30 48 1 4 45
M  V30 49 1 4 46
M  V30 50 1 4 47
M  V30 51 1 8 48
M  V30 52 1 9 49
M  V30 53 1 12 50
M  V30 54 1 13 51
M  V30 55 1 18 52
M  V30 56 1 20 53
M  V30 57 1 21 54
M  V30 58 1 24 55
M  V30 59 1 24 56
M  V30 60 1 25 57
M  V30 61 1 25 58
M  V30 62 1 27 59
M  V30 63 1 27 60
M  V30 64 1 27 61
M  V30 65 1 28 62
M  V30 66 1 28 63
M  V30 67 1 28 64
M  V30 68 1 30 65
M  V30 69 1 30 66
M  V30 70 1 30 67
M  V30 71 1 32 68
M  V30 72 1 33 69
M  V30 73 1 35 70
M  V30 74 1 36 71
M  V30 75 1 37 72
M  V30 76 1 38 73
M  V30 77 1 39 74
M  V30 END BOND
M  V30 END CTAB
M  END
>  <Dataset>  (172) 
ChEMBL_Kinases

>  <Ligand_Instance>  (172) 
nan

>  <PDB_ID>  (172) 
nan

>  <Standardized_SMILES>  (172) 
CCN(C)C(=O)c1ccc2c(c1)NC(=O)/C2=C(\Nc1ccc(N(CCN(C)C)C(C)=O)cc1)c1ccccc1

>  <Name>  (172) 
nan

>  <Pocket>  (172) 
nan

>  <ATP_Site>  (172) 
nan

>  <Peripheral>  (172) 
nan

>  <Num_H_Atoms_ProtBoundConf>  (172) 
nan

>  <Num_Resolved_Atoms>  (172) 
nan

>  <Num_Not_Resolved_Atoms>  (172) 
nan

$$$$
CHEMBL1272290
     RDKit          3D

  0  0  0  0  0  0  0  0  0  0999 V3000
M  V30 BEGIN CTAB
M  V30 COUNTS 68 71 0 0 0
M  V30 BEGIN ATOM
M  V30 1 C 5.195068 1.759826 7.787825 0
M  V30 2 C 6.026141 2.097054 6.563623 0
M  V30 3 N 5.227386 1.764325 5.395219 0
M  V30 4 C 3.973528 2.396412 5.179264 0
M  V30 5 O 3.701894 3.229360 6.108611 0
M  V30 6 C 3.100389 2.135428 4.045463 0
M  V30 7 C 3.385766 1.231532 3.031810 0
M  V30 8 C 2.460171 1.094745 2.021712 0
M  V30 9 C 1.295283 1.808007 1.987835 0
M  V30 10 C 1.026332 2.693129 2.992637 0
M  V30 11 C 1.924852 2.860884 4.022855 0
M  V30 12 N -0.237030 3.308773 2.777487 0
M  V30 13 C -0.798780 2.791783 1.577557 0
M  V30 14 O -1.885505 3.034611 0.993758 0
M  V30 15 C 0.181271 1.840756 1.080497 0
M  V30 16 C 0.179430 1.139691 -0.024252 0
M  V30 17 N -1.016239 1.271303 -0.821305 0
M  V30 18 C -1.935187 0.336187 -1.423797 0
M  V30 19 C -1.660612 -0.086067 -2.730413 0
M  V30 20 C -2.542446 -0.985895 -3.310183 0
M  V30 21 C -3.650219 -1.444294 -2.615662 0
M  V30 22 N -4.582192 -2.378637 -3.191198 0
M  V30 23 C -5.774951 -2.031851 -3.960189 0
M  V30 24 C -4.371492 -3.778713 -3.026940 0
M  V30 25 O -5.129402 -4.697484 -3.491050 0
M  V30 26 C -3.207268 -4.275650 -2.273209 0
M  V30 27 N -3.204947 -5.718995 -2.239771 0
M  V30 28 C -2.082502 -6.247364 -1.516533 0
M  V30 29 C -4.423290 -6.276435 -1.741116 0
M  V30 30 C -3.905558 -1.009390 -1.311131 0
M  V30 31 C -3.030892 -0.103173 -0.707152 0
M  V30 32 C 1.138505 0.341071 -0.700095 0
M  V30 33 C 2.421626 0.597547 -1.212300 0
M  V30 34 C 3.212335 -0.336712 -1.837643 0
M  V30 35 C 2.730494 -1.620396 -1.981626 0
M  V30 36 C 1.480103 -1.961952 -1.508219 0
M  V30 37 C 0.716530 -0.969504 -0.879095 0
M  V30 38 H 4.988870 2.712206 8.312054 0
M  V30 39 H 5.719875 1.043273 8.466575 0
M  V30 40 H 4.225119 1.284673 7.512006 0
M  V30 41 H 6.320400 3.171324 6.550803 0
M  V30 42 H 6.931356 1.482760 6.605418 0
M  V30 43 H 5.573743 1.065780 4.720044 0
M  V30 44 H 4.332490 0.724466 3.158940 0
M  V30 45 H 2.822876 0.347735 1.354023 0
M  V30 46 H 1.682645 3.571062 4.804491 0
M  V30 47 H -0.741480 4.027901 3.353320 0
M  V30 48 H -1.450969 2.151386 -1.120670 0
M  V30 49 H -0.795483 0.267929 -3.282179 0
M  V30 50 H -2.380575 -1.350642 -4.325666 0
M  V30 51 H -6.651893 -2.122773 -3.296352 0
M  V30 52 H -5.864729 -2.677055 -4.864302 0
M  V30 53 H -5.657296 -0.996763 -4.363914 0
M  V30 54 H -2.247552 -3.994458 -2.798146 0
M  V30 55 H -3.162805 -3.907055 -1.225924 0
M  V30 56 H -1.721518 -7.214158 -1.913669 0
M  V30 57 H -2.350768 -6.458511 -0.447816 0
M  V30 58 H -1.209409 -5.543074 -1.560495 0
M  V30 59 H -4.962883 -6.848850 -2.541242 0
M  V30 60 H -5.088851 -5.527854 -1.267974 0
M  V30 61 H -4.197641 -7.038254 -0.967181 0
M  V30 62 H -4.783796 -1.383871 -0.785288 0
M  V30 63 H -3.246891 0.212277 0.285416 0
M  V30 64 H 2.678376 1.654215 -1.030304 0
M  V30 65 H 4.174936 0.019083 -2.176026 0
M  V30 66 H 3.389555 -2.317911 -2.479595 0
M  V30 67 H 1.155043 -2.978418 -1.647883 0
M  V30 68 H -0.236560 -1.367198 -0.556970 0
M  V30 END ATOM
M  V30 BEGIN BOND
M  V30 1 1 1 2
M  V30 2 1 2 3
M  V30 3 1 3 4
M  V30 4 2 4 5
M  V30 5 1 4 6
M  V30 6 2 6 7
M  V30 7 1 7 8
M  V30 8 2 8 9
M  V30 9 1 9 10
M  V30 10 2 10 11
M  V30 11 1 10 12
M  V30 12 1 12 13
M  V30 13 2 13 14
M  V30 14 1 13 15
M  V30 15 2 15 16
M  V30 16 1 16 17
M  V30 17 1 17 18
M  V30 18 2 18 19
M  V30 19 1 19 20
M  V30 20 2 20 21
M  V30 21 1 21 22
M  V30 22 1 22 23
M  V30 23 1 22 24
M  V30 24 2 24 25
M  V30 25 1 24 26
M  V30 26 1 26 27
M  V30 27 1 27 28
M  V30 28 1 27 29
M  V30 29 1 21 30
M  V30 30 2 30 31
M  V30 31 1 16 32
M  V30 32 2 32 33
M  V30 33 1 33 34
M  V30 34 2 34 35
M  V30 35 1 35 36
M  V30 36 2 36 37
M  V30 37 1 11 6
M  V30 38 1 31 18
M  V30 39 1 37 32
M  V30 40 1 15 9
M  V30 41 1 1 38
M  V30 42 1 1 39
M  V30 43 1 1 40
M  V30 44 1 2 41
M  V30 45 1 2 42
M  V30 46 1 3 43
M  V30 47 1 7 44
M  V30 48 1 8 45
M  V30 49 1 11 46
M  V30 50 1 12 47
M  V30 51 1 17 48
M  V30 52 1 19 49
M  V30 53 1 20 50
M  V30 54 1 23 51
M  V30 55 1 23 52
M  V30 56 1 23 53
M  V30 57 1 26 54
M  V30 58 1 26 55
M  V30 59 1 28 56
M  V30 60 1 28 57
M  V30 61 1 28 58
M  V30 62 1 29 59
M  V30 63 1 29 60
M  V30 64 1 29 61
M  V30 65 1 30 62
M  V30 66 1 31 63
M  V30 67 1 33 64
M  V30 68 1 34 65
M  V30 69 1 35 66
M  V30 70 1 36 67
M  V30 71 1 37 68
M  V30 END BOND
M  V30 END CTAB
M  END
>  <Dataset>  (173) 
ChEMBL_Kinases

>  <Ligand_Instance>  (173) 
nan

>  <PDB_ID>  (173) 
nan

>  <Standardized_SMILES>  (173) 
CCNC(=O)c1ccc2c(c1)NC(=O)/C2=C(\Nc1ccc(N(C)C(=O)CN(C)C)cc1)c1ccccc1

>  <Name>  (173) 
nan

>  <Pocket>  (173) 
nan

>  <ATP_Site>  (173) 
nan

>  <Peripheral>  (173) 
nan

>  <Num_H_Atoms_ProtBoundConf>  (173) 
nan

>  <Num_Resolved_Atoms>  (173) 
nan

>  <Num_Not_Resolved_Atoms>  (173) 
nan

$$$$
CHEMBL1272289
     RDKit          3D

  0  0  0  0  0  0  0  0  0  0999 V3000
M  V30 BEGIN CTAB
M  V30 COUNTS 61 64 0 0 0
M  V30 BEGIN ATOM
M  V30 1 C 7.858145 -0.461966 4.670108 0
M  V30 2 C 7.635680 -1.563429 3.640835 0
M  V30 3 N 6.257420 -1.423377 3.177901 0
M  V30 4 C 5.798854 -0.244060 2.559355 0
M  V30 5 O 6.729491 0.626274 2.476144 0
M  V30 6 C 4.446530 -0.029254 2.072489 0
M  V30 7 C 3.437240 -0.996640 2.174460 0
M  V30 8 C 2.217378 -0.622173 1.657304 0
M  V30 9 C 1.932063 0.573579 1.074309 0
M  V30 10 C 2.941244 1.505192 0.989055 0
M  V30 11 C 4.197571 1.211429 1.484137 0
M  V30 12 N 2.480630 2.709870 0.371259 0
M  V30 13 C 1.109143 2.508225 0.055347 0
M  V30 14 O 0.383182 3.345550 -0.490963 0
M  V30 15 C 0.761375 1.178365 0.489026 0
M  V30 16 C -0.351043 0.503089 0.374348 0
M  V30 17 N -1.463214 1.209440 -0.215845 0
M  V30 18 C -2.671908 0.662413 -0.747275 0
M  V30 19 C -3.905696 0.508188 -0.158273 0
M  V30 20 C -4.939604 -0.065502 -0.860184 0
M  V30 21 C -4.829996 -0.514409 -2.157422 0
M  V30 22 C -5.952849 -1.137585 -2.905393 0
M  V30 23 N -5.895620 -2.566965 -2.654368 0
M  V30 24 C -6.039690 -2.884920 -1.243153 0
M  V30 25 C -4.687044 -3.158811 -3.167662 0
M  V30 26 C -3.573832 -0.347632 -2.732268 0
M  V30 27 C -2.508668 0.223682 -2.061780 0
M  V30 28 C -0.710753 -0.876691 0.613323 0
M  V30 29 C -1.726663 -1.029515 1.529618 0
M  V30 30 C -2.300848 -2.252769 1.886835 0
M  V30 31 C -1.805574 -3.374883 1.270701 0
M  V30 32 C -0.791455 -3.290362 0.345815 0
M  V30 33 C -0.252019 -2.066131 0.021109 0
M  V30 34 H 8.444905 -0.804843 5.535199 0
M  V30 35 H 8.419800 0.402486 4.212988 0
M  V30 36 H 6.906103 -0.027671 5.039623 0
M  V30 37 H 7.787029 -2.514274 4.169166 0
M  V30 38 H 8.334053 -1.463995 2.795038 0
M  V30 39 H 5.599452 -2.225579 3.313817 0
M  V30 40 H 3.711069 -1.929460 2.642469 0
M  V30 41 H 1.535086 -1.429480 1.826755 0
M  V30 42 H 4.968991 1.942243 1.409557 0
M  V30 43 H 3.020926 3.585995 0.174335 0
M  V30 44 H -1.623936 2.210792 -0.372022 0
M  V30 45 H -3.943230 0.875401 0.854359 0
M  V30 46 H -5.878679 -0.156574 -0.342784 0
M  V30 47 H -6.924402 -0.712454 -2.631897 0
M  V30 48 H -5.754571 -1.005552 -3.994418 0
M  V30 49 H -5.994741 -3.994974 -1.148101 0
M  V30 50 H -6.960288 -2.461887 -0.825920 0
M  V30 51 H -5.154826 -2.502700 -0.726687 0
M  V30 52 H -4.762847 -4.279969 -3.192185 0
M  V30 53 H -4.493443 -2.799323 -4.199553 0
M  V30 54 H -3.803069 -2.933966 -2.510083 0
M  V30 55 H -3.450031 -0.689792 -3.751203 0
M  V30 56 H -1.572309 0.295100 -2.632628 0
M  V30 57 H -2.186083 -0.194777 2.075698 0
M  V30 58 H -3.097699 -2.347323 2.609383 0
M  V30 59 H -2.154835 -4.390765 1.452881 0
M  V30 60 H -0.335537 -4.118654 -0.191796 0
M  V30 61 H 0.555828 -1.846840 -0.695452 0
M  V30 END ATOM
M  V30 BEGIN BOND
M  V30 1 1 1 2
M  V30 2 1 2 3
M  V30 3 1 3 4
M  V30 4 2 4 5
M  V30 5 1 4 6
M  V30 6 2 6 7
M  V30 7 1 7 8
M  V30 8 2 8 9
M  V30 9 1 9 10
M  V30 10 2 10 11
M  V30 11 1 10 12
M  V30 12 1 12 13
M  V30 13 2 13 14
M  V30 14 1 13 15
M  V30 15 2 15 16
M  V30 16 1 16 17
M  V30 17 1 17 18
M  V30 18 2 18 19
M  V30 19 1 19 20
M  V30 20 2 20 21
M  V30 21 1 21 22
M  V30 22 1 22 23
M  V30 23 1 23 24
M  V30 24 1 23 25
M  V30 25 1 21 26
M  V30 26 2 26 27
M  V30 27 1 16 28
M  V30 28 2 28 29
M  V30 29 1 29 30
M  V30 30 2 30 31
M  V30 31 1 31 32
M  V30 32 2 32 33
M  V30 33 1 11 6
M  V30 34 1 27 18
M  V30 35 1 33 28
M  V30 36 1 15 9
M  V30 37 1 1 34
M  V30 38 1 1 35
M  V30 39 1 1 36
M  V30 40 1 2 37
M  V30 41 1 2 38
M  V30 42 1 3 39
M  V30 43 1 7 40
M  V30 44 1 8 41
M  V30 45 1 11 42
M  V30 46 1 12 43
M  V30 47 1 17 44
M  V30 48 1 19 45
M  V30 49 1 20 46
M  V30 50 1 22 47
M  V30 51 1 22 48
M  V30 52 1 24 49
M  V30 53 1 24 50
M  V30 54 1 24 51
M  V30 55 1 25 52
M  V30 56 1 25 53
M  V30 57 1 25 54
M  V30 58 1 26 55
M  V30 59 1 27 56
M  V30 60 1 29 57
M  V30 61 1 30 58
M  V30 62 1 31 59
M  V30 63 1 32 60
M  V30 64 1 33 61
M  V30 END BOND
M  V30 END CTAB
M  END
>  <Dataset>  (174) 
ChEMBL_Kinases

>  <Ligand_Instance>  (174) 
nan

>  <PDB_ID>  (174) 
nan

>  <Standardized_SMILES>  (174) 
CCNC(=O)c1ccc2c(c1)NC(=O)/C2=C(\Nc1ccc(CN(C)C)cc1)c1ccccc1

>  <Name>  (174) 
nan

>  <Pocket>  (174) 
nan

>  <ATP_Site>  (174) 
nan

>  <Peripheral>  (174) 
nan

>  <Num_H_Atoms_ProtBoundConf>  (174) 
nan

>  <Num_Resolved_Atoms>  (174) 
nan

>  <Num_Not_Resolved_Atoms>  (174) 
nan

$$$$
CHEMBL1272238
     RDKit          3D

  0  0  0  0  0  0  0  0  0  0999 V3000
M  V30 BEGIN CTAB
M  V30 COUNTS 71 74 0 0 0
M  V30 BEGIN ATOM
M  V30 1 C 7.343773 -1.408138 3.556964 0
M  V30 2 C 7.593542 -1.330508 2.059544 0
M  V30 3 N 6.316718 -1.045817 1.421082 0
M  V30 4 C 5.585977 0.110059 1.719185 0
M  V30 5 O 6.175092 0.836248 2.589605 0
M  V30 6 C 4.317740 0.509713 1.163278 0
M  V30 7 C 3.652022 -0.199259 0.189826 0
M  V30 8 C 2.421104 0.253280 -0.286762 0
M  V30 9 C 1.815351 1.394145 0.166654 0
M  V30 10 C 2.481603 2.101471 1.141197 0
M  V30 11 C 3.710903 1.655080 1.621141 0
M  V30 12 N 1.703812 3.216234 1.499341 0
M  V30 13 C 0.497127 3.215633 0.721542 0
M  V30 14 O -0.485835 3.997428 0.691295 0
M  V30 15 C 0.552874 2.038981 -0.151951 0
M  V30 16 C -0.281924 1.624185 -1.082598 0
M  V30 17 N -1.502925 2.377814 -1.258698 0
M  V30 18 C -2.501631 1.418680 -0.842754 0
M  V30 19 C -3.423819 0.931564 -1.771133 0
M  V30 20 C -4.367568 -0.003300 -1.407393 0
M  V30 21 C -4.425248 -0.480232 -0.121102 0
M  V30 22 N -5.250404 -1.409909 0.572408 0
M  V30 23 C -4.739821 -2.740502 0.315778 0
M  V30 24 C -3.687394 -3.133378 1.316674 0
M  V30 25 N -3.207454 -4.486421 1.045308 0
M  V30 26 C -2.483990 -4.467507 -0.236161 0
M  V30 27 C -2.226797 -4.870825 2.070202 0
M  V30 28 C -6.400122 -1.288579 1.409675 0
M  V30 29 C -6.994634 0.035808 1.731747 0
M  V30 30 O -6.950195 -2.327614 1.908427 0
M  V30 31 C -3.509315 -0.004540 0.830444 0
M  V30 32 C -2.544144 0.946709 0.473953 0
M  V30 33 C -0.068123 0.548637 -2.034765 0
M  V30 34 C 0.882427 1.030453 -2.961179 0
M  V30 35 C 1.297036 0.200240 -4.013415 0
M  V30 36 C 0.763054 -1.083157 -4.124844 0
M  V30 37 C -0.157958 -1.520612 -3.209024 0
M  V30 38 C -0.577839 -0.721401 -2.169254 0
M  V30 39 H 6.298873 -1.716626 3.703501 0
M  V30 40 H 7.493263 -0.424513 4.049636 0
M  V30 41 H 8.006664 -2.173334 4.018730 0
M  V30 42 H 7.917130 -2.366880 1.745440 0
M  V30 43 H 8.391895 -0.625315 1.803335 0
M  V30 44 H 5.914278 -1.713285 0.713941 0
M  V30 45 H 4.165219 -1.098618 -0.146704 0
M  V30 46 H 2.048496 -0.437837 -1.017904 0
M  V30 47 H 4.213295 2.220408 2.379558 0
M  V30 48 H 1.879204 3.973717 2.196319 0
M  V30 49 H -1.547855 3.353241 -1.602857 0
M  V30 50 H -3.447230 1.246715 -2.786929 0
M  V30 51 H -5.129439 -0.465991 -1.991219 0
M  V30 52 H -4.424428 -2.899662 -0.743260 0
M  V30 53 H -5.576175 -3.482112 0.450464 0
M  V30 54 H -2.837438 -2.417979 1.159967 0
M  V30 55 H -4.083909 -3.026327 2.334270 0
M  V30 56 H -1.704136 -5.261289 -0.220118 0
M  V30 57 H -2.062149 -3.468995 -0.441533 0
M  V30 58 H -3.193377 -4.774141 -1.034811 0
M  V30 59 H -1.197375 -4.883703 1.618580 0
M  V30 60 H -2.454523 -5.915144 2.380914 0
M  V30 61 H -2.295513 -4.183998 2.923204 0
M  V30 62 H -7.932969 -0.080574 2.318449 0
M  V30 63 H -7.181664 0.636830 0.808063 0
M  V30 64 H -6.272944 0.558486 2.389586 0
M  V30 65 H -3.369816 -0.223745 1.883197 0
M  V30 66 H -1.791859 1.389731 1.099016 0
M  V30 67 H 1.397237 1.978431 -3.033969 0
M  V30 68 H 2.009991 0.448542 -4.779427 0
M  V30 69 H 1.004118 -1.803275 -4.887119 0
M  V30 70 H -0.644505 -2.500721 -3.190460 0
M  V30 71 H -1.278099 -0.912131 -1.374498 0
M  V30 END ATOM
M  V30 BEGIN BOND
M  V30 1 1 1 2
M  V30 2 1 2 3
M  V30 3 1 3 4
M  V30 4 2 4 5
M  V30 5 1 4 6
M  V30 6 2 6 7
M  V30 7 1 7 8
M  V30 8 2 8 9
M  V30 9 1 9 10
M  V30 10 2 10 11
M  V30 11 1 10 12
M  V30 12 1 12 13
M  V30 13 2 13 14
M  V30 14 1 13 15
M  V30 15 2 15 16
M  V30 16 1 16 17
M  V30 17 1 17 18
M  V30 18 2 18 19
M  V30 19 1 19 20
M  V30 20 2 20 21
M  V30 21 1 21 22
M  V30 22 1 22 23
M  V30 23 1 23 24
M  V30 24 1 24 25
M  V30 25 1 25 26
M  V30 26 1 25 27
M  V30 27 1 22 28
M  V30 28 1 28 29
M  V30 29 2 28 30
M  V30 30 1 21 31
M  V30 31 2 31 32
M  V30 32 1 16 33
M  V30 33 2 33 34
M  V30 34 1 34 35
M  V30 35 2 35 36
M  V30 36 1 36 37
M  V30 37 2 37 38
M  V30 38 1 11 6
M  V30 39 1 32 18
M  V30 40 1 38 33
M  V30 41 1 15 9
M  V30 42 1 1 39
M  V30 43 1 1 40
M  V30 44 1 1 41
M  V30 45 1 2 42
M  V30 46 1 2 43
M  V30 47 1 3 44
M  V30 48 1 7 45
M  V30 49 1 8 46
M  V30 50 1 11 47
M  V30 51 1 12 48
M  V30 52 1 17 49
M  V30 53 1 19 50
M  V30 54 1 20 51
M  V30 55 1 23 52
M  V30 56 1 23 53
M  V30 57 1 24 54
M  V30 58 1 24 55
M  V30 59 1 26 56
M  V30 60 1 26 57
M  V30 61 1 26 58
M  V30 62 1 27 59
M  V30 63 1 27 60
M  V30 64 1 27 61
M  V30 65 1 29 62
M  V30 66 1 29 63
M  V30 67 1 29 64
M  V30 68 1 31 65
M  V30 69 1 32 66
M  V30 70 1 34 67
M  V30 71 1 35 68
M  V30 72 1 36 69
M  V30 73 1 37 70
M  V30 74 1 38 71
M  V30 END BOND
M  V30 END CTAB
M  END
>  <Dataset>  (175) 
ChEMBL_Kinases

>  <Ligand_Instance>  (175) 
nan

>  <PDB_ID>  (175) 
nan

>  <Standardized_SMILES>  (175) 
CCNC(=O)c1ccc2c(c1)NC(=O)/C2=C(\Nc1ccc(N(CCN(C)C)C(C)=O)cc1)c1ccccc1

>  <Name>  (175) 
nan

>  <Pocket>  (175) 
nan

>  <ATP_Site>  (175) 
nan

>  <Peripheral>  (175) 
nan

>  <Num_H_Atoms_ProtBoundConf>  (175) 
nan

>  <Num_Resolved_Atoms>  (175) 
nan

>  <Num_Not_Resolved_Atoms>  (175) 
nan

$$$$
CHEMBL1272216
     RDKit          3D

  0  0  0  0  0  0  0  0  0  0999 V3000
M  V30 BEGIN CTAB
M  V30 COUNTS 52 55 0 0 0
M  V30 BEGIN ATOM
M  V30 1 C 3.281684 -5.323459 0.716891 0
M  V30 2 S 3.673268 -4.212609 -0.679852 0
M  V30 3 C 3.336672 -2.534081 -0.127699 0
M  V30 4 N 4.222831 -1.719829 0.479380 0
M  V30 5 C 3.637620 -0.534097 0.757501 0
M  V30 6 C 4.103051 0.693513 1.391899 0
M  V30 7 C 3.402667 0.966333 2.568002 0
M  V30 8 C 3.671250 2.079696 3.341778 0
M  V30 9 C 4.669320 2.938439 2.920291 0
M  V30 10 F 4.972527 4.036213 3.635222 0
M  V30 11 C 5.366169 2.679566 1.762715 0
M  V30 12 C 5.097229 1.567912 0.991177 0
M  V30 13 C 2.341818 -0.665999 0.287065 0
M  V30 14 C 1.260310 0.314660 0.324842 0
M  V30 15 C 1.336280 1.531346 -0.321638 0
M  V30 16 C 0.305563 2.474599 -0.291635 0
M  V30 17 N -0.798095 2.151725 0.407861 0
M  V30 18 C -0.890101 0.969198 1.044930 0
M  V30 19 N -2.048085 0.593860 1.797070 0
M  V30 20 C -3.072492 -0.087101 1.101326 0
M  V30 21 O -3.377489 -0.533326 -0.055750 0
M  V30 22 C -4.387894 -0.615959 1.556940 0
M  V30 23 C -5.091243 -1.250739 0.422492 0
M  V30 24 C -4.867118 -2.612895 0.197930 0
M  V30 25 C -5.482351 -3.307034 -0.847437 0
M  V30 26 C -6.340280 -2.623174 -1.686100 0
M  V30 27 F -6.948436 -3.265179 -2.703649 0
M  V30 28 C -6.537493 -1.298958 -1.441388 0
M  V30 29 C -5.951201 -0.573872 -0.421279 0
M  V30 30 C 0.116847 0.007236 1.036097 0
M  V30 31 N 2.160817 -1.894481 -0.255447 0
M  V30 32 C 0.985964 -2.482867 -0.868334 0
M  V30 33 H 4.141583 -5.477271 1.375751 0
M  V30 34 H 2.849710 -6.276284 0.331653 0
M  V30 35 H 2.476070 -4.841690 1.310256 0
M  V30 36 H 2.595861 0.344344 2.981891 0
M  V30 37 H 3.134775 2.302895 4.256737 0
M  V30 38 H 6.155887 3.316578 1.386763 0
M  V30 39 H 5.568928 1.261700 0.076161 0
M  V30 40 H 2.220421 1.792733 -0.883705 0
M  V30 41 H 0.410857 3.431391 -0.821213 0
M  V30 42 H -2.356348 0.701534 2.806481 0
M  V30 43 H -4.229905 -1.387453 2.347578 0
M  V30 44 H -4.987822 0.192940 2.031684 0
M  V30 45 H -4.205663 -3.173907 0.832407 0
M  V30 46 H -5.310512 -4.353699 -1.021450 0
M  V30 47 H -7.220250 -0.793800 -2.122720 0
M  V30 48 H -6.121957 0.478832 -0.243979 0
M  V30 49 H 0.057765 -0.935491 1.536738 0
M  V30 50 H 0.102460 -1.824100 -0.789735 0
M  V30 51 H 1.161859 -2.609784 -1.964760 0
M  V30 52 H 0.771013 -3.514648 -0.484047 0
M  V30 END ATOM
M  V30 BEGIN BOND
M  V30 1 1 1 2
M  V30 2 1 2 3
M  V30 3 2 3 4
M  V30 4 1 4 5
M  V30 5 1 5 6
M  V30 6 2 6 7
M  V30 7 1 7 8
M  V30 8 2 8 9
M  V30 9 1 9 10
M  V30 10 1 9 11
M  V30 11 2 11 12
M  V30 12 2 5 13
M  V30 13 1 13 14
M  V30 14 2 14 15
M  V30 15 1 15 16
M  V30 16 2 16 17
M  V30 17 1 17 18
M  V30 18 1 18 19
M  V30 19 1 19 20
M  V30 20 2 20 21
M  V30 21 1 20 22
M  V30 22 1 22 23
M  V30 23 2 23 24
M  V30 24 1 24 25
M  V30 25 2 25 26
M  V30 26 1 26 27
M  V30 27 1 26 28
M  V30 28 2 28 29
M  V30 29 2 18 30
M  V30 30 1 13 31
M  V30 31 1 31 32
M  V30 32 1 31 3
M  V30 33 1 12 6
M  V30 34 1 30 14
M  V30 35 1 29 23
M  V30 36 1 1 33
M  V30 37 1 1 34
M  V30 38 1 1 35
M  V30 39 1 7 36
M  V30 40 1 8 37
M  V30 41 1 11 38
M  V30 42 1 12 39
M  V30 43 1 15 40
M  V30 44 1 16 41
M  V30 45 1 19 42
M  V30 46 1 22 43
M  V30 47 1 22 44
M  V30 48 1 24 45
M  V30 49 1 25 46
M  V30 50 1 28 47
M  V30 51 1 29 48
M  V30 52 1 30 49
M  V30 53 1 32 50
M  V30 54 1 32 51
M  V30 55 1 32 52
M  V30 END BOND
M  V30 END CTAB
M  END
>  <Dataset>  (176) 
ChEMBL_Kinases

>  <Ligand_Instance>  (176) 
nan

>  <PDB_ID>  (176) 
nan

>  <Standardized_SMILES>  (176) 
CSc1nc(-c2ccc(F)cc2)c(-c2ccnc(NC(=O)Cc3ccc(F)cc3)c2)n1C

>  <Name>  (176) 
nan

>  <Pocket>  (176) 
nan

>  <ATP_Site>  (176) 
nan

>  <Peripheral>  (176) 
nan

>  <Num_H_Atoms_ProtBoundConf>  (176) 
nan

>  <Num_Resolved_Atoms>  (176) 
nan

>  <Num_Not_Resolved_Atoms>  (176) 
nan

$$$$
CHEMBL1272182
     RDKit          3D

  0  0  0  0  0  0  0  0  0  0999 V3000
M  V30 BEGIN CTAB
M  V30 COUNTS 75 78 0 0 0
M  V30 BEGIN ATOM
M  V30 1 C 4.520732 0.933328 7.108772 0
M  V30 2 C 3.355761 1.895040 7.006246 0
M  V30 3 N 2.114720 1.113763 7.115161 0
M  V30 4 C 1.595188 0.913491 8.446853 0
M  V30 5 C 1.383753 0.541307 6.047471 0
M  V30 6 O 0.307591 -0.129775 6.230114 0
M  V30 7 C 1.480571 0.461093 4.578017 0
M  V30 8 C 1.891772 -0.692712 3.989243 0
M  V30 9 C 1.965570 -0.714433 2.586604 0
M  V30 10 C 1.612006 0.449452 1.942878 0
M  V30 11 C 1.200939 1.593887 2.578574 0
M  V30 12 C 1.109168 1.668415 3.979265 0
M  V30 13 N 0.876834 2.600376 1.598217 0
M  V30 14 C 1.089375 2.080240 0.276495 0
M  V30 15 O 0.910808 2.666162 -0.804465 0
M  V30 16 C 1.555905 0.723957 0.515785 0
M  V30 17 C 1.950102 -0.054250 -0.468452 0
M  V30 18 N 1.822892 0.338219 -1.846567 0
M  V30 19 C 0.650296 -0.062869 -2.568166 0
M  V30 20 C -0.340078 -0.769086 -1.918017 0
M  V30 21 C -1.450820 -1.161814 -2.666204 0
M  V30 22 C -1.571779 -0.859799 -4.023025 0
M  V30 23 N -2.806176 -1.418775 -4.440021 0
M  V30 24 C -4.223911 -1.068122 -4.535630 0
M  V30 25 C -4.927692 -1.381769 -3.222011 0
M  V30 26 N -6.345350 -1.082257 -3.302822 0
M  V30 27 C -7.085007 -1.963500 -4.158185 0
M  V30 28 C -6.929621 -0.888226 -2.002141 0
M  V30 29 S -2.386873 -2.996574 -4.948674 0
M  V30 30 C -1.694615 -3.967714 -3.627644 0
M  V30 31 O -3.591719 -3.730273 -5.485830 0
M  V30 32 O -1.428821 -2.895772 -6.103987 0
M  V30 33 C -0.572576 -0.153903 -4.649261 0
M  V30 34 C 0.525602 0.235539 -3.914263 0
M  V30 35 C 2.682946 -1.296815 -0.293201 0
M  V30 36 C 2.521293 -2.637300 -0.578560 0
M  V30 37 C 3.512136 -3.540035 -0.336375 0
M  V30 38 C 4.727397 -3.208261 0.200260 0
M  V30 39 C 4.924828 -1.878529 0.499735 0
M  V30 40 C 3.938544 -0.927859 0.267348 0
M  V30 41 H 4.638283 0.383937 6.155932 0
M  V30 42 H 4.356780 0.220315 7.930219 0
M  V30 43 H 5.467756 1.479111 7.333716 0
M  V30 44 H 3.409949 2.642965 7.818044 0
M  V30 45 H 3.345083 2.406067 6.032094 0
M  V30 46 H 1.530742 1.860226 9.021926 0
M  V30 47 H 0.654298 0.332646 8.444263 0
M  V30 48 H 2.337172 0.224946 8.947367 0
M  V30 49 H 2.130744 -1.506982 4.630932 0
M  V30 50 H 2.263275 -1.646727 2.204247 0
M  V30 51 H 0.788955 2.568249 4.463460 0
M  V30 52 H 0.538183 3.562355 1.815544 0
M  V30 53 H 2.563163 0.903481 -2.317593 0
M  V30 54 H -0.182117 -0.966679 -0.862534 0
M  V30 55 H -2.140813 -1.710257 -1.999889 0
M  V30 56 H -4.337641 0.032369 -4.705447 0
M  V30 57 H -4.714442 -1.583436 -5.352234 0
M  V30 58 H -4.752261 -2.409870 -2.867491 0
M  V30 59 H -4.499812 -0.721273 -2.409936 0
M  V30 60 H -6.487968 -2.426221 -4.949907 0
M  V30 61 H -7.479634 -2.785355 -3.508379 0
M  V30 62 H -7.992329 -1.447760 -4.550593 0
M  V30 63 H -7.541661 0.042550 -2.018392 0
M  V30 64 H -6.110470 -0.812214 -1.225928 0
M  V30 65 H -7.621049 -1.695717 -1.689558 0
M  V30 66 H -2.465594 -4.161053 -2.843287 0
M  V30 67 H -0.841717 -3.475241 -3.121265 0
M  V30 68 H -1.384919 -4.955651 -4.020409 0
M  V30 69 H -0.804178 0.000234 -5.678720 0
M  V30 70 H 1.275667 0.784979 -4.467088 0
M  V30 71 H 1.533169 -2.728153 -0.982867 0
M  V30 72 H 3.191826 -4.550000 -0.629336 0
M  V30 73 H 5.403943 -4.040711 0.332987 0
M  V30 74 H 5.906047 -1.681814 0.923329 0
M  V30 75 H 4.305993 0.045721 0.574102 0
M  V30 END ATOM
M  V30 BEGIN BOND
M  V30 1 1 1 2
M  V30 2 1 2 3
M  V30 3 1 3 4
M  V30 4 1 3 5
M  V30 5 2 5 6
M  V30 6 1 5 7
M  V30 7 2 7 8
M  V30 8 1 8 9
M  V30 9 2 9 10
M  V30 10 1 10 11
M  V30 11 2 11 12
M  V30 12 1 11 13
M  V30 13 1 13 14
M  V30 14 2 14 15
M  V30 15 1 14 16
M  V30 16 2 16 17
M  V30 17 1 17 18
M  V30 18 1 18 19
M  V30 19 2 19 20
M  V30 20 1 20 21
M  V30 21 2 21 22
M  V30 22 1 22 23
M  V30 23 1 23 24
M  V30 24 1 24 25
M  V30 25 1 25 26
M  V30 26 1 26 27
M  V30 27 1 26 28
M  V30 28 1 23 29
M  V30 29 1 29 30
M  V30 30 2 29 31
M  V30 31 2 29 32
M  V30 32 1 22 33
M  V30 33 2 33 34
M  V30 34 1 17 35
M  V30 35 2 35 36
M  V30 36 1 36 37
M  V30 37 2 37 38
M  V30 38 1 38 39
M  V30 39 2 39 40
M  V30 40 1 12 7
M  V30 41 1 34 19
M  V30 42 1 40 35
M  V30 43 1 16 10
M  V30 44 1 1 41
M  V30 45 1 1 42
M  V30 46 1 1 43
M  V30 47 1 2 44
M  V30 48 1 2 45
M  V30 49 1 4 46
M  V30 50 1 4 47
M  V30 51 1 4 48
M  V30 52 1 8 49
M  V30 53 1 9 50
M  V30 54 1 12 51
M  V30 55 1 13 52
M  V30 56 1 18 53
M  V30 57 1 20 54
M  V30 58 1 21 55
M  V30 59 1 24 56
M  V30 60 1 24 57
M  V30 61 1 25 58
M  V30 62 1 25 59
M  V30 63 1 27 60
M  V30 64 1 27 61
M  V30 65 1 27 62
M  V30 66 1 28 63
M  V30 67 1 28 64
M  V30 68 1 28 65
M  V30 69 1 30 66
M  V30 70 1 30 67
M  V30 71 1 30 68
M  V30 72 1 33 69
M  V30 73 1 34 70
M  V30 74 1 36 71
M  V30 75 1 37 72
M  V30 76 1 38 73
M  V30 77 1 39 74
M  V30 78 1 40 75
M  V30 END BOND
M  V30 END CTAB
M  END
>  <Dataset>  (177) 
ChEMBL_Kinases

>  <Ligand_Instance>  (177) 
nan

>  <PDB_ID>  (177) 
nan

>  <Standardized_SMILES>  (177) 
CCN(C)C(=O)c1ccc2c(c1)NC(=O)/C2=C(\Nc1ccc(N(CCN(C)C)S(C)(=O)=O)cc1)c1ccccc1

>  <Name>  (177) 
nan

>  <Pocket>  (177) 
nan

>  <ATP_Site>  (177) 
nan

>  <Peripheral>  (177) 
nan

>  <Num_H_Atoms_ProtBoundConf>  (177) 
nan

>  <Num_Resolved_Atoms>  (177) 
nan

>  <Num_Not_Resolved_Atoms>  (177) 
nan

$$$$
CHEMBL129677
     RDKit          3D

  0  0  0  0  0  0  0  0  0  0999 V3000
M  V30 BEGIN CTAB
M  V30 COUNTS 36 39 0 0 0
M  V30 BEGIN ATOM
M  V30 1 C -0.338163 -1.983713 4.174113 0
M  V30 2 C 0.472320 -2.132393 2.931247 0
M  V30 3 C 0.559562 -3.429952 2.452663 0
M  V30 4 C 1.289408 -3.658930 1.307789 0
M  V30 5 C 1.891674 -2.567307 0.707761 0
M  V30 6 C 1.767049 -1.287459 1.237157 0
M  V30 7 C 2.470174 -0.269633 0.467706 0
M  V30 8 N 3.759534 -0.067846 0.139735 0
M  V30 9 N 3.886821 1.028115 -0.589225 0
M  V30 10 C 2.648326 1.567999 -0.749231 0
M  V30 11 C 1.725264 0.754428 -0.081426 0
M  V30 12 C 0.330448 1.173110 -0.142918 0
M  V30 13 C 0.075117 2.388916 0.504654 0
M  V30 14 C -1.201590 2.920218 0.533459 0
M  V30 15 N -2.222073 2.279388 -0.059838 0
M  V30 16 C -1.993955 1.113902 -0.684388 0
M  V30 17 C -2.998802 0.403946 -1.316049 0
M  V30 18 C -2.755736 -0.808925 -1.966443 0
M  V30 19 C -1.457455 -1.329686 -1.984630 0
M  V30 20 C -0.422829 -0.637153 -1.356588 0
M  V30 21 C -0.747788 0.552168 -0.737572 0
M  V30 22 N 1.053599 -1.063602 2.356200 0
M  V30 23 H -0.318593 -0.978813 4.599434 0
M  V30 24 H -1.373444 -2.315940 3.886271 0
M  V30 25 H 0.008145 -2.770253 4.885996 0
M  V30 26 H 0.078832 -4.265206 2.941677 0
M  V30 27 H 1.381585 -4.660952 0.901063 0
M  V30 28 H 2.456310 -2.800210 -0.192920 0
M  V30 29 H 4.451837 -0.787360 0.499510 0
M  V30 30 H 2.574449 2.469337 -1.321022 0
M  V30 31 H 0.856234 2.961059 1.005931 0
M  V30 32 H -1.367129 3.865025 1.043634 0
M  V30 33 H -3.996501 0.859460 -1.270185 0
M  V30 34 H -3.582334 -1.318468 -2.442518 0
M  V30 35 H -1.319050 -2.277530 -2.504358 0
M  V30 36 H 0.572421 -1.052612 -1.381704 0
M  V30 END ATOM
M  V30 BEGIN BOND
M  V30 1 1 1 2
M  V30 2 2 2 3
M  V30 3 1 3 4
M  V30 4 2 4 5
M  V30 5 1 5 6
M  V30 6 1 6 7
M  V30 7 1 7 8
M  V30 8 1 8 9
M  V30 9 2 9 10
M  V30 10 1 10 11
M  V30 11 1 11 12
M  V30 12 2 12 13
M  V30 13 1 13 14
M  V30 14 2 14 15
M  V30 15 1 15 16
M  V30 16 2 16 17
M  V30 17 1 17 18
M  V30 18 2 18 19
M  V30 19 1 19 20
M  V30 20 2 20 21
M  V30 21 2 6 22
M  V30 22 1 22 2
M  V30 23 2 11 7
M  V30 24 1 21 12
M  V30 25 1 21 16
M  V30 26 1 1 23
M  V30 27 1 1 24
M  V30 28 1 1 25
M  V30 29 1 3 26
M  V30 30 1 4 27
M  V30 31 1 5 28
M  V30 32 1 8 29
M  V30 33 1 10 30
M  V30 34 1 13 31
M  V30 35 1 14 32
M  V30 36 1 17 33
M  V30 37 1 18 34
M  V30 38 1 19 35
M  V30 39 1 20 36
M  V30 END BOND
M  V30 END CTAB
M  END
>  <Dataset>  (178) 
ChEMBL_Kinases

>  <Ligand_Instance>  (178) 
nan

>  <PDB_ID>  (178) 
nan

>  <Standardized_SMILES>  (178) 
Cc1cccc(-c2[nH]ncc2-c2ccnc3ccccc23)n1

>  <Name>  (178) 
nan

>  <Pocket>  (178) 
nan

>  <ATP_Site>  (178) 
nan

>  <Peripheral>  (178) 
nan

>  <Num_H_Atoms_ProtBoundConf>  (178) 
nan

>  <Num_Resolved_Atoms>  (178) 
nan

>  <Num_Not_Resolved_Atoms>  (178) 
nan

$$$$
CHEMBL1271644
     RDKit          3D

  0  0  0  0  0  0  0  0  0  0999 V3000
M  V30 BEGIN CTAB
M  V30 COUNTS 58 62 0 0 0
M  V30 BEGIN ATOM
M  V30 1 C 2.559775 -2.477844 2.133229 0
M  V30 2 N 3.489657 -1.378740 2.183821 0
M  V30 3 N 4.465409 -1.070310 3.014697 0
M  V30 4 C 5.085049 0.074265 2.668036 0
M  V30 5 C 6.210204 0.700606 3.374933 0
M  V30 6 N 6.725037 0.073399 4.542056 0
M  V30 7 O 6.712086 1.777119 2.954290 0
M  V30 8 C 4.460660 0.537288 1.527745 0
M  V30 9 C 3.479976 -0.396803 1.267791 0
M  V30 10 C 2.669750 -0.116466 0.089980 0
M  V30 11 N 1.677338 -0.937541 -0.295372 0
M  V30 12 C 0.912251 -0.695749 -1.393461 0
M  V30 13 N -0.065756 -1.669826 -1.612776 0
M  V30 14 C -1.381163 -2.084155 -1.319412 0
M  V30 15 C -2.106781 -1.212109 -0.543435 0
M  V30 16 C -3.405326 -1.474737 -0.191686 0
M  V30 17 N -4.273948 -0.660623 0.586592 0
M  V30 18 C -5.594221 -1.009221 1.074600 0
M  V30 19 C -6.434777 0.199054 1.323460 0
M  V30 20 N -6.225580 1.163446 0.259507 0
M  V30 21 C -4.867723 1.690694 0.301365 0
M  V30 22 C -3.946064 0.704864 1.006591 0
M  V30 23 C -3.951395 -2.662736 -0.655792 0
M  V30 24 C -3.193281 -3.521553 -1.436532 0
M  V30 25 C -1.889373 -3.270074 -1.797141 0
M  V30 26 O -1.141798 -4.137338 -2.577544 0
M  V30 27 C -0.392811 -5.148042 -1.929501 0
M  V30 28 F 0.294083 -5.918554 -2.869493 0
M  V30 29 F 0.530320 -4.660072 -1.031968 0
M  V30 30 F -1.227595 -5.981233 -1.182935 0
M  V30 31 N 1.129087 0.413407 -2.160763 0
M  V30 32 C 2.118549 1.275085 -1.815878 0
M  V30 33 C 2.879113 0.994116 -0.686805 0
M  V30 34 C 3.918752 2.008612 -0.419082 0
M  V30 35 C 4.776031 1.754375 0.763516 0
M  V30 36 H 2.824380 -3.302310 2.805601 0
M  V30 37 H 2.451806 -2.788887 1.073233 0
M  V30 38 H 1.561409 -2.088143 2.469656 0
M  V30 39 H 7.139094 0.412247 5.419829 0
M  V30 40 H 6.760623 -0.968243 4.696387 0
M  V30 41 H 0.507018 -2.281907 -2.270000 0
M  V30 42 H -1.692775 -0.296989 -0.181852 0
M  V30 43 H -6.108376 -1.586627 0.263660 0
M  V30 44 H -5.534790 -1.685693 1.955346 0
M  V30 45 H -6.123758 0.630833 2.297849 0
M  V30 46 H -7.494294 -0.101310 1.297242 0
M  V30 47 H -6.309370 0.645470 -0.645772 0
M  V30 48 H -4.885335 2.611461 0.905995 0
M  V30 49 H -4.502444 1.949493 -0.707592 0
M  V30 50 H -2.915567 0.999863 0.744303 0
M  V30 51 H -4.085599 0.850477 2.084254 0
M  V30 52 H -4.945426 -3.055599 -0.494296 0
M  V30 53 H -3.572753 -4.479504 -1.834107 0
M  V30 54 H 2.229876 2.118970 -2.462595 0
M  V30 55 H 3.360789 2.977704 -0.280084 0
M  V30 56 H 4.551304 2.175214 -1.320881 0
M  V30 57 H 5.845792 1.719076 0.442327 0
M  V30 58 H 4.687471 2.623945 1.476131 0
M  V30 END ATOM
M  V30 BEGIN BOND
M  V30 1 1 1 2
M  V30 2 1 2 3
M  V30 3 2 3 4
M  V30 4 1 4 5
M  V30 5 1 5 6
M  V30 6 2 5 7
M  V30 7 1 4 8
M  V30 8 2 8 9
M  V30 9 1 9 10
M  V30 10 2 10 11
M  V30 11 1 11 12
M  V30 12 1 12 13
M  V30 13 1 13 14
M  V30 14 2 14 15
M  V30 15 1 15 16
M  V30 16 1 16 17
M  V30 17 1 17 18
M  V30 18 1 18 19
M  V30 19 1 19 20
M  V30 20 1 20 21
M  V30 21 1 21 22
M  V30 22 2 16 23
M  V30 23 1 23 24
M  V30 24 2 24 25
M  V30 25 1 25 26
M  V30 26 1 26 27
M  V30 27 1 27 28
M  V30 28 1 27 29
M  V30 29 1 27 30
M  V30 30 2 12 31
M  V30 31 1 31 32
M  V30 32 2 32 33
M  V30 33 1 33 34
M  V30 34 1 34 35
M  V30 35 1 9 2
M  V30 36 1 33 10
M  V30 37 1 35 8
M  V30 38 1 25 14
M  V30 39 1 22 17
M  V30 40 1 1 36
M  V30 41 1 1 37
M  V30 42 1 1 38
M  V30 43 1 6 39
M  V30 44 1 6 40
M  V30 45 1 13 41
M  V30 46 1 15 42
M  V30 47 1 18 43
M  V30 48 1 18 44
M  V30 49 1 19 45
M  V30 50 1 19 46
M  V30 51 1 20 47
M  V30 52 1 21 48
M  V30 53 1 21 49
M  V30 54 1 22 50
M  V30 55 1 22 51
M  V30 56 1 23 52
M  V30 57 1 24 53
M  V30 58 1 32 54
M  V30 59 1 34 55
M  V30 60 1 34 56
M  V30 61 1 35 57
M  V30 62 1 35 58
M  V30 END BOND
M  V30 END CTAB
M  END
>  <Dataset>  (179) 
ChEMBL_Kinases

>  <Ligand_Instance>  (179) 
nan

>  <PDB_ID>  (179) 
nan

>  <Standardized_SMILES>  (179) 
Cn1nc(C(N)=O)c2c1-c1nc(Nc3cc(N4CCNCC4)ccc3OC(F)(F)F)ncc1CC2

>  <Name>  (179) 
nan

>  <Pocket>  (179) 
nan

>  <ATP_Site>  (179) 
nan

>  <Peripheral>  (179) 
nan

>  <Num_H_Atoms_ProtBoundConf>  (179) 
nan

>  <Num_Resolved_Atoms>  (179) 
nan

>  <Num_Not_Resolved_Atoms>  (179) 
nan

$$$$
CHEMBL1271663
     RDKit          3D

  0  0  0  0  0  0  0  0  0  0999 V3000
M  V30 BEGIN CTAB
M  V30 COUNTS 49 53 0 0 0
M  V30 BEGIN ATOM
M  V30 1 C 3.696952 -2.009892 5.352476 0
M  V30 2 S 4.874325 -1.269811 4.217714 0
M  V30 3 C 4.066608 -0.415059 2.871864 0
M  V30 4 N 4.827935 0.187176 1.939213 0
M  V30 5 C 3.998854 0.758652 1.035493 0
M  V30 6 C 4.203796 1.541836 -0.183667 0
M  V30 7 C 3.731305 1.024612 -1.370414 0
M  V30 8 C 3.880566 1.694812 -2.573174 0
M  V30 9 C 4.525806 2.916304 -2.557191 0
M  V30 10 F 4.693836 3.613075 -3.729065 0
M  V30 11 C 5.007108 3.450777 -1.373373 0
M  V30 12 C 4.851739 2.773422 -0.183188 0
M  V30 13 C 2.693603 0.490257 1.439274 0
M  V30 14 C 1.368557 0.813450 0.915688 0
M  V30 15 C 0.973012 2.133618 0.818187 0
M  V30 16 C -0.287261 2.413409 0.319787 0
M  V30 17 N -1.078233 1.379787 -0.050859 0
M  V30 18 C -0.668974 0.085057 0.053479 0
M  V30 19 N -1.686253 -0.837743 -0.402435 0
M  V30 20 C -2.541160 -1.213355 0.687352 0
M  V30 21 O -2.148153 -0.622838 1.724868 0
M  V30 22 C -3.637077 -2.143212 0.434041 0
M  V30 23 C -4.193405 -2.850303 -0.597148 0
M  V30 24 C -5.260011 -3.557567 -0.086095 0
M  V30 25 C -6.102613 -4.393900 -0.746998 0
M  V30 26 C -7.103711 -4.989911 -0.007563 0
M  V30 27 C -7.242887 -4.743432 1.358403 0
M  V30 28 C -6.338248 -3.879164 1.939743 0
M  V30 29 C -5.316586 -3.252274 1.256455 0
M  V30 30 O -4.350809 -2.421177 1.525480 0
M  V30 31 C 0.584428 -0.236773 0.547022 0
M  V30 32 N 2.755886 -0.242473 2.585956 0
M  V30 33 H 3.527276 -1.470130 6.282118 0
M  V30 34 H 2.715633 -2.075796 4.805946 0
M  V30 35 H 3.972034 -3.077376 5.588949 0
M  V30 36 H 3.226503 0.081861 -1.424553 0
M  V30 37 H 3.510053 1.291659 -3.509309 0
M  V30 38 H 5.513180 4.404049 -1.354442 0
M  V30 39 H 5.220819 3.167960 0.771781 0
M  V30 40 H 1.663409 2.922652 1.136632 0
M  V30 41 H -0.613196 3.443410 0.236532 0
M  V30 42 H -1.802008 -1.199047 -1.395754 0
M  V30 43 H -3.728519 -2.732134 -1.549534 0
M  V30 44 H -5.994457 -4.585584 -1.805656 0
M  V30 45 H -7.808213 -5.669207 -0.486125 0
M  V30 46 H -8.002202 -5.184416 1.962688 0
M  V30 47 H -6.440751 -3.681517 3.005395 0
M  V30 48 H 0.797029 -1.277672 0.583601 0
M  V30 49 H 2.057373 -0.663524 3.236002 0
M  V30 END ATOM
M  V30 BEGIN BOND
M  V30 1 1 1 2
M  V30 2 1 2 3
M  V30 3 2 3 4
M  V30 4 1 4 5
M  V30 5 1 5 6
M  V30 6 2 6 7
M  V30 7 1 7 8
M  V30 8 2 8 9
M  V30 9 1 9 10
M  V30 10 1 9 11
M  V30 11 2 11 12
M  V30 12 2 5 13
M  V30 13 1 13 14
M  V30 14 2 14 15
M  V30 15 1 15 16
M  V30 16 2 16 17
M  V30 17 1 17 18
M  V30 18 1 18 19
M  V30 19 1 19 20
M  V30 20 2 20 21
M  V30 21 1 20 22
M  V30 22 2 22 23
M  V30 23 1 23 24
M  V30 24 2 24 25
M  V30 25 1 25 26
M  V30 26 2 26 27
M  V30 27 1 27 28
M  V30 28 2 28 29
M  V30 29 1 29 30
M  V30 30 2 18 31
M  V30 31 1 13 32
M  V30 32 1 32 3
M  V30 33 1 12 6
M  V30 34 1 31 14
M  V30 35 1 30 22
M  V30 36 1 29 24
M  V30 37 1 1 33
M  V30 38 1 1 34
M  V30 39 1 1 35
M  V30 40 1 7 36
M  V30 41 1 8 37
M  V30 42 1 11 38
M  V30 43 1 12 39
M  V30 44 1 15 40
M  V30 45 1 16 41
M  V30 46 1 19 42
M  V30 47 1 23 43
M  V30 48 1 25 44
M  V30 49 1 26 45
M  V30 50 1 27 46
M  V30 51 1 28 47
M  V30 52 1 31 48
M  V30 53 1 32 49
M  V30 END BOND
M  V30 END CTAB
M  END
>  <Dataset>  (180) 
ChEMBL_Kinases

>  <Ligand_Instance>  (180) 
nan

>  <PDB_ID>  (180) 
nan

>  <Standardized_SMILES>  (180) 
CSc1nc(-c2ccc(F)cc2)c(-c2ccnc(NC(=O)c3cc4ccccc4o3)c2)[nH]1

>  <Name>  (180) 
nan

>  <Pocket>  (180) 
nan

>  <ATP_Site>  (180) 
nan

>  <Peripheral>  (180) 
nan

>  <Num_H_Atoms_ProtBoundConf>  (180) 
nan

>  <Num_Resolved_Atoms>  (180) 
nan

>  <Num_Not_Resolved_Atoms>  (180) 
nan

$$$$
CHEMBL1271736
     RDKit          3D

  0  0  0  0  0  0  0  0  0  0999 V3000
M  V30 BEGIN CTAB
M  V30 COUNTS 74 77 0 0 0
M  V30 BEGIN ATOM
M  V30 1 C 5.789692 0.863745 8.255733 0
M  V30 2 C 4.378068 1.348462 8.542914 0
M  V30 3 N 3.844696 1.748667 7.233732 0
M  V30 4 C 3.822814 0.688943 6.321482 0
M  V30 5 O 4.269653 -0.395682 6.829811 0
M  V30 6 C 3.373141 0.732542 4.944051 0
M  V30 7 C 3.659085 -0.266302 4.028785 0
M  V30 8 C 3.156962 -0.158008 2.751156 0
M  V30 9 C 2.388475 0.885850 2.342806 0
M  V30 10 C 2.125131 1.859449 3.275432 0
M  V30 11 C 2.597786 1.811938 4.565953 0
M  V30 12 N 1.322079 2.883791 2.690811 0
M  V30 13 C 1.083481 2.522648 1.351254 0
M  V30 14 O 0.431126 3.131701 0.481940 0
M  V30 15 C 1.750831 1.257317 1.113423 0
M  V30 16 C 1.804158 0.486150 0.056511 0
M  V30 17 N 1.093733 1.080736 -1.054033 0
M  V30 18 C -0.087351 0.613816 -1.633535 0
M  V30 19 C -0.730056 -0.532235 -1.241682 0
M  V30 20 C -1.894862 -0.967360 -1.820711 0
M  V30 21 C -2.517449 -0.293581 -2.840594 0
M  V30 22 N -3.712824 -0.660805 -3.541938 0
M  V30 23 C -3.544817 -1.305481 -4.807459 0
M  V30 24 C -3.520091 -2.786661 -4.799664 0
M  V30 25 C -4.739867 -3.488915 -4.332013 0
M  V30 26 N -5.148360 -3.229211 -2.972775 0
M  V30 27 C -6.413656 -3.943027 -2.727211 0
M  V30 28 C -4.217092 -3.900951 -2.035855 0
M  V30 29 C -4.879326 -0.265923 -2.844256 0
M  V30 30 C -6.338285 -0.134211 -2.641597 0
M  V30 31 O -4.081411 0.181958 -1.994567 0
M  V30 32 C -1.864201 0.876541 -3.242413 0
M  V30 33 C -0.678597 1.317930 -2.653076 0
M  V30 34 C 2.338525 -0.831857 -0.174176 0
M  V30 35 C 2.224549 -2.122729 0.317991 0
M  V30 36 C 2.910803 -3.201649 -0.119699 0
M  V30 37 C 3.812845 -3.056677 -1.140455 0
M  V30 38 C 3.993416 -1.811540 -1.693415 0
M  V30 39 C 3.274599 -0.705389 -1.227389 0
M  V30 40 H 6.097182 1.020529 7.197348 0
M  V30 41 H 6.507000 1.387770 8.903461 0
M  V30 42 H 5.902953 -0.231337 8.495430 0
M  V30 43 H 4.338749 2.189114 9.254455 0
M  V30 44 H 3.774441 0.481851 8.872781 0
M  V30 45 H 3.504114 2.669598 6.928459 0
M  V30 46 H 4.274114 -1.059386 4.453011 0
M  V30 47 H 3.498245 -0.978682 2.199405 0
M  V30 48 H 2.375546 2.585333 5.261750 0
M  V30 49 H 0.920487 3.778682 3.078784 0
M  V30 50 H 1.563077 1.940041 -1.417422 0
M  V30 51 H -0.343749 -1.146950 -0.443877 0
M  V30 52 H -2.361892 -1.860975 -1.487190 0
M  V30 53 H -4.329949 -0.987764 -5.545027 0
M  V30 54 H -2.594672 -0.927724 -5.280844 0
M  V30 55 H -2.595171 -3.100508 -4.249391 0
M  V30 56 H -3.327354 -3.107234 -5.868577 0
M  V30 57 H -4.528504 -4.596059 -4.367172 0
M  V30 58 H -5.605952 -3.244011 -4.992961 0
M  V30 59 H -6.150271 -5.041269 -2.636126 0
M  V30 60 H -7.135613 -3.818773 -3.535669 0
M  V30 61 H -6.766228 -3.637129 -1.723114 0
M  V30 62 H -4.267963 -3.293314 -1.101608 0
M  V30 63 H -3.231788 -3.886888 -2.502517 0
M  V30 64 H -4.511515 -4.957522 -1.869622 0
M  V30 65 H -6.577772 -0.566246 -1.651181 0
M  V30 66 H -6.927457 -0.620552 -3.445248 0
M  V30 67 H -6.655782 0.935349 -2.639834 0
M  V30 68 H -2.244941 1.517988 -4.046227 0
M  V30 69 H -0.199379 2.232356 -2.997275 0
M  V30 70 H 1.463423 -2.041240 1.121718 0
M  V30 71 H 2.660031 -4.103715 0.409130 0
M  V30 72 H 4.339964 -3.937991 -1.458548 0
M  V30 73 H 4.723621 -1.809864 -2.487966 0
M  V30 74 H 3.571811 0.167330 -1.802143 0
M  V30 END ATOM
M  V30 BEGIN BOND
M  V30 1 1 1 2
M  V30 2 1 2 3
M  V30 3 1 3 4
M  V30 4 2 4 5
M  V30 5 1 4 6
M  V30 6 2 6 7
M  V30 7 1 7 8
M  V30 8 2 8 9
M  V30 9 1 9 10
M  V30 10 2 10 11
M  V30 11 1 10 12
M  V30 12 1 12 13
M  V30 13 2 13 14
M  V30 14 1 13 15
M  V30 15 2 15 16
M  V30 16 1 16 17
M  V30 17 1 17 18
M  V30 18 2 18 19
M  V30 19 1 19 20
M  V30 20 2 20 21
M  V30 21 1 21 22
M  V30 22 1 22 23
M  V30 23 1 23 24
M  V30 24 1 24 25
M  V30 25 1 25 26
M  V30 26 1 26 27
M  V30 27 1 26 28
M  V30 28 1 22 29
M  V30 29 1 29 30
M  V30 30 2 29 31
M  V30 31 1 21 32
M  V30 32 2 32 33
M  V30 33 1 16 34
M  V30 34 2 34 35
M  V30 35 1 35 36
M  V30 36 2 36 37
M  V30 37 1 37 38
M  V30 38 2 38 39
M  V30 39 1 11 6
M  V30 40 1 33 18
M  V30 41 1 39 34
M  V30 42 1 15 9
M  V30 43 1 1 40
M  V30 44 1 1 41
M  V30 45 1 1 42
M  V30 46 1 2 43
M  V30 47 1 2 44
M  V30 48 1 3 45
M  V30 49 1 7 46
M  V30 50 1 8 47
M  V30 51 1 11 48
M  V30 52 1 12 49
M  V30 53 1 17 50
M  V30 54 1 19 51
M  V30 55 1 20 52
M  V30 56 1 23 53
M  V30 57 1 23 54
M  V30 58 1 24 55
M  V30 59 1 24 56
M  V30 60 1 25 57
M  V30 61 1 25 58
M  V30 62 1 27 59
M  V30 63 1 27 60
M  V30 64 1 27 61
M  V30 65 1 28 62
M  V30 66 1 28 63
M  V30 67 1 28 64
M  V30 68 1 30 65
M  V30 69 1 30 66
M  V30 70 1 30 67
M  V30 71 1 32 68
M  V30 72 1 33 69
M  V30 73 1 35 70
M  V30 74 1 36 71
M  V30 75 1 37 72
M  V30 76 1 38 73
M  V30 77 1 39 74
M  V30 END BOND
M  V30 END CTAB
M  END
>  <Dataset>  (181) 
ChEMBL_Kinases

>  <Ligand_Instance>  (181) 
nan

>  <PDB_ID>  (181) 
nan

>  <Standardized_SMILES>  (181) 
CCNC(=O)c1ccc2c(c1)NC(=O)/C2=C(\Nc1ccc(N(CCCN(C)C)C(C)=O)cc1)c1ccccc1

>  <Name>  (181) 
nan

>  <Pocket>  (181) 
nan

>  <ATP_Site>  (181) 
nan

>  <Peripheral>  (181) 
nan

>  <Num_H_Atoms_ProtBoundConf>  (181) 
nan

>  <Num_Resolved_Atoms>  (181) 
nan

>  <Num_Not_Resolved_Atoms>  (181) 
nan

$$$$
CHEMBL1271777
     RDKit          3D

  0  0  0  0  0  0  0  0  0  0999 V3000
M  V30 BEGIN CTAB
M  V30 COUNTS 43 46 0 0 0
M  V30 BEGIN ATOM
M  V30 1 C -0.292898 2.024956 6.458077 0
M  V30 2 S 0.362263 3.191086 5.213475 0
M  V30 3 C 0.874134 2.260984 3.760436 0
M  V30 4 N 1.405851 2.840447 2.663566 0
M  V30 5 C 1.697215 1.895300 1.730099 0
M  V30 6 C 2.271122 2.038397 0.418649 0
M  V30 7 C 3.459011 1.617098 -0.089286 0
M  V30 8 C 3.849838 1.840862 -1.390210 0
M  V30 9 C 3.003115 2.533031 -2.254247 0
M  V30 10 F 3.409979 2.744350 -3.542457 0
M  V30 11 C 1.776978 2.978700 -1.763118 0
M  V30 12 C 1.420820 2.734559 -0.452223 0
M  V30 13 C 1.325244 0.686279 2.285697 0
M  V30 14 C 1.386191 -0.684225 1.789712 0
M  V30 15 C 2.529247 -1.412837 1.536010 0
M  V30 16 C 2.520766 -2.706701 1.059947 0
M  V30 17 N 1.327560 -3.314269 0.821974 0
M  V30 18 C 0.190976 -2.610513 1.066804 0
M  V30 19 N -0.952146 -3.426705 0.750880 0
M  V30 20 C -1.292224 -3.210594 -0.625393 0
M  V30 21 O -0.524640 -2.386837 -1.179628 0
M  V30 22 C -2.425307 -3.910931 -1.246062 0
M  V30 23 C -3.364676 -4.835107 -0.800298 0
M  V30 24 C -4.203248 -5.140854 -1.853542 0
M  V30 25 C -3.716486 -4.367023 -2.908999 0
M  V30 26 O -2.692664 -3.670971 -2.524421 0
M  V30 27 C 0.160942 -1.313766 1.543269 0
M  V30 28 N 0.820297 0.919318 3.533159 0
M  V30 29 H -1.393967 1.865425 6.320957 0
M  V30 30 H -0.145892 2.452485 7.477076 0
M  V30 31 H 0.182570 1.042558 6.389284 0
M  V30 32 H 4.071961 1.092618 0.618885 0
M  V30 33 H 4.814688 1.472743 -1.720720 0
M  V30 34 H 1.161779 3.508540 -2.473176 0
M  V30 35 H 0.438920 3.137425 -0.203474 0
M  V30 36 H 3.463764 -0.929144 1.726771 0
M  V30 37 H 3.468768 -3.194958 0.892324 0
M  V30 38 H -1.536377 -4.104295 1.316664 0
M  V30 39 H -3.313415 -5.164669 0.237292 0
M  V30 40 H -5.013808 -5.841735 -1.737755 0
M  V30 41 H -4.188993 -4.403106 -3.882872 0
M  V30 42 H -0.807842 -0.895555 1.684745 0
M  V30 43 H 0.445547 0.268255 4.240918 0
M  V30 END ATOM
M  V30 BEGIN BOND
M  V30 1 1 1 2
M  V30 2 1 2 3
M  V30 3 2 3 4
M  V30 4 1 4 5
M  V30 5 1 5 6
M  V30 6 2 6 7
M  V30 7 1 7 8
M  V30 8 2 8 9
M  V30 9 1 9 10
M  V30 10 1 9 11
M  V30 11 2 11 12
M  V30 12 2 5 13
M  V30 13 1 13 14
M  V30 14 2 14 15
M  V30 15 1 15 16
M  V30 16 2 16 17
M  V30 17 1 17 18
M  V30 18 1 18 19
M  V30 19 1 19 20
M  V30 20 2 20 21
M  V30 21 1 20 22
M  V30 22 2 22 23
M  V30 23 1 23 24
M  V30 24 2 24 25
M  V30 25 1 25 26
M  V30 26 2 18 27
M  V30 27 1 13 28
M  V30 28 1 28 3
M  V30 29 1 12 6
M  V30 30 1 27 14
M  V30 31 1 26 22
M  V30 32 1 1 29
M  V30 33 1 1 30
M  V30 34 1 1 31
M  V30 35 1 7 32
M  V30 36 1 8 33
M  V30 37 1 11 34
M  V30 38 1 12 35
M  V30 39 1 15 36
M  V30 40 1 16 37
M  V30 41 1 19 38
M  V30 42 1 23 39
M  V30 43 1 24 40
M  V30 44 1 25 41
M  V30 45 1 27 42
M  V30 46 1 28 43
M  V30 END BOND
M  V30 END CTAB
M  END
>  <Dataset>  (182) 
ChEMBL_Kinases

>  <Ligand_Instance>  (182) 
nan

>  <PDB_ID>  (182) 
nan

>  <Standardized_SMILES>  (182) 
CSc1nc(-c2ccc(F)cc2)c(-c2ccnc(NC(=O)c3ccco3)c2)[nH]1

>  <Name>  (182) 
nan

>  <Pocket>  (182) 
nan

>  <ATP_Site>  (182) 
nan

>  <Peripheral>  (182) 
nan

>  <Num_H_Atoms_ProtBoundConf>  (182) 
nan

>  <Num_Resolved_Atoms>  (182) 
nan

>  <Num_Not_Resolved_Atoms>  (182) 
nan

$$$$
CHEMBL1271796
     RDKit          3D

  0  0  0  0  0  0  0  0  0  0999 V3000
M  V30 BEGIN CTAB
M  V30 COUNTS 77 80 0 0 0
M  V30 BEGIN ATOM
M  V30 1 C 3.345038 2.557791 6.690485 0
M  V30 2 C 2.388895 3.670736 6.386284 0
M  V30 3 N 0.997086 3.324824 6.667088 0
M  V30 4 C 0.504320 3.608304 8.000022 0
M  V30 5 C 0.076289 2.736071 5.756388 0
M  V30 6 O -1.130414 2.458167 6.075317 0
M  V30 7 C 0.308479 2.357950 4.371048 0
M  V30 8 C 1.262126 1.417070 3.977735 0
M  V30 9 C 1.400518 1.136823 2.636206 0
M  V30 10 C 0.612490 1.777491 1.720493 0
M  V30 11 C -0.333709 2.706091 2.089076 0
M  V30 12 C -0.493385 3.005697 3.427241 0
M  V30 13 N -1.016219 3.186576 0.936467 0
M  V30 14 C -0.500326 2.554598 -0.221815 0
M  V30 15 O -0.792659 2.663801 -1.433994 0
M  V30 16 C 0.532141 1.665790 0.283131 0
M  V30 17 C 1.332117 0.931663 -0.452343 0
M  V30 18 N 1.163678 0.877112 -1.865311 0
M  V30 19 C 0.350108 -0.059576 -2.560773 0
M  V30 20 C -0.363499 -1.028137 -1.888850 0
M  V30 21 C -1.132011 -1.910762 -2.588660 0
M  V30 22 C -1.267973 -1.927893 -3.939564 0
M  V30 23 N -2.097858 -2.865700 -4.611032 0
M  V30 24 C -2.927739 -3.713358 -3.771093 0
M  V30 25 C -2.269471 -4.985963 -3.350293 0
M  V30 26 C -3.242662 -5.758647 -2.494795 0
M  V30 27 N -3.662846 -5.065468 -1.313013 0
M  V30 28 C -4.651668 -5.836558 -0.557874 0
M  V30 29 C -2.559649 -4.870232 -0.393842 0
M  V30 30 C -2.244069 -3.105228 -5.999752 0
M  V30 31 C -1.581570 -2.517722 -7.197696 0
M  V30 32 O -3.092817 -3.986651 -6.370703 0
M  V30 33 C -0.533036 -0.938319 -4.555222 0
M  V30 34 C 0.265144 -0.011691 -3.922078 0
M  V30 35 C 2.523041 0.201612 -0.074427 0
M  V30 36 C 2.883373 -1.126365 -0.133027 0
M  V30 37 C 4.150071 -1.536646 0.216497 0
M  V30 38 C 5.123278 -0.657068 0.640683 0
M  V30 39 C 4.784815 0.677736 0.707057 0
M  V30 40 C 3.501935 1.118134 0.356522 0
M  V30 41 H 2.766300 1.613968 6.903636 0
M  V30 42 H 3.967785 2.816806 7.593828 0
M  V30 43 H 4.051927 2.320984 5.885655 0
M  V30 44 H 2.650683 4.547324 7.011243 0
M  V30 45 H 2.520639 3.953539 5.321347 0
M  V30 46 H 1.088244 3.120345 8.806355 0
M  V30 47 H 0.573205 4.706353 8.205544 0
M  V30 48 H -0.554175 3.313802 8.125464 0
M  V30 49 H 1.796160 1.005630 4.798554 0
M  V30 50 H 2.144562 0.382376 2.510252 0
M  V30 51 H -1.243398 3.740916 3.704238 0
M  V30 52 H -1.781812 3.895145 0.924794 0
M  V30 53 H 1.696706 1.601353 -2.392647 0
M  V30 54 H -0.261665 -1.022402 -0.813212 0
M  V30 55 H -1.627005 -2.618342 -1.943081 0
M  V30 56 H -3.879115 -3.984739 -4.298081 0
M  V30 57 H -3.242795 -3.135997 -2.897505 0
M  V30 58 H -2.060313 -5.657086 -4.239414 0
M  V30 59 H -1.288940 -4.848610 -2.883440 0
M  V30 60 H -4.174623 -5.924685 -3.111550 0
M  V30 61 H -2.880494 -6.789443 -2.281995 0
M  V30 62 H -4.397584 -6.914033 -0.573186 0
M  V30 63 H -5.679220 -5.664908 -0.915153 0
M  V30 64 H -4.630032 -5.482583 0.494086 0
M  V30 65 H -2.710739 -3.910768 0.144813 0
M  V30 66 H -1.596898 -4.815310 -0.921293 0
M  V30 67 H -2.507200 -5.730544 0.334817 0
M  V30 68 H -0.467487 -2.631696 -7.077945 0
M  V30 69 H -1.803511 -3.108789 -8.115369 0
M  V30 70 H -1.903396 -1.489704 -7.420428 0
M  V30 71 H -0.544125 -0.819199 -5.625912 0
M  V30 72 H 0.824681 0.746627 -4.440325 0
M  V30 73 H 2.053348 -1.720911 -0.473704 0
M  V30 74 H 4.277220 -2.609931 0.116895 0
M  V30 75 H 6.089873 -1.070667 0.894034 0
M  V30 76 H 5.571817 1.336890 1.043540 0
M  V30 77 H 3.411754 2.203245 0.469234 0
M  V30 END ATOM
M  V30 BEGIN BOND
M  V30 1 1 1 2
M  V30 2 1 2 3
M  V30 3 1 3 4
M  V30 4 1 3 5
M  V30 5 2 5 6
M  V30 6 1 5 7
M  V30 7 2 7 8
M  V30 8 1 8 9
M  V30 9 2 9 10
M  V30 10 1 10 11
M  V30 11 2 11 12
M  V30 12 1 11 13
M  V30 13 1 13 14
M  V30 14 2 14 15
M  V30 15 1 14 16
M  V30 16 2 16 17
M  V30 17 1 17 18
M  V30 18 1 18 19
M  V30 19 2 19 20
M  V30 20 1 20 21
M  V30 21 2 21 22
M  V30 22 1 22 23
M  V30 23 1 23 24
M  V30 24 1 24 25
M  V30 25 1 25 26
M  V30 26 1 26 27
M  V30 27 1 27 28
M  V30 28 1 27 29
M  V30 29 1 23 30
M  V30 30 1 30 31
M  V30 31 2 30 32
M  V30 32 1 22 33
M  V30 33 2 33 34
M  V30 34 1 17 35
M  V30 35 2 35 36
M  V30 36 1 36 37
M  V30 37 2 37 38
M  V30 38 1 38 39
M  V30 39 2 39 40
M  V30 40 1 12 7
M  V30 41 1 34 19
M  V30 42 1 40 35
M  V30 43 1 16 10
M  V30 44 1 1 41
M  V30 45 1 1 42
M  V30 46 1 1 43
M  V30 47 1 2 44
M  V30 48 1 2 45
M  V30 49 1 4 46
M  V30 50 1 4 47
M  V30 51 1 4 48
M  V30 52 1 8 49
M  V30 53 1 9 50
M  V30 54 1 12 51
M  V30 55 1 13 52
M  V30 56 1 18 53
M  V30 57 1 20 54
M  V30 58 1 21 55
M  V30 59 1 24 56
M  V30 60 1 24 57
M  V30 61 1 25 58
M  V30 62 1 25 59
M  V30 63 1 26 60
M  V30 64 1 26 61
M  V30 65 1 28 62
M  V30 66 1 28 63
M  V30 67 1 28 64
M  V30 68 1 29 65
M  V30 69 1 29 66
M  V30 70 1 29 67
M  V30 71 1 31 68
M  V30 72 1 31 69
M  V30 73 1 31 70
M  V30 74 1 33 71
M  V30 75 1 34 72
M  V30 76 1 36 73
M  V30 77 1 37 74
M  V30 78 1 38 75
M  V30 79 1 39 76
M  V30 80 1 40 77
M  V30 END BOND
M  V30 END CTAB
M  END
>  <Dataset>  (183) 
ChEMBL_Kinases

>  <Ligand_Instance>  (183) 
nan

>  <PDB_ID>  (183) 
nan

>  <Standardized_SMILES>  (183) 
CCN(C)C(=O)c1ccc2c(c1)NC(=O)/C2=C(\Nc1ccc(N(CCCN(C)C)C(C)=O)cc1)c1ccccc1

>  <Name>  (183) 
nan

>  <Pocket>  (183) 
nan

>  <ATP_Site>  (183) 
nan

>  <Peripheral>  (183) 
nan

>  <Num_H_Atoms_ProtBoundConf>  (183) 
nan

>  <Num_Resolved_Atoms>  (183) 
nan

>  <Num_Not_Resolved_Atoms>  (183) 
nan

$$$$
CHEMBL1271853
     RDKit          3D

  0  0  0  0  0  0  0  0  0  0999 V3000
M  V30 BEGIN CTAB
M  V30 COUNTS 77 81 0 0 0
M  V30 BEGIN ATOM
M  V30 1 C 3.041493 -6.235334 7.124430 0
M  V30 2 C 2.941887 -4.848438 7.760493 0
M  V30 3 N 2.594302 -3.930634 6.687789 0
M  V30 4 C 3.390491 -3.730586 5.546355 0
M  V30 5 O 4.445087 -4.416439 5.523121 0
M  V30 6 C 3.065105 -2.818964 4.456126 0
M  V30 7 C 3.936320 -2.722031 3.362556 0
M  V30 8 C 3.623172 -1.857231 2.336313 0
M  V30 9 C 2.480459 -1.106162 2.388091 0
M  V30 10 C 1.616426 -1.194075 3.456310 0
M  V30 11 C 1.918568 -2.055623 4.488670 0
M  V30 12 N 0.496647 -0.338547 3.264254 0
M  V30 13 C 0.648469 0.336512 2.008186 0
M  V30 14 O -0.083606 1.177694 1.422862 0
M  V30 15 C 1.896097 -0.165961 1.494794 0
M  V30 16 C 2.473182 0.241390 0.388361 0
M  V30 17 N 1.879606 1.176283 -0.515388 0
M  V30 18 C 0.889073 0.820294 -1.487055 0
M  V30 19 C 0.326513 1.772745 -2.318670 0
M  V30 20 C -0.623913 1.383880 -3.238922 0
M  V30 21 C -1.012551 0.059359 -3.333689 0
M  V30 22 N -2.000034 -0.436655 -4.257999 0
M  V30 23 C -1.446850 -0.831807 -5.539049 0
M  V30 24 C -3.427941 -0.586980 -4.078363 0
M  V30 25 O -4.145137 -1.041775 -5.029853 0
M  V30 26 C -3.776606 -0.140843 -2.708716 0
M  V30 27 N -5.183895 -0.246121 -2.424970 0
M  V30 28 C -5.394930 0.167698 -1.057494 0
M  V30 29 C -6.559890 1.120263 -0.894638 0
M  V30 30 N -6.357941 2.344475 -1.629811 0
M  V30 31 C -5.475964 3.257986 -0.902695 0
M  V30 32 C -5.790997 2.080808 -2.939970 0
M  V30 33 C -5.951334 0.621404 -3.285138 0
M  V30 34 C -0.468738 -0.913907 -2.518164 0
M  V30 35 C 0.479385 -0.491981 -1.607756 0
M  V30 36 C 3.807371 0.014866 -0.126003 0
M  V30 37 C 4.818230 0.514063 0.716310 0
M  V30 38 C 6.162168 0.369641 0.351639 0
M  V30 39 C 6.493052 -0.255106 -0.820697 0
M  V30 40 C 5.504212 -0.743741 -1.645524 0
M  V30 41 C 4.160828 -0.613341 -1.306723 0
M  V30 42 H 2.169073 -6.865316 7.405057 0
M  V30 43 H 4.021170 -6.716624 7.363295 0
M  V30 44 H 3.007163 -6.188120 6.008400 0
M  V30 45 H 3.906655 -4.580406 8.259356 0
M  V30 46 H 2.148561 -4.910097 8.521362 0
M  V30 47 H 1.700622 -3.401520 6.789086 0
M  V30 48 H 4.828818 -3.366555 3.415957 0
M  V30 49 H 4.364222 -1.924993 1.574161 0
M  V30 50 H 1.214469 -2.099138 5.318561 0
M  V30 51 H -0.318185 -0.196049 3.902467 0
M  V30 52 H 2.182095 2.183325 -0.472062 0
M  V30 53 H 0.623043 2.814684 -2.255212 0
M  V30 54 H -1.101997 2.088590 -3.918780 0
M  V30 55 H -0.382656 -0.669103 -5.661217 0
M  V30 56 H -1.974413 -0.232962 -6.326868 0
M  V30 57 H -1.683788 -1.897311 -5.701378 0
M  V30 58 H -3.240827 -0.774430 -1.941315 0
M  V30 59 H -3.379861 0.892470 -2.504551 0
M  V30 60 H -5.653659 -0.718904 -0.404685 0
M  V30 61 H -4.470633 0.609975 -0.615696 0
M  V30 62 H -6.673454 1.429816 0.178109 0
M  V30 63 H -7.514978 0.680641 -1.175223 0
M  V30 64 H -4.952890 3.941203 -1.600951 0
M  V30 65 H -6.047444 3.823656 -0.136170 0
M  V30 66 H -4.739389 2.620613 -0.364924 0
M  V30 67 H -6.396245 2.675392 -3.662956 0
M  V30 68 H -4.715038 2.331290 -3.008824 0
M  V30 69 H -7.027573 0.325985 -3.112821 0
M  V30 70 H -5.695362 0.534407 -4.363121 0
M  V30 71 H -0.725541 -1.962123 -2.539328 0
M  V30 72 H 0.923852 -1.235364 -0.954662 0
M  V30 73 H 4.620243 1.017894 1.656629 0
M  V30 74 H 6.959939 0.742097 0.976270 0
M  V30 75 H 7.516871 -0.397625 -1.156093 0
M  V30 76 H 5.640751 -1.259294 -2.602724 0
M  V30 77 H 3.340315 -0.966174 -1.892848 0
M  V30 END ATOM
M  V30 BEGIN BOND
M  V30 1 1 1 2
M  V30 2 1 2 3
M  V30 3 1 3 4
M  V30 4 2 4 5
M  V30 5 1 4 6
M  V30 6 2 6 7
M  V30 7 1 7 8
M  V30 8 2 8 9
M  V30 9 1 9 10
M  V30 10 2 10 11
M  V30 11 1 10 12
M  V30 12 1 12 13
M  V30 13 2 13 14
M  V30 14 1 13 15
M  V30 15 2 15 16
M  V30 16 1 16 17
M  V30 17 1 17 18
M  V30 18 2 18 19
M  V30 19 1 19 20
M  V30 20 2 20 21
M  V30 21 1 21 22
M  V30 22 1 22 23
M  V30 23 1 22 24
M  V30 24 2 24 25
M  V30 25 1 24 26
M  V30 26 1 26 27
M  V30 27 1 27 28
M  V30 28 1 28 29
M  V30 29 1 29 30
M  V30 30 1 30 31
M  V30 31 1 30 32
M  V30 32 1 32 33
M  V30 33 1 21 34
M  V30 34 2 34 35
M  V30 35 1 16 36
M  V30 36 2 36 37
M  V30 37 1 37 38
M  V30 38 2 38 39
M  V30 39 1 39 40
M  V30 40 2 40 41
M  V30 41 1 11 6
M  V30 42 1 35 18
M  V30 43 1 41 36
M  V30 44 1 15 9
M  V30 45 1 33 27
M  V30 46 1 1 42
M  V30 47 1 1 43
M  V30 48 1 1 44
M  V30 49 1 2 45
M  V30 50 1 2 46
M  V30 51 1 3 47
M  V30 52 1 7 48
M  V30 53 1 8 49
M  V30 54 1 11 50
M  V30 55 1 12 51
M  V30 56 1 17 52
M  V30 57 1 19 53
M  V30 58 1 20 54
M  V30 59 1 23 55
M  V30 60 1 23 56
M  V30 61 1 23 57
M  V30 62 1 26 58
M  V30 63 1 26 59
M  V30 64 1 28 60
M  V30 65 1 28 61
M  V30 66 1 29 62
M  V30 67 1 29 63
M  V30 68 1 31 64
M  V30 69 1 31 65
M  V30 70 1 31 66
M  V30 71 1 32 67
M  V30 72 1 32 68
M  V30 73 1 33 69
M  V30 74 1 33 70
M  V30 75 1 34 71
M  V30 76 1 35 72
M  V30 77 1 37 73
M  V30 78 1 38 74
M  V30 79 1 39 75
M  V30 80 1 40 76
M  V30 81 1 41 77
M  V30 END BOND
M  V30 END CTAB
M  END
>  <Dataset>  (184) 
ChEMBL_Kinases

>  <Ligand_Instance>  (184) 
nan

>  <PDB_ID>  (184) 
nan

>  <Standardized_SMILES>  (184) 
CCNC(=O)c1ccc2c(c1)NC(=O)/C2=C(\Nc1ccc(N(C)C(=O)CN2CCN(C)CC2)cc1)c1ccccc1

>  <Name>  (184) 
nan

>  <Pocket>  (184) 
nan

>  <ATP_Site>  (184) 
nan

>  <Peripheral>  (184) 
nan

>  <Num_H_Atoms_ProtBoundConf>  (184) 
nan

>  <Num_Resolved_Atoms>  (184) 
nan

>  <Num_Not_Resolved_Atoms>  (184) 
nan

$$$$
CHEMBL1271898
     RDKit          3D

  0  0  0  0  0  0  0  0  0  0999 V3000
M  V30 BEGIN CTAB
M  V30 COUNTS 52 55 0 0 0
M  V30 BEGIN ATOM
M  V30 1 C 0.685062 -0.478709 4.064805 0
M  V30 2 C 2.140240 -0.227969 4.368402 0
M  V30 3 C 2.389693 1.243568 4.462334 0
M  V30 4 C 2.953080 -0.955100 3.401724 0
M  V30 5 N 3.420742 -2.216989 3.510113 0
M  V30 6 N 4.110820 -2.475607 2.406833 0
M  V30 7 C 4.108783 -1.410681 1.571711 0
M  V30 8 Cl 4.947131 -1.452967 0.017171 0
M  V30 9 C 3.365036 -0.433731 2.210716 0
M  V30 10 C 3.161057 0.863233 1.575287 0
M  V30 11 C 3.999715 1.942765 1.739077 0
M  V30 12 C 3.647557 3.082062 1.062101 0
M  V30 13 N 2.553738 3.132414 0.291554 0
M  V30 14 C 1.736409 2.092491 0.127284 0
M  V30 15 N 0.595066 2.215327 -0.703587 0
M  V30 16 C -0.385434 1.238558 -1.004200 0
M  V30 17 C -0.414497 -0.052375 -0.531370 0
M  V30 18 C -1.371654 -0.997890 -0.827890 0
M  V30 19 C -2.399149 -0.633361 -1.672813 0
M  V30 20 C -3.446252 -1.634626 -2.009822 0
M  V30 21 C -4.237810 -1.970407 -0.803655 0
M  V30 22 C -4.072492 -3.353370 -0.267570 0
M  V30 23 N -4.248567 -4.278134 -1.383326 0
M  V30 24 C -3.024242 -4.126812 -2.166097 0
M  V30 25 C -2.904846 -2.788173 -2.795423 0
M  V30 26 C -2.369988 0.661356 -2.147023 0
M  V30 27 N -1.407901 1.538206 -1.820906 0
M  V30 28 N 2.090051 1.003961 0.785892 0
M  V30 29 H 0.057846 -0.502578 4.997144 0
M  V30 30 H 0.634562 -1.537037 3.689056 0
M  V30 31 H 0.277920 0.167850 3.278222 0
M  V30 32 H 2.343318 -0.669600 5.370843 0
M  V30 33 H 1.894703 1.575059 5.421823 0
M  V30 34 H 1.826977 1.760975 3.668441 0
M  V30 35 H 3.436079 1.523688 4.558536 0
M  V30 36 H 4.559215 -3.431760 2.310850 0
M  V30 37 H 4.856813 1.799620 2.382462 0
M  V30 38 H 4.300316 3.944717 1.181019 0
M  V30 39 H 0.447578 3.161252 -1.166001 0
M  V30 40 H 0.356496 -0.390648 0.127355 0
M  V30 41 H -1.348666 -1.983612 -0.435840 0
M  V30 42 H -4.146396 -1.080736 -2.703125 0
M  V30 43 H -5.336187 -1.803283 -0.930767 0
M  V30 44 H -3.962330 -1.273692 0.041003 0
M  V30 45 H -4.847362 -3.506772 0.510785 0
M  V30 46 H -3.062198 -3.565523 0.130042 0
M  V30 47 H -5.023609 -3.900149 -1.974330 0
M  V30 48 H -2.201725 -4.328376 -1.426642 0
M  V30 49 H -3.048974 -4.911647 -2.941245 0
M  V30 50 H -1.799662 -2.596417 -2.929137 0
M  V30 51 H -3.307321 -2.844776 -3.827672 0
M  V30 52 H -3.164402 0.969864 -2.810455 0
M  V30 END ATOM
M  V30 BEGIN BOND
M  V30 1 1 1 2
M  V30 2 1 2 3
M  V30 3 1 2 4
M  V30 4 2 4 5
M  V30 5 1 5 6
M  V30 6 1 6 7
M  V30 7 1 7 8
M  V30 8 2 7 9
M  V30 9 1 9 10
M  V30 10 2 10 11
M  V30 11 1 11 12
M  V30 12 2 12 13
M  V30 13 1 13 14
M  V30 14 1 14 15
M  V30 15 1 15 16
M  V30 16 2 16 17
M  V30 17 1 17 18
M  V30 18 2 18 19
M  V30 19 1 19 20
M  V30 20 1 20 21
M  V30 21 1 21 22
M  V30 22 1 22 23
M  V30 23 1 23 24
M  V30 24 1 24 25
M  V30 25 1 19 26
M  V30 26 2 26 27
M  V30 27 2 14 28
M  V30 28 1 9 4
M  V30 29 1 28 10
M  V30 30 1 27 16
M  V30 31 1 25 20
M  V30 32 1 1 29
M  V30 33 1 1 30
M  V30 34 1 1 31
M  V30 35 1 2 32
M  V30 36 1 3 33
M  V30 37 1 3 34
M  V30 38 1 3 35
M  V30 39 1 6 36
M  V30 40 1 11 37
M  V30 41 1 12 38
M  V30 42 1 15 39
M  V30 43 1 17 40
M  V30 44 1 18 41
M  V30 45 1 20 42
M  V30 46 1 21 43
M  V30 47 1 21 44
M  V30 48 1 22 45
M  V30 49 1 22 46
M  V30 50 1 23 47
M  V30 51 1 24 48
M  V30 52 1 24 49
M  V30 53 1 25 50
M  V30 54 1 25 51
M  V30 55 1 26 52
M  V30 END BOND
M  V30 END CTAB
M  END
>  <Dataset>  (185) 
ChEMBL_Kinases

>  <Ligand_Instance>  (185) 
nan

>  <PDB_ID>  (185) 
nan

>  <Standardized_SMILES>  (185) 
CC(C)c1n[nH]c(Cl)c1-c1ccnc(Nc2ccc(C3CCNCC3)cn2)n1

>  <Name>  (185) 
nan

>  <Pocket>  (185) 
nan

>  <ATP_Site>  (185) 
nan

>  <Peripheral>  (185) 
nan

>  <Num_H_Atoms_ProtBoundConf>  (185) 
nan

>  <Num_Resolved_Atoms>  (185) 
nan

>  <Num_Not_Resolved_Atoms>  (185) 
nan

$$$$
CHEMBL1272171
     RDKit          3D

  0  0  0  0  0  0  0  0  0  0999 V3000
M  V30 BEGIN CTAB
M  V30 COUNTS 63 66 0 0 0
M  V30 BEGIN ATOM
M  V30 1 C 1.234298 -0.142019 4.426172 0
M  V30 2 C 2.387450 0.816268 4.316517 0
M  V30 3 C 2.016227 2.147478 4.924725 0
M  V30 4 C 2.933193 0.920599 2.958493 0
M  V30 5 N 3.929078 0.160656 2.440041 0
M  V30 6 N 4.167426 0.522824 1.192930 0
M  V30 7 C 3.372499 1.521708 0.796970 0
M  V30 8 C 3.336400 2.192187 -0.511040 0
M  V30 9 F 3.593129 3.533399 -0.442143 0
M  V30 10 F 4.273058 1.607387 -1.334385 0
M  V30 11 F 2.075767 1.929714 -1.050537 0
M  V30 12 C 2.590029 1.778456 1.906893 0
M  V30 13 C 1.548406 2.796981 1.989683 0
M  V30 14 C 1.669799 4.131731 2.384383 0
M  V30 15 C 0.535275 4.921469 2.384867 0
M  V30 16 N -0.653036 4.436194 2.020381 0
M  V30 17 C -0.776667 3.136853 1.635160 0
M  V30 18 N -2.044937 2.613089 1.245084 0
M  V30 19 C -2.160540 1.254526 0.847285 0
M  V30 20 C -3.365711 0.702600 0.462195 0
M  V30 21 C -3.459148 -0.620416 0.078922 0
M  V30 22 C -2.360346 -1.457134 0.060126 0
M  V30 23 N -2.371422 -2.828033 -0.317944 0
M  V30 24 C -1.163551 -3.606334 -0.357580 0
M  V30 25 C -1.307335 -4.880079 -1.140772 0
M  V30 26 C -2.174979 -4.805684 -2.344916 0
M  V30 27 N -1.557280 -4.437178 -3.567875 0
M  V30 28 C -0.918071 -3.170655 -3.628951 0
M  V30 29 C -0.811938 -5.458869 -4.237024 0
M  V30 30 C -3.408480 -3.951298 -2.143047 0
M  V30 31 C -3.552458 -3.542540 -0.681188 0
M  V30 32 C -1.181392 -0.855266 0.454002 0
M  V30 33 N -1.089576 0.439006 0.828964 0
M  V30 34 N 0.312212 2.352228 1.627214 0
M  V30 35 H 0.268140 0.365269 4.512811 0
M  V30 36 H 1.191606 -0.749599 3.480824 0
M  V30 37 H 1.360011 -0.891964 5.240102 0
M  V30 38 H 3.207431 0.408910 4.975991 0
M  V30 39 H 2.801578 2.896834 4.750814 0
M  V30 40 H 0.998680 2.447964 4.649693 0
M  V30 41 H 1.997421 1.988379 6.041749 0
M  V30 42 H 4.897776 0.089322 0.556363 0
M  V30 43 H 2.667812 4.401018 2.651865 0
M  V30 44 H 0.706472 5.939047 2.701112 0
M  V30 45 H -2.879836 3.219527 1.251050 0
M  V30 46 H -4.263775 1.299078 0.453401 0
M  V30 47 H -4.405991 -1.019702 -0.214550 0
M  V30 48 H -0.913714 -3.864130 0.704515 0
M  V30 49 H -0.304735 -2.987680 -0.704689 0
M  V30 50 H -1.739370 -5.627578 -0.438743 0
M  V30 51 H -0.332898 -5.282490 -1.437183 0
M  V30 52 H -2.581512 -5.847243 -2.515607 0
M  V30 53 H 0.041597 -3.097056 -3.074446 0
M  V30 54 H -0.601754 -3.039512 -4.706489 0
M  V30 55 H -1.612829 -2.327763 -3.455996 0
M  V30 56 H -1.453829 -6.272201 -4.591740 0
M  V30 57 H -0.003704 -5.801903 -3.559047 0
M  V30 58 H -0.308973 -4.973552 -5.109957 0
M  V30 59 H -3.387545 -3.025753 -2.735951 0
M  V30 60 H -4.355061 -4.464481 -2.405661 0
M  V30 61 H -3.540586 -4.507032 -0.121603 0
M  V30 62 H -4.495111 -3.007816 -0.601374 0
M  V30 63 H -0.230147 -1.360313 0.499432 0
M  V30 END ATOM
M  V30 BEGIN BOND
M  V30 1 1 1 2
M  V30 2 1 2 3
M  V30 3 1 2 4
M  V30 4 2 4 5
M  V30 5 1 5 6
M  V30 6 1 6 7
M  V30 7 1 7 8
M  V30 8 1 8 9
M  V30 9 1 8 10
M  V30 10 1 8 11
M  V30 11 2 7 12
M  V30 12 1 12 13
M  V30 13 2 13 14
M  V30 14 1 14 15
M  V30 15 2 15 16
M  V30 16 1 16 17
M  V30 17 1 17 18
M  V30 18 1 18 19
M  V30 19 2 19 20
M  V30 20 1 20 21
M  V30 21 2 21 22
M  V30 22 1 22 23
M  V30 23 1 23 24
M  V30 24 1 24 25
M  V30 25 1 25 26
M  V30 26 1 26 27
M  V30 27 1 27 28
M  V30 28 1 27 29
M  V30 29 1 26 30
M  V30 30 1 30 31
M  V30 31 1 22 32
M  V30 32 2 32 33
M  V30 33 2 17 34
M  V30 34 1 12 4
M  V30 35 1 34 13
M  V30 36 1 33 19
M  V30 37 1 31 23
M  V30 38 1 1 35
M  V30 39 1 1 36
M  V30 40 1 1 37
M  V30 41 1 2 38
M  V30 42 1 3 39
M  V30 43 1 3 40
M  V30 44 1 3 41
M  V30 45 1 6 42
M  V30 46 1 14 43
M  V30 47 1 15 44
M  V30 48 1 18 45
M  V30 49 1 20 46
M  V30 50 1 21 47
M  V30 51 1 24 48
M  V30 52 1 24 49
M  V30 53 1 25 50
M  V30 54 1 25 51
M  V30 55 1 26 52
M  V30 56 1 28 53
M  V30 57 1 28 54
M  V30 58 1 28 55
M  V30 59 1 29 56
M  V30 60 1 29 57
M  V30 61 1 29 58
M  V30 62 1 30 59
M  V30 63 1 30 60
M  V30 64 1 31 61
M  V30 65 1 31 62
M  V30 66 1 32 63
M  V30 END BOND
M  V30 END CTAB
M  END
>  <Dataset>  (186) 
ChEMBL_Kinases

>  <Ligand_Instance>  (186) 
nan

>  <PDB_ID>  (186) 
nan

>  <Standardized_SMILES>  (186) 
CC(C)c1n[nH]c(C(F)(F)F)c1-c1ccnc(Nc2ccc(N3CCC(N(C)C)CC3)cn2)n1

>  <Name>  (186) 
nan

>  <Pocket>  (186) 
nan

>  <ATP_Site>  (186) 
nan

>  <Peripheral>  (186) 
nan

>  <Num_H_Atoms_ProtBoundConf>  (186) 
nan

>  <Num_Resolved_Atoms>  (186) 
nan

>  <Num_Not_Resolved_Atoms>  (186) 
nan

$$$$
CHEMBL1272
     RDKit          3D

  0  0  0  0  0  0  0  0  0  0999 V3000
M  V30 BEGIN CTAB
M  V30 COUNTS 69 71 0 0 0
M  V30 BEGIN ATOM
M  V30 1 C -0.748914 -2.010293 6.289872 0
M  V30 2 C 0.172072 -1.616010 5.151204 0
M  V30 3 O 0.835473 -2.711730 4.601215 0
M  V30 4 C 1.721104 -2.723688 3.562116 0
M  V30 5 C 1.969115 -1.477599 2.992570 0
M  V30 6 C 2.844449 -1.354329 1.931139 0
M  V30 7 C 3.076267 0.021421 1.349802 0
M  V30 8 C 1.862248 0.291306 0.489314 0
M  V30 9 O 1.453293 -0.829751 0.875532 0
M  V30 10 N 1.375383 1.314636 -0.364340 0
M  V30 11 C 0.080977 1.048347 -0.957807 0 CFG=1
M  V30 12 C -0.898071 2.169658 -0.679858 0
M  V30 13 C -1.142668 2.412074 0.782073 0
M  V30 14 C -2.147775 3.565316 0.905126 0
M  V30 15 C -1.669181 1.216120 1.499878 0
M  V30 16 C 0.280133 0.853646 -2.414513 0
M  V30 17 C 1.199495 1.612183 -3.098518 0
M  V30 18 C 1.472671 1.545221 -4.458489 0
M  V30 19 C 0.686965 0.592278 -5.088637 0
M  V30 20 C -0.265876 -0.225970 -4.510325 0
M  V30 21 C -0.435662 -0.057596 -3.153969 0
M  V30 22 N -1.410310 -0.946603 -2.566363 0
M  V30 23 C -1.266300 -2.070589 -1.692324 0
M  V30 24 C -2.289508 -2.133781 -0.602375 0
M  V30 25 C -3.626518 -1.584243 -1.038283 0
M  V30 26 C -3.732801 -1.501409 -2.543583 0
M  V30 27 C -2.706741 -0.499126 -3.013070 0
M  V30 28 C 3.517149 -2.431388 1.375333 0
M  V30 29 C 3.224332 -3.626485 1.986950 0
M  V30 30 C 2.367868 -3.820886 3.042086 0
M  V30 31 C 2.064904 -5.089946 3.671501 0
M  V30 32 O 1.257340 -5.143761 4.631757 0
M  V30 33 O 2.526142 -6.374784 3.406011 0
M  V30 34 H -1.411359 -1.207256 6.597214 0
M  V30 35 H -1.426507 -2.802010 5.844474 0
M  V30 36 H -0.197907 -2.525718 7.095798 0
M  V30 37 H -0.455085 -1.147843 4.370698 0
M  V30 38 H 0.865484 -0.832218 5.534050 0
M  V30 39 H 1.493854 -0.575407 3.349745 0
M  V30 40 H 3.969207 -0.027626 0.723590 0
M  V30 41 H 3.094375 0.803438 2.131811 0
M  V30 42 H 2.121112 2.031666 -0.342137 0
M  V30 43 H -0.326170 0.111621 -0.552341 0
M  V30 44 H -0.478981 3.121678 -1.109285 0
M  V30 45 H -1.873887 2.008694 -1.146737 0
M  V30 46 H -0.239213 2.786169 1.313615 0
M  V30 47 H -2.378058 3.611257 1.999174 0
M  V30 48 H -3.063700 3.370104 0.332805 0
M  V30 49 H -1.653393 4.517416 0.642970 0
M  V30 50 H -0.981712 0.358399 1.344236 0
M  V30 51 H -1.763990 1.463394 2.583717 0
M  V30 52 H -2.653758 0.938149 1.118421 0
M  V30 53 H 1.758258 2.327175 -2.508692 0
M  V30 54 H 2.185926 2.134310 -4.987861 0
M  V30 55 H 0.835796 0.470116 -6.169980 0
M  V30 56 H -0.809667 -0.929971 -5.128580 0
M  V30 57 H -1.381279 -3.017105 -2.303004 0
M  V30 58 H -0.240384 -2.108638 -1.304184 0
M  V30 59 H -1.940183 -1.562209 0.275364 0
M  V30 60 H -2.451339 -3.178392 -0.270979 0
M  V30 61 H -4.480094 -2.191964 -0.670209 0
M  V30 62 H -3.766516 -0.558305 -0.646346 0
M  V30 63 H -3.632186 -2.479725 -3.035996 0
M  V30 64 H -4.724748 -1.068774 -2.781135 0
M  V30 65 H -2.998070 0.492735 -2.608085 0
M  V30 66 H -2.806438 -0.474385 -4.118147 0
M  V30 67 H 4.199220 -2.356137 0.556308 0
M  V30 68 H 3.685208 -4.567787 1.651791 0
M  V30 69 H 1.887967 -7.152869 3.161217 0
M  V30 END ATOM
M  V30 BEGIN BOND
M  V30 1 1 1 2
M  V30 2 1 2 3
M  V30 3 1 3 4
M  V30 4 2 4 5
M  V30 5 1 5 6
M  V30 6 1 6 7
M  V30 7 1 7 8
M  V30 8 2 8 9
M  V30 9 1 8 10
M  V30 10 1 10 11
M  V30 11 1 11 12
M  V30 12 1 12 13
M  V30 13 1 13 14
M  V30 14 1 13 15
M  V30 15 1 11 16
M  V30 16 2 16 17
M  V30 17 1 17 18
M  V30 18 2 18 19
M  V30 19 1 19 20
M  V30 20 2 20 21
M  V30 21 1 21 22
M  V30 22 1 22 23
M  V30 23 1 23 24
M  V30 24 1 24 25
M  V30 25 1 25 26
M  V30 26 1 26 27
M  V30 27 2 6 28
M  V30 28 1 28 29
M  V30 29 2 29 30
M  V30 30 1 30 31
M  V30 31 2 31 32
M  V30 32 1 31 33
M  V30 33 1 30 4
M  V30 34 1 21 16
M  V30 35 1 27 22
M  V30 36 1 1 34
M  V30 37 1 1 35
M  V30 38 1 1 36
M  V30 39 1 2 37
M  V30 40 1 2 38
M  V30 41 1 5 39
M  V30 42 1 7 40
M  V30 43 1 7 41
M  V30 44 1 10 42
M  V30 45 1 11 43 CFG=1
M  V30 46 1 12 44
M  V30 47 1 12 45
M  V30 48 1 13 46
M  V30 49 1 14 47
M  V30 50 1 14 48
M  V30 51 1 14 49
M  V30 52 1 15 50
M  V30 53 1 15 51
M  V30 54 1 15 52
M  V30 55 1 17 53
M  V30 56 1 18 54
M  V30 57 1 19 55
M  V30 58 1 20 56
M  V30 59 1 23 57
M  V30 60 1 23 58
M  V30 61 1 24 59
M  V30 62 1 24 60
M  V30 63 1 25 61
M  V30 64 1 25 62
M  V30 65 1 26 63
M  V30 66 1 26 64
M  V30 67 1 27 65
M  V30 68 1 27 66
M  V30 69 1 28 67
M  V30 70 1 29 68
M  V30 71 1 33 69
M  V30 END BOND
M  V30 END CTAB
M  END
>  <Dataset>  (187) 
ChEMBL_Kinases

>  <Ligand_Instance>  (187) 
nan

>  <PDB_ID>  (187) 
nan

>  <Standardized_SMILES>  (187) 
CCOc1cc(CC(=O)N[C@@H](CC(C)C)c2ccccc2N2CCCCC2)ccc1C(=O)O

>  <Name>  (187) 
REPAGLINIDE

>  <Pocket>  (187) 
nan

>  <ATP_Site>  (187) 
nan

>  <Peripheral>  (187) 
nan

>  <Num_H_Atoms_ProtBoundConf>  (187) 
nan

>  <Num_Resolved_Atoms>  (187) 
nan

>  <Num_Not_Resolved_Atoms>  (187) 
nan

$$$$
CHEMBL1272020
     RDKit          3D

  0  0  0  0  0  0  0  0  0  0999 V3000
M  V30 BEGIN CTAB
M  V30 COUNTS 67 70 0 0 0
M  V30 BEGIN ATOM
M  V30 1 C 9.525888 -0.599985 2.338852 0
M  V30 2 C 9.016605 0.733052 1.823033 0
M  V30 3 N 7.574364 0.774263 1.705334 0
M  V30 4 C 6.675849 0.595494 2.786075 0
M  V30 5 O 7.150823 0.385570 3.940596 0
M  V30 6 C 5.221168 0.633350 2.678397 0
M  V30 7 C 4.490161 0.433609 3.830716 0
M  V30 8 C 3.089177 0.452461 3.808790 0
M  V30 9 C 2.478553 0.677462 2.595374 0
M  V30 10 C 3.161671 0.883075 1.414275 0
M  V30 11 C 4.549159 0.853827 1.494613 0
M  V30 12 N 2.237910 1.087027 0.333889 0
M  V30 13 C 0.910844 1.006676 0.854200 0
M  V30 14 O -0.121017 1.137718 0.183624 0
M  V30 15 C 1.056889 0.748437 2.280781 0
M  V30 16 C -0.011321 0.621453 3.038014 0
M  V30 17 N -1.387775 0.697310 2.692827 0
M  V30 18 C -2.253982 -0.290737 2.096918 0
M  V30 19 C -3.566429 0.030217 1.881545 0
M  V30 20 C -4.357162 -0.953891 1.308144 0
M  V30 21 C -3.806552 -2.155443 0.996418 0
M  V30 22 N -4.498263 -3.274987 0.412780 0
M  V30 23 C -4.911329 -4.007995 1.593431 0
M  V30 24 C -4.882328 -3.855845 -0.850918 0
M  V30 25 O -5.522595 -4.968455 -0.877773 0
M  V30 26 C -4.736700 -3.500014 -2.273525 0
M  V30 27 N -4.063941 -2.304766 -2.575898 0
M  V30 28 C -2.676358 -2.195711 -2.334775 0
M  V30 29 C -2.240751 -0.759416 -2.110227 0
M  V30 30 N -3.391827 0.121528 -2.269444 0
M  V30 31 C -2.936095 1.477079 -2.074645 0
M  V30 32 C -3.955308 -0.091727 -3.579655 0
M  V30 33 C -4.592772 -1.468121 -3.594162 0
M  V30 34 C -2.458265 -2.440221 1.234239 0
M  V30 35 C -1.625193 -1.477588 1.810411 0
M  V30 36 H 10.474734 -0.463597 2.923504 0
M  V30 37 H 9.620899 -1.371359 1.547008 0
M  V30 38 H 8.797603 -1.001460 3.063810 0
M  V30 39 H 9.403023 1.549161 2.472438 0
M  V30 40 H 9.446552 0.855934 0.810178 0
M  V30 41 H 7.111007 0.943849 0.787032 0
M  V30 42 H 4.906622 0.249065 4.829432 0
M  V30 43 H 2.508667 0.294072 4.724920 0
M  V30 44 H 5.089818 1.009749 0.593830 0
M  V30 45 H 2.539557 1.259007 -0.638687 0
M  V30 46 H 0.141544 0.427805 4.100393 0
M  V30 47 H -1.771814 1.658040 2.940292 0
M  V30 48 H -3.997040 0.985588 2.131728 0
M  V30 49 H -5.388514 -0.824646 1.093056 0
M  V30 50 H -4.060531 -4.339986 2.217633 0
M  V30 51 H -5.579047 -3.407544 2.266870 0
M  V30 52 H -5.527813 -4.907674 1.352860 0
M  V30 53 H -5.740228 -3.444856 -2.796011 0
M  V30 54 H -4.220666 -4.324200 -2.854932 0
M  V30 55 H -2.166276 -2.499392 -3.300155 0
M  V30 56 H -2.318785 -2.905767 -1.597772 0
M  V30 57 H -1.500858 -0.403378 -2.856075 0
M  V30 58 H -1.799079 -0.605423 -1.122744 0
M  V30 59 H -2.104253 1.779050 -2.739613 0
M  V30 60 H -3.773907 2.210169 -2.168553 0
M  V30 61 H -2.554097 1.523068 -1.027758 0
M  V30 62 H -4.765586 0.647459 -3.790630 0
M  V30 63 H -3.203503 -0.010476 -4.370963 0
M  V30 64 H -4.430909 -1.891763 -4.613490 0
M  V30 65 H -5.705005 -1.429243 -3.466017 0
M  V30 66 H -1.980998 -3.402096 0.993587 0
M  V30 67 H -0.583457 -1.664078 2.007351 0
M  V30 END ATOM
M  V30 BEGIN BOND
M  V30 1 1 1 2
M  V30 2 1 2 3
M  V30 3 1 3 4
M  V30 4 2 4 5
M  V30 5 1 4 6
M  V30 6 2 6 7
M  V30 7 1 7 8
M  V30 8 2 8 9
M  V30 9 1 9 10
M  V30 10 2 10 11
M  V30 11 1 10 12
M  V30 12 1 12 13
M  V30 13 2 13 14
M  V30 14 1 13 15
M  V30 15 2 15 16
M  V30 16 1 16 17
M  V30 17 1 17 18
M  V30 18 2 18 19
M  V30 19 1 19 20
M  V30 20 2 20 21
M  V30 21 1 21 22
M  V30 22 1 22 23
M  V30 23 1 22 24
M  V30 24 2 24 25
M  V30 25 1 24 26
M  V30 26 1 26 27
M  V30 27 1 27 28
M  V30 28 1 28 29
M  V30 29 1 29 30
M  V30 30 1 30 31
M  V30 31 1 30 32
M  V30 32 1 32 33
M  V30 33 1 21 34
M  V30 34 2 34 35
M  V30 35 1 11 6
M  V30 36 1 35 18
M  V30 37 1 15 9
M  V30 38 1 33 27
M  V30 39 1 1 36
M  V30 40 1 1 37
M  V30 41 1 1 38
M  V30 42 1 2 39
M  V30 43 1 2 40
M  V30 44 1 3 41
M  V30 45 1 7 42
M  V30 46 1 8 43
M  V30 47 1 11 44
M  V30 48 1 12 45
M  V30 49 1 16 46
M  V30 50 1 17 47
M  V30 51 1 19 48
M  V30 52 1 20 49
M  V30 53 1 23 50
M  V30 54 1 23 51
M  V30 55 1 23 52
M  V30 56 1 26 53
M  V30 57 1 26 54
M  V30 58 1 28 55
M  V30 59 1 28 56
M  V30 60 1 29 57
M  V30 61 1 29 58
M  V30 62 1 31 59
M  V30 63 1 31 60
M  V30 64 1 31 61
M  V30 65 1 32 62
M  V30 66 1 32 63
M  V30 67 1 33 64
M  V30 68 1 33 65
M  V30 69 1 34 66
M  V30 70 1 35 67
M  V30 END BOND
M  V30 END CTAB
M  END
>  <Dataset>  (188) 
ChEMBL_Kinases

>  <Ligand_Instance>  (188) 
nan

>  <PDB_ID>  (188) 
nan

>  <Standardized_SMILES>  (188) 
CCNC(=O)c1ccc2c(c1)NC(=O)/C2=C\Nc1ccc(N(C)C(=O)CN2CCN(C)CC2)cc1

>  <Name>  (188) 
nan

>  <Pocket>  (188) 
nan

>  <ATP_Site>  (188) 
nan

>  <Peripheral>  (188) 
nan

>  <Num_H_Atoms_ProtBoundConf>  (188) 
nan

>  <Num_Resolved_Atoms>  (188) 
nan

>  <Num_Not_Resolved_Atoms>  (188) 
nan

$$$$
CHEMBL1272021
     RDKit          3D

  0  0  0  0  0  0  0  0  0  0999 V3000
M  V30 BEGIN CTAB
M  V30 COUNTS 58 61 0 0 0
M  V30 BEGIN ATOM
M  V30 1 C 8.977195 -2.836006 -0.154450 0
M  V30 2 C 8.890442 -2.228103 1.226766 0
M  V30 3 N 7.531971 -1.848647 1.581143 0
M  V30 4 C 6.800854 -0.892423 0.805888 0
M  V30 5 O 7.477652 -0.452343 -0.178462 0
M  V30 6 C 5.427789 -0.473600 1.118297 0
M  V30 7 C 4.669259 -0.940605 2.189422 0
M  V30 8 C 3.388535 -0.449825 2.351519 0
M  V30 9 C 2.848074 0.484581 1.483934 0
M  V30 10 C 3.609895 0.954329 0.407270 0
M  V30 11 C 4.889474 0.457847 0.253176 0
M  V30 12 N 2.851900 1.908793 -0.351717 0
M  V30 13 C 1.566954 2.050706 0.261637 0
M  V30 14 O 0.601303 2.796889 -0.100798 0
M  V30 15 C 1.557539 1.160559 1.413269 0
M  V30 16 C 0.532210 1.008229 2.244423 0
M  V30 17 N -0.715668 1.718234 2.103422 0
M  V30 18 C -1.934739 1.032873 1.879899 0
M  V30 19 C -3.159351 1.662338 1.737352 0
M  V30 20 C -4.338659 0.975804 1.519601 0
M  V30 21 C -4.339815 -0.402625 1.433530 0
M  V30 22 C -5.513940 -1.279563 1.201936 0
M  V30 23 N -5.720869 -1.523423 -0.169476 0
M  V30 24 C -5.958728 -0.448344 -1.036684 0
M  V30 25 C -5.729803 -0.730888 -2.495405 0
M  V30 26 C -6.194532 -2.085045 -2.934321 0
M  V30 27 C -5.543693 -3.110745 -2.034904 0
M  V30 28 C -5.946659 -2.841151 -0.604556 0
M  V30 29 C -3.089697 -1.012287 1.581212 0
M  V30 30 C -1.902230 -0.348314 1.798772 0
M  V30 31 H 9.214749 -3.902961 -0.081269 0
M  V30 32 H 9.714046 -2.263888 -0.753862 0
M  V30 33 H 7.982522 -2.682083 -0.659935 0
M  V30 34 H 9.589467 -1.369895 1.311135 0
M  V30 35 H 9.226886 -2.974982 1.953112 0
M  V30 36 H 7.040063 -2.266257 2.422738 0
M  V30 37 H 5.134960 -1.658931 2.825384 0
M  V30 38 H 2.803564 -0.817331 3.187032 0
M  V30 39 H 5.446838 0.846154 -0.592073 0
M  V30 40 H 3.178465 2.412073 -1.201819 0
M  V30 41 H 0.699938 0.291857 3.062705 0
M  V30 42 H -0.652619 2.742662 2.176356 0
M  V30 43 H -3.169675 2.740476 1.803171 0
M  V30 44 H -5.287627 1.454497 1.410367 0
M  V30 45 H -6.392955 -0.889440 1.752094 0
M  V30 46 H -5.302210 -2.272051 1.690546 0
M  V30 47 H -7.020580 -0.123756 -0.915856 0
M  V30 48 H -5.333630 0.425219 -0.746137 0
M  V30 49 H -4.638978 -0.682864 -2.727217 0
M  V30 50 H -6.222179 0.022801 -3.138707 0
M  V30 51 H -7.289374 -2.216803 -2.956689 0
M  V30 52 H -5.804501 -2.266950 -3.955257 0
M  V30 53 H -4.451373 -3.085484 -2.149480 0
M  V30 54 H -5.914915 -4.108194 -2.341321 0
M  V30 55 H -5.332111 -3.523617 0.031227 0
M  V30 56 H -7.001223 -3.171656 -0.474864 0
M  V30 57 H -3.026110 -2.100649 1.522840 0
M  V30 58 H -0.979492 -0.903043 1.901350 0
M  V30 END ATOM
M  V30 BEGIN BOND
M  V30 1 1 1 2
M  V30 2 1 2 3
M  V30 3 1 3 4
M  V30 4 2 4 5
M  V30 5 1 4 6
M  V30 6 2 6 7
M  V30 7 1 7 8
M  V30 8 2 8 9
M  V30 9 1 9 10
M  V30 10 2 10 11
M  V30 11 1 10 12
M  V30 12 1 12 13
M  V30 13 2 13 14
M  V30 14 1 13 15
M  V30 15 2 15 16
M  V30 16 1 16 17
M  V30 17 1 17 18
M  V30 18 2 18 19
M  V30 19 1 19 20
M  V30 20 2 20 21
M  V30 21 1 21 22
M  V30 22 1 22 23
M  V30 23 1 23 24
M  V30 24 1 24 25
M  V30 25 1 25 26
M  V30 26 1 26 27
M  V30 27 1 27 28
M  V30 28 1 21 29
M  V30 29 2 29 30
M  V30 30 1 11 6
M  V30 31 1 30 18
M  V30 32 1 15 9
M  V30 33 1 28 23
M  V30 34 1 1 31
M  V30 35 1 1 32
M  V30 36 1 1 33
M  V30 37 1 2 34
M  V30 38 1 2 35
M  V30 39 1 3 36
M  V30 40 1 7 37
M  V30 41 1 8 38
M  V30 42 1 11 39
M  V30 43 1 12 40
M  V30 44 1 16 41
M  V30 45 1 17 42
M  V30 46 1 19 43
M  V30 47 1 20 44
M  V30 48 1 22 45
M  V30 49 1 22 46
M  V30 50 1 24 47
M  V30 51 1 24 48
M  V30 52 1 25 49
M  V30 53 1 25 50
M  V30 54 1 26 51
M  V30 55 1 26 52
M  V30 56 1 27 53
M  V30 57 1 27 54
M  V30 58 1 28 55
M  V30 59 1 28 56
M  V30 60 1 29 57
M  V30 61 1 30 58
M  V30 END BOND
M  V30 END CTAB
M  END
>  <Dataset>  (189) 
ChEMBL_Kinases

>  <Ligand_Instance>  (189) 
nan

>  <PDB_ID>  (189) 
nan

>  <Standardized_SMILES>  (189) 
CCNC(=O)c1ccc2c(c1)NC(=O)/C2=C\Nc1ccc(CN2CCCCC2)cc1

>  <Name>  (189) 
nan

>  <Pocket>  (189) 
nan

>  <ATP_Site>  (189) 
nan

>  <Peripheral>  (189) 
nan

>  <Num_H_Atoms_ProtBoundConf>  (189) 
nan

>  <Num_Resolved_Atoms>  (189) 
nan

>  <Num_Not_Resolved_Atoms>  (189) 
nan

$$$$
CHEMBL1272076
     RDKit          3D

  0  0  0  0  0  0  0  0  0  0999 V3000
M  V30 BEGIN CTAB
M  V30 COUNTS 58 60 0 0 0
M  V30 BEGIN ATOM
M  V30 1 C 5.734096 -3.258452 5.241322 0
M  V30 2 C 6.537800 -2.656376 4.111549 0
M  V30 3 N 5.605967 -2.023193 3.176894 0
M  V30 4 C 4.764490 -0.982883 3.617637 0
M  V30 5 O 4.927908 -0.710462 4.839388 0
M  V30 6 C 3.814721 -0.306026 2.744583 0
M  V30 7 C 3.653437 -0.604738 1.394229 0
M  V30 8 C 2.711003 0.110948 0.657304 0
M  V30 9 C 1.920843 1.105891 1.186796 0
M  V30 10 C 2.085362 1.396464 2.523221 0
M  V30 11 C 3.020848 0.694971 3.281045 0
M  V30 12 N 1.166594 2.452357 2.844760 0
M  V30 13 C 0.436671 2.794521 1.655888 0
M  V30 14 O -0.443979 3.676251 1.585236 0
M  V30 15 C 0.897311 1.951723 0.583835 0
M  V30 16 C 0.476554 1.952712 -0.674633 0
M  V30 17 N -0.551115 2.854700 -1.126238 0
M  V30 18 C -1.619325 1.920328 -1.341728 0
M  V30 19 C -2.533431 1.596890 -0.361455 0
M  V30 20 C -3.521479 0.671981 -0.698428 0
M  V30 21 C -3.589551 0.093672 -1.971385 0
M  V30 22 N -4.703686 -0.795201 -1.999461 0
M  V30 23 C -5.881629 -0.090406 -2.465132 0
M  V30 24 C -4.898614 -2.184623 -1.675588 0
M  V30 25 O -6.048826 -2.728624 -1.812296 0
M  V30 26 C -4.063656 -3.274566 -1.176874 0
M  V30 27 N -2.669298 -2.903919 -0.937204 0
M  V30 28 C -2.039242 -4.113811 -0.372079 0
M  V30 29 C -2.065308 -2.800761 -2.278763 0
M  V30 30 C -2.653692 0.446837 -2.921554 0
M  V30 31 C -1.675049 1.358778 -2.598208 0
M  V30 32 H 4.698736 -3.415972 4.887007 0
M  V30 33 H 6.143354 -4.236798 5.567150 0
M  V30 34 H 5.697251 -2.534270 6.080329 0
M  V30 35 H 7.310756 -1.951079 4.455770 0
M  V30 36 H 7.061043 -3.491531 3.576928 0
M  V30 37 H 5.572146 -2.354670 2.170747 0
M  V30 38 H 4.261396 -1.379704 0.959884 0
M  V30 39 H 2.628828 -0.162186 -0.382127 0
M  V30 40 H 3.135577 0.941799 4.341226 0
M  V30 41 H 1.048338 2.896626 3.784510 0
M  V30 42 H 0.974482 1.224197 -1.306689 0
M  V30 43 H -0.601948 3.882081 -1.281655 0
M  V30 44 H -2.441817 2.067226 0.602697 0
M  V30 45 H -4.188677 0.494990 0.161044 0
M  V30 46 H -6.785178 -0.555651 -2.013648 0
M  V30 47 H -5.901436 0.960142 -2.178488 0
M  V30 48 H -5.923713 -0.141492 -3.584323 0
M  V30 49 H -4.046589 -4.097275 -1.952177 0
M  V30 50 H -4.406836 -3.720291 -0.222774 0
M  V30 51 H -2.373634 -5.010139 -0.932310 0
M  V30 52 H -2.358632 -4.205420 0.685603 0
M  V30 53 H -0.933303 -3.978501 -0.373705 0
M  V30 54 H -1.687433 -3.777422 -2.633090 0
M  V30 55 H -1.224433 -2.096770 -2.273594 0
M  V30 56 H -2.856335 -2.500999 -3.005569 0
M  V30 57 H -2.848188 -0.087960 -3.844882 0
M  V30 58 H -1.004874 1.548235 -3.433261 0
M  V30 END ATOM
M  V30 BEGIN BOND
M  V30 1 1 1 2
M  V30 2 1 2 3
M  V30 3 1 3 4
M  V30 4 2 4 5
M  V30 5 1 4 6
M  V30 6 2 6 7
M  V30 7 1 7 8
M  V30 8 2 8 9
M  V30 9 1 9 10
M  V30 10 2 10 11
M  V30 11 1 10 12
M  V30 12 1 12 13
M  V30 13 2 13 14
M  V30 14 1 13 15
M  V30 15 2 15 16
M  V30 16 1 16 17
M  V30 17 1 17 18
M  V30 18 2 18 19
M  V30 19 1 19 20
M  V30 20 2 20 21
M  V30 21 1 21 22
M  V30 22 1 22 23
M  V30 23 1 22 24
M  V30 24 2 24 25
M  V30 25 1 24 26
M  V30 26 1 26 27
M  V30 27 1 27 28
M  V30 28 1 27 29
M  V30 29 1 21 30
M  V30 30 2 30 31
M  V30 31 1 11 6
M  V30 32 1 31 18
M  V30 33 1 15 9
M  V30 34 1 1 32
M  V30 35 1 1 33
M  V30 36 1 1 34
M  V30 37 1 2 35
M  V30 38 1 2 36
M  V30 39 1 3 37
M  V30 40 1 7 38
M  V30 41 1 8 39
M  V30 42 1 11 40
M  V30 43 1 12 41
M  V30 44 1 16 42
M  V30 45 1 17 43
M  V30 46 1 19 44
M  V30 47 1 20 45
M  V30 48 1 23 46
M  V30 49 1 23 47
M  V30 50 1 23 48
M  V30 51 1 26 49
M  V30 52 1 26 50
M  V30 53 1 28 51
M  V30 54 1 28 52
M  V30 55 1 28 53
M  V30 56 1 29 54
M  V30 57 1 29 55
M  V30 58 1 29 56
M  V30 59 1 30 57
M  V30 60 1 31 58
M  V30 END BOND
M  V30 END CTAB
M  END
>  <Dataset>  (190) 
ChEMBL_Kinases

>  <Ligand_Instance>  (190) 
nan

>  <PDB_ID>  (190) 
nan

>  <Standardized_SMILES>  (190) 
CCNC(=O)c1ccc2c(c1)NC(=O)/C2=C\Nc1ccc(N(C)C(=O)CN(C)C)cc1

>  <Name>  (190) 
nan

>  <Pocket>  (190) 
nan

>  <ATP_Site>  (190) 
nan

>  <Peripheral>  (190) 
nan

>  <Num_H_Atoms_ProtBoundConf>  (190) 
nan

>  <Num_Resolved_Atoms>  (190) 
nan

>  <Num_Not_Resolved_Atoms>  (190) 
nan

$$$$
CHEMBL1272078
     RDKit          3D

  0  0  0  0  0  0  0  0  0  0999 V3000
M  V30 BEGIN CTAB
M  V30 COUNTS 68 72 0 0 0
M  V30 BEGIN ATOM
M  V30 1 C 5.064898 -2.307964 4.387594 0
M  V30 2 N 4.347271 -1.744309 3.257366 0
M  V30 3 C 3.279791 -2.493059 2.598984 0
M  V30 4 C 4.809840 -0.464809 2.924521 0
M  V30 5 O 5.733162 -0.163624 3.713990 0
M  V30 6 C 4.323972 0.401513 1.848414 0
M  V30 7 C 5.295193 0.841185 0.936631 0
M  V30 8 C 4.940512 1.659155 -0.113382 0
M  V30 9 C 3.626582 2.034380 -0.251988 0
M  V30 10 C 2.647013 1.619303 0.624639 0
M  V30 11 C 3.028148 0.815330 1.650361 0
M  V30 12 C 1.423340 2.204971 0.191574 0
M  V30 13 C 0.300486 1.956392 0.792305 0
M  V30 14 N -0.878723 2.604572 0.283265 0
M  V30 15 C -1.764158 1.682950 -0.352412 0
M  V30 16 C -1.715862 1.379028 -1.693558 0
M  V30 17 C -2.554614 0.485597 -2.324069 0
M  V30 18 C -3.518952 -0.166162 -1.593407 0
M  V30 19 C -4.447361 -1.141414 -2.234656 0
M  V30 20 N -3.824905 -2.420269 -2.195722 0
M  V30 21 C -4.642564 -3.439131 -2.774677 0
M  V30 22 C -3.850072 -4.678607 -3.093306 0
M  V30 23 C -2.419580 -4.448506 -2.634868 0
M  V30 24 C -2.491914 -4.110865 -1.146249 0
M  V30 25 C -3.250478 -2.821123 -0.957532 0
M  V30 26 C -3.620968 0.092425 -0.248799 0
M  V30 27 C -2.760315 0.990902 0.325581 0
M  V30 28 C -0.065050 1.047788 1.857092 0
M  V30 29 C -0.605188 1.695066 2.974760 0
M  V30 30 C -1.088786 1.038015 4.101123 0
M  V30 31 C -1.032465 -0.335588 4.118004 0
M  V30 32 C -0.512678 -1.017995 3.049223 0
M  V30 33 C -0.038972 -0.353760 1.942816 0
M  V30 34 C 1.700834 2.994804 -0.980035 0
M  V30 35 O 0.896523 3.666499 -1.653001 0
M  V30 36 N 3.086229 2.884063 -1.255550 0
M  V30 37 H 4.539491 -3.241124 4.690335 0
M  V30 38 H 5.157431 -1.563906 5.185790 0
M  V30 39 H 6.077029 -2.608369 4.024868 0
M  V30 40 H 3.554000 -2.655472 1.544954 0
M  V30 41 H 3.167313 -3.477148 3.137499 0
M  V30 42 H 2.330047 -1.960792 2.688074 0
M  V30 43 H 6.330753 0.553852 1.030118 0
M  V30 44 H 5.697124 1.979428 -0.790469 0
M  V30 45 H 2.430372 0.422584 2.434169 0
M  V30 46 H -1.145822 3.621086 0.323943 0
M  V30 47 H -0.998175 1.835228 -2.340778 0
M  V30 48 H -2.493442 0.266384 -3.380113 0
M  V30 49 H -5.458961 -1.098138 -1.782129 0
M  V30 50 H -4.580245 -0.801916 -3.286813 0
M  V30 51 H -5.122217 -3.052330 -3.703723 0
M  V30 52 H -5.457424 -3.669722 -2.038368 0
M  V30 53 H -4.268514 -5.531244 -2.498381 0
M  V30 54 H -3.881858 -4.954982 -4.170559 0
M  V30 55 H -2.056310 -3.519902 -3.137439 0
M  V30 56 H -1.791943 -5.322336 -2.810900 0
M  V30 57 H -2.971790 -4.975707 -0.650942 0
M  V30 58 H -1.423406 -4.023688 -0.808060 0
M  V30 59 H -2.504541 -2.066126 -0.608983 0
M  V30 60 H -4.037815 -3.020320 -0.187010 0
M  V30 61 H -4.380303 -0.430313 0.291990 0
M  V30 62 H -2.911133 1.134339 1.373737 0
M  V30 63 H -0.688051 2.788135 3.047630 0
M  V30 64 H -1.499160 1.578288 4.942117 0
M  V30 65 H -1.395952 -0.869616 4.972689 0
M  V30 66 H -0.438740 -2.083225 2.993442 0
M  V30 67 H 0.399502 -0.766304 1.021975 0
M  V30 68 H 3.585330 3.345745 -2.048927 0
M  V30 END ATOM
M  V30 BEGIN BOND
M  V30 1 1 1 2
M  V30 2 1 2 3
M  V30 3 1 2 4
M  V30 4 2 4 5
M  V30 5 1 4 6
M  V30 6 2 6 7
M  V30 7 1 7 8
M  V30 8 2 8 9
M  V30 9 1 9 10
M  V30 10 2 10 11
M  V30 11 1 10 12
M  V30 12 2 12 13
M  V30 13 1 13 14
M  V30 14 1 14 15
M  V30 15 2 15 16
M  V30 16 1 16 17
M  V30 17 2 17 18
M  V30 18 1 18 19
M  V30 19 1 19 20
M  V30 20 1 20 21
M  V30 21 1 21 22
M  V30 22 1 22 23
M  V30 23 1 23 24
M  V30 24 1 24 25
M  V30 25 1 18 26
M  V30 26 2 26 27
M  V30 27 1 13 28
M  V30 28 2 28 29
M  V30 29 1 29 30
M  V30 30 2 30 31
M  V30 31 1 31 32
M  V30 32 2 32 33
M  V30 33 1 12 34
M  V30 34 2 34 35
M  V30 35 1 34 36
M  V30 36 1 11 6
M  V30 37 1 27 15
M  V30 38 1 33 28
M  V30 39 1 36 9
M  V30 40 1 25 20
M  V30 41 1 1 37
M  V30 42 1 1 38
M  V30 43 1 1 39
M  V30 44 1 3 40
M  V30 45 1 3 41
M  V30 46 1 3 42
M  V30 47 1 7 43
M  V30 48 1 8 44
M  V30 49 1 11 45
M  V30 50 1 14 46
M  V30 51 1 16 47
M  V30 52 1 17 48
M  V30 53 1 19 49
M  V30 54 1 19 50
M  V30 55 1 21 51
M  V30 56 1 21 52
M  V30 57 1 22 53
M  V30 58 1 22 54
M  V30 59 1 23 55
M  V30 60 1 23 56
M  V30 61 1 24 57
M  V30 62 1 24 58
M  V30 63 1 25 59
M  V30 64 1 25 60
M  V30 65 1 26 61
M  V30 66 1 27 62
M  V30 67 1 29 63
M  V30 68 1 30 64
M  V30 69 1 31 65
M  V30 70 1 32 66
M  V30 71 1 33 67
M  V30 72 1 36 68
M  V30 END BOND
M  V30 END CTAB
M  END
>  <Dataset>  (191) 
ChEMBL_Kinases

>  <Ligand_Instance>  (191) 
nan

>  <PDB_ID>  (191) 
nan

>  <Standardized_SMILES>  (191) 
CN(C)C(=O)c1ccc2c(c1)/C(=C(/Nc1ccc(CN3CCCCC3)cc1)c1ccccc1)C(=O)N2

>  <Name>  (191) 
nan

>  <Pocket>  (191) 
nan

>  <ATP_Site>  (191) 
nan

>  <Peripheral>  (191) 
nan

>  <Num_H_Atoms_ProtBoundConf>  (191) 
nan

>  <Num_Resolved_Atoms>  (191) 
nan

>  <Num_Not_Resolved_Atoms>  (191) 
nan

$$$$
CHEMBL1272116
     RDKit          3D

  0  0  0  0  0  0  0  0  0  0999 V3000
M  V30 BEGIN CTAB
M  V30 COUNTS 60 63 0 0 0
M  V30 BEGIN ATOM
M  V30 1 C 2.048832 -0.201404 3.952863 0
M  V30 2 C 3.492868 -0.075323 3.470699 0
M  V30 3 C 4.394052 -0.973038 4.288770 0
M  V30 4 C 3.911045 1.344920 3.593673 0
M  V30 5 N 4.489061 1.844749 4.693933 0
M  V30 6 N 4.747164 3.147140 4.496481 0
M  V30 7 C 4.322683 3.478255 3.242903 0
M  V30 8 Cl 4.400746 5.039750 2.438529 0
M  V30 9 C 3.780264 2.346988 2.633037 0
M  V30 10 C 3.194426 2.169314 1.309639 0
M  V30 11 C 4.061778 1.800056 0.302262 0
M  V30 12 C 3.580851 1.611740 -0.978207 0
M  V30 13 N 2.270882 1.799300 -1.188525 0
M  V30 14 C 1.410896 2.158371 -0.223099 0
M  V30 15 N 0.034580 2.334485 -0.536662 0
M  V30 16 C -0.810547 1.198730 -0.399835 0
M  V30 17 C -0.277608 -0.000222 0.024576 0
M  V30 18 C -1.056976 -1.127679 0.172021 0
M  V30 19 C -2.408600 -1.120906 -0.095474 0
M  V30 20 N -3.289166 -2.229929 0.030133 0
M  V30 21 C -4.693760 -2.244188 -0.312429 0
M  V30 22 C -4.856730 -3.267672 -1.416604 0
M  V30 23 C -3.544605 -3.867415 -1.847820 0
M  V30 24 N -2.719666 -2.885928 -2.520349 0
M  V30 25 C -1.448160 -3.443866 -2.937854 0
M  V30 26 C -3.396916 -2.494777 -3.754433 0
M  V30 27 C -2.871969 -4.467664 -0.650674 0
M  V30 28 C -2.860446 -3.518203 0.534932 0
M  V30 29 C -2.875438 0.101473 -0.513179 0
M  V30 30 N -2.125415 1.205959 -0.660225 0
M  V30 31 N 1.896120 2.338299 1.021735 0
M  V30 32 H 1.793632 0.670822 4.610767 0
M  V30 33 H 1.353892 -0.334601 3.111380 0
M  V30 34 H 1.916090 -1.096610 4.624529 0
M  V30 35 H 3.560241 -0.336996 2.413858 0
M  V30 36 H 4.943748 -1.643819 3.599154 0
M  V30 37 H 5.091626 -0.394203 4.935150 0
M  V30 38 H 3.745729 -1.637057 4.905692 0
M  V30 39 H 5.195501 3.829655 5.161898 0
M  V30 40 H 5.119208 1.654487 0.498059 0
M  V30 41 H 4.280906 1.320214 -1.761026 0
M  V30 42 H -0.425926 3.229893 -0.862989 0
M  V30 43 H 0.790453 -0.081338 0.256285 0
M  V30 44 H -0.601193 -2.045859 0.505130 0
M  V30 45 H -5.238963 -2.623198 0.600673 0
M  V30 46 H -5.125520 -1.277344 -0.557901 0
M  V30 47 H -5.424245 -2.807111 -2.229160 0
M  V30 48 H -5.486509 -4.128894 -1.057544 0
M  V30 49 H -3.776416 -4.682927 -2.555844 0
M  V30 50 H -1.565279 -4.282581 -3.646293 0
M  V30 51 H -0.950378 -2.624866 -3.535559 0
M  V30 52 H -0.746870 -3.635871 -2.105735 0
M  V30 53 H -4.240535 -1.824190 -3.567264 0
M  V30 54 H -3.727116 -3.433569 -4.247920 0
M  V30 55 H -2.628909 -1.975209 -4.390584 0
M  V30 56 H -3.458148 -5.358741 -0.345960 0
M  V30 57 H -1.841899 -4.802649 -0.839690 0
M  V30 58 H -1.880406 -3.504492 1.022186 0
M  V30 59 H -3.612109 -3.824495 1.322544 0
M  V30 60 H -3.904180 0.305270 -0.769784 0
M  V30 END ATOM
M  V30 BEGIN BOND
M  V30 1 1 1 2
M  V30 2 1 2 3
M  V30 3 1 2 4
M  V30 4 2 4 5
M  V30 5 1 5 6
M  V30 6 1 6 7
M  V30 7 1 7 8
M  V30 8 2 7 9
M  V30 9 1 9 10
M  V30 10 2 10 11
M  V30 11 1 11 12
M  V30 12 2 12 13
M  V30 13 1 13 14
M  V30 14 1 14 15
M  V30 15 1 15 16
M  V30 16 2 16 17
M  V30 17 1 17 18
M  V30 18 2 18 19
M  V30 19 1 19 20
M  V30 20 1 20 21
M  V30 21 1 21 22
M  V30 22 1 22 23
M  V30 23 1 23 24
M  V30 24 1 24 25
M  V30 25 1 24 26
M  V30 26 1 23 27
M  V30 27 1 27 28
M  V30 28 1 19 29
M  V30 29 2 29 30
M  V30 30 2 14 31
M  V30 31 1 9 4
M  V30 32 1 31 10
M  V30 33 1 30 16
M  V30 34 1 28 20
M  V30 35 1 1 32
M  V30 36 1 1 33
M  V30 37 1 1 34
M  V30 38 1 2 35
M  V30 39 1 3 36
M  V30 40 1 3 37
M  V30 41 1 3 38
M  V30 42 1 6 39
M  V30 43 1 11 40
M  V30 44 1 12 41
M  V30 45 1 15 42
M  V30 46 1 17 43
M  V30 47 1 18 44
M  V30 48 1 21 45
M  V30 49 1 21 46
M  V30 50 1 22 47
M  V30 51 1 22 48
M  V30 52 1 23 49
M  V30 53 1 25 50
M  V30 54 1 25 51
M  V30 55 1 25 52
M  V30 56 1 26 53
M  V30 57 1 26 54
M  V30 58 1 26 55
M  V30 59 1 27 56
M  V30 60 1 27 57
M  V30 61 1 28 58
M  V30 62 1 28 59
M  V30 63 1 29 60
M  V30 END BOND
M  V30 END CTAB
M  END
>  <Dataset>  (192) 
ChEMBL_Kinases

>  <Ligand_Instance>  (192) 
nan

>  <PDB_ID>  (192) 
nan

>  <Standardized_SMILES>  (192) 
CC(C)c1n[nH]c(Cl)c1-c1ccnc(Nc2ccc(N3CCC(N(C)C)CC3)cn2)n1

>  <Name>  (192) 
nan

>  <Pocket>  (192) 
nan

>  <ATP_Site>  (192) 
nan

>  <Peripheral>  (192) 
nan

>  <Num_H_Atoms_ProtBoundConf>  (192) 
nan

>  <Num_Resolved_Atoms>  (192) 
nan

>  <Num_Not_Resolved_Atoms>  (192) 
nan

$$$$
CHEMBL1272128
     RDKit          3D

  0  0  0  0  0  0  0  0  0  0999 V3000
M  V30 BEGIN CTAB
M  V30 COUNTS 72 75 0 0 0
M  V30 BEGIN ATOM
M  V30 1 C 7.187001 2.788776 5.747925 0
M  V30 2 C 7.165662 1.296194 5.687018 0
M  V30 3 N 6.772167 0.771479 4.417284 0
M  V30 4 C 5.584207 0.962950 3.768153 0
M  V30 5 O 5.247326 1.693407 4.803920 0
M  V30 6 C 4.474171 0.999245 2.900502 0
M  V30 7 C 4.725827 0.220037 1.781314 0
M  V30 8 C 3.817928 0.057821 0.724620 0
M  V30 9 C 2.644921 0.749451 0.902908 0
M  V30 10 C 2.403490 1.510593 1.997683 0
M  V30 11 C 3.288464 1.668568 3.028920 0
M  V30 12 N 1.132004 2.161963 1.987467 0
M  V30 13 C 0.514433 1.776298 0.773212 0
M  V30 14 O -0.602602 2.070934 0.284418 0
M  V30 15 C 1.453999 0.894763 0.093517 0
M  V30 16 C 1.246419 0.291703 -1.059203 0
M  V30 17 N 0.044088 0.501196 -1.788333 0
M  V30 18 C -1.278877 -0.015539 -1.715571 0
M  V30 19 C -2.165686 0.463775 -2.652211 0
M  V30 20 C -3.452796 -0.024898 -2.588058 0
M  V30 21 C -3.827481 -0.944919 -1.633220 0
M  V30 22 N -5.161646 -1.485653 -1.517215 0
M  V30 23 C -5.556761 -2.687434 -2.223044 0
M  V30 24 C -5.219801 -3.869657 -1.373789 0
M  V30 25 N -5.854371 -3.918539 -0.094173 0
M  V30 26 C -5.334417 -5.140089 0.553493 0
M  V30 27 C -7.290856 -4.138622 -0.160569 0
M  V30 28 S -5.965763 -0.407751 -0.452413 0
M  V30 29 C -5.987527 1.213280 -1.210847 0
M  V30 30 O -5.221942 -0.266139 0.845024 0
M  V30 31 O -7.368927 -0.905365 -0.227548 0
M  V30 32 C -2.920844 -1.427137 -0.684801 0
M  V30 33 C -1.608964 -0.934615 -0.744403 0
M  V30 34 C 2.111938 -0.674056 -1.714869 0
M  V30 35 C 2.017098 -1.998554 -1.246388 0
M  V30 36 C 2.852510 -2.869457 -1.912375 0
M  V30 37 C 3.723485 -2.572449 -2.940343 0
M  V30 38 C 3.730462 -1.245523 -3.314006 0
M  V30 39 C 2.949059 -0.273675 -2.733941 0
M  V30 40 H 6.275119 3.222034 6.224289 0
M  V30 41 H 7.404166 3.294150 4.793222 0
M  V30 42 H 8.023280 3.090797 6.438952 0
M  V30 43 H 8.199052 0.918499 5.910898 0
M  V30 44 H 6.442352 0.928029 6.465695 0
M  V30 45 H 7.155990 0.141190 3.606119 0
M  V30 46 H 5.653547 -0.356456 1.590688 0
M  V30 47 H 4.057158 -0.545566 -0.126578 0
M  V30 48 H 3.150656 2.252470 3.912821 0
M  V30 49 H 0.644475 2.795418 2.644799 0
M  V30 50 H 0.358739 1.202680 -2.480573 0
M  V30 51 H -1.885354 1.186954 -3.408396 0
M  V30 52 H -4.194612 0.315611 -3.302120 0
M  V30 53 H -6.604299 -2.661788 -2.552751 0
M  V30 54 H -4.950245 -2.709895 -3.158671 0
M  V30 55 H -4.137239 -4.012681 -1.234907 0
M  V30 56 H -5.556358 -4.799930 -1.916806 0
M  V30 57 H -4.257333 -4.905900 0.803061 0
M  V30 58 H -5.352968 -5.994162 -0.128550 0
M  V30 59 H -5.829653 -5.309138 1.531614 0
M  V30 60 H -7.796122 -3.589489 -0.960645 0
M  V30 61 H -7.450713 -5.216747 -0.363356 0
M  V30 62 H -7.667296 -3.940521 0.856585 0
M  V30 63 H -6.355767 1.174763 -2.249994 0
M  V30 64 H -4.930104 1.556237 -1.253990 0
M  V30 65 H -6.535281 1.921627 -0.564022 0
M  V30 66 H -3.183163 -2.149667 0.076358 0
M  V30 67 H -0.927001 -1.309218 -0.018106 0
M  V30 68 H 1.354213 -2.289638 -0.447217 0
M  V30 69 H 2.813786 -3.909392 -1.586464 0
M  V30 70 H 4.337714 -3.337159 -3.394246 0
M  V30 71 H 4.404843 -0.936544 -4.125037 0
M  V30 72 H 2.953290 0.762940 -3.022097 0
M  V30 END ATOM
M  V30 BEGIN BOND
M  V30 1 1 1 2
M  V30 2 1 2 3
M  V30 3 1 3 4
M  V30 4 2 4 5
M  V30 5 1 4 6
M  V30 6 2 6 7
M  V30 7 1 7 8
M  V30 8 2 8 9
M  V30 9 1 9 10
M  V30 10 2 10 11
M  V30 11 1 10 12
M  V30 12 1 12 13
M  V30 13 2 13 14
M  V30 14 1 13 15
M  V30 15 2 15 16
M  V30 16 1 16 17
M  V30 17 1 17 18
M  V30 18 2 18 19
M  V30 19 1 19 20
M  V30 20 2 20 21
M  V30 21 1 21 22
M  V30 22 1 22 23
M  V30 23 1 23 24
M  V30 24 1 24 25
M  V30 25 1 25 26
M  V30 26 1 25 27
M  V30 27 1 22 28
M  V30 28 1 28 29
M  V30 29 2 28 30
M  V30 30 2 28 31
M  V30 31 1 21 32
M  V30 32 2 32 33
M  V30 33 1 16 34
M  V30 34 2 34 35
M  V30 35 1 35 36
M  V30 36 2 36 37
M  V30 37 1 37 38
M  V30 38 2 38 39
M  V30 39 1 11 6
M  V30 40 1 33 18
M  V30 41 1 39 34
M  V30 42 1 15 9
M  V30 43 1 1 40
M  V30 44 1 1 41
M  V30 45 1 1 42
M  V30 46 1 2 43
M  V30 47 1 2 44
M  V30 48 1 3 45
M  V30 49 1 7 46
M  V30 50 1 8 47
M  V30 51 1 11 48
M  V30 52 1 12 49
M  V30 53 1 17 50
M  V30 54 1 19 51
M  V30 55 1 20 52
M  V30 56 1 23 53
M  V30 57 1 23 54
M  V30 58 1 24 55
M  V30 59 1 24 56
M  V30 60 1 26 57
M  V30 61 1 26 58
M  V30 62 1 26 59
M  V30 63 1 27 60
M  V30 64 1 27 61
M  V30 65 1 27 62
M  V30 66 1 29 63
M  V30 67 1 29 64
M  V30 68 1 29 65
M  V30 69 1 32 66
M  V30 70 1 33 67
M  V30 71 1 35 68
M  V30 72 1 36 69
M  V30 73 1 37 70
M  V30 74 1 38 71
M  V30 75 1 39 72
M  V30 END BOND
M  V30 END CTAB
M  END
>  <Dataset>  (193) 
ChEMBL_Kinases

>  <Ligand_Instance>  (193) 
nan

>  <PDB_ID>  (193) 
nan

>  <Standardized_SMILES>  (193) 
CCNC(=O)c1ccc2c(c1)NC(=O)/C2=C(\Nc1ccc(N(CCN(C)C)S(C)(=O)=O)cc1)c1ccccc1

>  <Name>  (193) 
nan

>  <Pocket>  (193) 
nan

>  <ATP_Site>  (193) 
nan

>  <Peripheral>  (193) 
nan

>  <Num_H_Atoms_ProtBoundConf>  (193) 
nan

>  <Num_Resolved_Atoms>  (193) 
nan

>  <Num_Not_Resolved_Atoms>  (193) 
nan

$$$$
CHEMBL1272140
     RDKit          3D

  0  0  0  0  0  0  0  0  0  0999 V3000
M  V30 BEGIN CTAB
M  V30 COUNTS 61 65 0 0 0
M  V30 BEGIN ATOM
M  V30 1 C 1.084059 -2.030660 5.395186 0
M  V30 2 N 1.522924 -1.374986 4.206306 0
M  V30 3 C 1.626315 -2.263841 3.068894 0
M  V30 4 C 1.636149 -1.469268 1.789526 0
M  V30 5 N 2.229232 -0.168298 2.040608 0
M  V30 6 C 1.824282 1.051563 1.442335 0
M  V30 7 C 2.501270 2.256897 1.533444 0
M  V30 8 C 2.076278 3.411794 0.940168 0
M  V30 9 C 0.917126 3.445327 0.196048 0
M  V30 10 O 0.520016 4.619809 -0.384052 0
M  V30 11 C 1.204979 5.828809 -0.291129 0
M  V30 12 F 0.469972 6.777011 -1.019277 0
M  V30 13 F 1.308311 6.263697 1.013953 0
M  V30 14 F 2.460999 5.698751 -0.872004 0
M  V30 15 C 0.196676 2.278011 0.067074 0
M  V30 16 N -1.017496 2.244853 -0.715630 0
M  V30 17 C -1.738002 0.999606 -0.772587 0
M  V30 18 N -2.941896 1.045524 -0.196742 0
M  V30 19 C -3.775545 -0.029273 -0.129936 0
M  V30 20 C -3.364533 -1.221568 -0.679682 0
M  V30 21 C -2.118145 -1.220887 -1.260713 0
M  V30 22 N -1.320203 -0.156049 -1.314121 0
M  V30 23 C -1.645467 -2.460562 -1.847083 0
M  V30 24 C -2.522560 -3.534778 -1.758501 0
M  V30 25 C -1.837136 -4.582906 -2.365920 0
M  V30 26 C -2.251821 -5.949147 -2.566780 0
M  V30 27 N -1.415757 -6.915031 -3.189302 0
M  V30 28 O -3.409656 -6.328342 -2.179598 0
M  V30 29 N -0.645717 -4.098132 -2.764378 0
M  V30 30 N -0.519240 -2.839030 -2.463319 0
M  V30 31 C 0.635927 -2.049565 -2.756219 0
M  V30 32 C -3.884094 -3.615087 -1.179794 0
M  V30 33 C -4.328290 -2.339181 -0.555327 0
M  V30 34 C 0.675227 1.144793 0.688380 0
M  V30 35 C 3.304607 -0.273458 3.002186 0
M  V30 36 C 2.647330 -0.509760 4.349245 0
M  V30 37 H 1.039148 -3.129040 5.213319 0
M  V30 38 H 0.031394 -1.679044 5.603426 0
M  V30 39 H 1.726612 -1.758474 6.255507 0
M  V30 40 H 2.430216 -3.002996 3.126985 0
M  V30 41 H 0.673881 -2.867089 3.064948 0
M  V30 42 H 2.348717 -1.996119 1.082427 0
M  V30 43 H 0.674143 -1.463009 1.291988 0
M  V30 44 H 3.410193 2.311270 2.093815 0
M  V30 45 H 2.653801 4.333820 1.047853 0
M  V30 46 H -1.305562 3.123401 -1.192658 0
M  V30 47 H -4.740129 0.101728 0.358098 0
M  V30 48 H -1.571862 -7.162800 -4.205061 0
M  V30 49 H -0.773981 -7.170294 -2.387331 0
M  V30 50 H 1.515184 -2.332272 -2.107429 0
M  V30 51 H 0.476965 -0.955737 -2.639900 0
M  V30 52 H 0.992924 -2.205493 -3.806324 0
M  V30 53 H -3.994094 -4.469172 -0.487423 0
M  V30 54 H -4.586278 -3.816379 -2.045248 0
M  V30 55 H -4.470270 -2.512519 0.545625 0
M  V30 56 H -5.314427 -2.000064 -0.942796 0
M  V30 57 H 0.061471 0.273283 0.549438 0
M  V30 58 H 3.926747 -1.164219 2.742176 0
M  V30 59 H 3.925896 0.632661 3.023537 0
M  V30 60 H 2.311829 0.480654 4.717107 0
M  V30 61 H 3.423547 -0.869349 5.062091 0
M  V30 END ATOM
M  V30 BEGIN BOND
M  V30 1 1 1 2
M  V30 2 1 2 3
M  V30 3 1 3 4
M  V30 4 1 4 5
M  V30 5 1 5 6
M  V30 6 2 6 7
M  V30 7 1 7 8
M  V30 8 2 8 9
M  V30 9 1 9 10
M  V30 10 1 10 11
M  V30 11 1 11 12
M  V30 12 1 11 13
M  V30 13 1 11 14
M  V30 14 1 9 15
M  V30 15 1 15 16
M  V30 16 1 16 17
M  V30 17 2 17 18
M  V30 18 1 18 19
M  V30 19 2 19 20
M  V30 20 1 20 21
M  V30 21 2 21 22
M  V30 22 1 21 23
M  V30 23 2 23 24
M  V30 24 1 24 25
M  V30 25 1 25 26
M  V30 26 1 26 27
M  V30 27 2 26 28
M  V30 28 2 25 29
M  V30 29 1 29 30
M  V30 30 1 30 31
M  V30 31 1 24 32
M  V30 32 1 32 33
M  V30 33 2 15 34
M  V30 34 1 5 35
M  V30 35 1 35 36
M  V30 36 1 36 2
M  V30 37 1 34 6
M  V30 38 1 22 17
M  V30 39 1 30 23
M  V30 40 1 33 20
M  V30 41 1 1 37
M  V30 42 1 1 38
M  V30 43 1 1 39
M  V30 44 1 3 40
M  V30 45 1 3 41
M  V30 46 1 4 42
M  V30 47 1 4 43
M  V30 48 1 7 44
M  V30 49 1 8 45
M  V30 50 1 16 46
M  V30 51 1 19 47
M  V30 52 1 27 48
M  V30 53 1 27 49
M  V30 54 1 31 50
M  V30 55 1 31 51
M  V30 56 1 31 52
M  V30 57 1 32 53
M  V30 58 1 32 54
M  V30 59 1 33 55
M  V30 60 1 33 56
M  V30 61 1 34 57
M  V30 62 1 35 58
M  V30 63 1 35 59
M  V30 64 1 36 60
M  V30 65 1 36 61
M  V30 END BOND
M  V30 END CTAB
M  END
>  <Dataset>  (194) 
ChEMBL_Kinases

>  <Ligand_Instance>  (194) 
nan

>  <PDB_ID>  (194) 
nan

>  <Standardized_SMILES>  (194) 
CN1CCN(c2ccc(OC(F)(F)F)c(Nc3ncc4c(n3)-c3c(c(C(N)=O)nn3C)CC4)c2)CC1

>  <Name>  (194) 
nan

>  <Pocket>  (194) 
nan

>  <ATP_Site>  (194) 
nan

>  <Peripheral>  (194) 
nan

>  <Num_H_Atoms_ProtBoundConf>  (194) 
nan

>  <Num_Resolved_Atoms>  (194) 
nan

>  <Num_Not_Resolved_Atoms>  (194) 
nan

$$$$
CHEMBL1271965
     RDKit          3D

  0  0  0  0  0  0  0  0  0  0999 V3000
M  V30 BEGIN CTAB
M  V30 COUNTS 64 66 0 0 0
M  V30 BEGIN ATOM
M  V30 1 C 9.215499 -0.120663 4.660867 0
M  V30 2 C 9.289979 0.497279 3.253305 0
M  V30 3 N 7.942452 0.903733 2.950788 0
M  V30 4 C 6.801644 1.634392 3.202579 0
M  V30 5 O 7.053109 2.318906 4.260809 0
M  V30 6 C 5.547084 1.683223 2.483838 0
M  V30 7 C 4.627187 2.550941 3.022969 0
M  V30 8 C 3.406071 2.638735 2.357593 0
M  V30 9 C 3.198682 1.870148 1.227657 0
M  V30 10 C 4.129770 1.004449 0.697887 0
M  V30 11 C 5.343380 0.918750 1.361918 0
M  V30 12 N 3.636951 0.352028 -0.475901 0
M  V30 13 C 2.336301 0.857765 -0.658334 0
M  V30 14 O 1.624896 0.477321 -1.618491 0
M  V30 15 C 2.018796 1.812732 0.386284 0
M  V30 16 C 0.846024 2.405700 0.406838 0
M  V30 17 N -0.275972 2.307057 -0.454388 0
M  V30 18 C -1.431429 1.477837 -0.538697 0
M  V30 19 C -2.373865 1.758911 0.460468 0
M  V30 20 C -3.556184 1.047640 0.502766 0
M  V30 21 C -3.897887 0.059255 -0.376609 0
M  V30 22 N -5.099783 -0.702160 -0.367218 0
M  V30 23 C -5.326204 -1.647511 -1.418734 0
M  V30 24 C -4.791367 -3.028092 -1.158188 0
M  V30 25 C -5.111243 -3.894226 -2.375760 0
M  V30 26 N -4.654895 -5.233983 -2.274134 0
M  V30 27 C -3.249456 -5.441590 -2.287749 0
M  V30 28 C -5.313087 -6.078618 -1.341109 0
M  V30 29 C -6.104467 -0.586227 0.627090 0
M  V30 30 C -7.351880 -1.383599 0.600480 0
M  V30 31 O -6.136737 0.167484 1.661488 0
M  V30 32 C -2.947220 -0.187517 -1.342809 0
M  V30 33 C -1.751187 0.487633 -1.435867 0
M  V30 34 H 10.053751 -0.788312 4.855929 0
M  V30 35 H 9.236596 0.730619 5.368308 0
M  V30 36 H 8.235907 -0.624151 4.832690 0
M  V30 37 H 9.705703 -0.261744 2.609775 0
M  V30 38 H 9.951890 1.389815 3.362242 0
M  V30 39 H 7.710159 0.351144 2.073635 0
M  V30 40 H 4.792824 3.146738 3.900267 0
M  V30 41 H 2.651018 3.289676 2.721576 0
M  V30 42 H 6.065064 0.250226 0.955268 0
M  V30 43 H 4.154154 -0.343376 -1.050361 0
M  V30 44 H 0.701713 3.103176 1.237565 0
M  V30 45 H -0.047626 3.081104 -1.110359 0
M  V30 46 H -2.201792 2.535016 1.219513 0
M  V30 47 H -4.239059 1.310260 1.292494 0
M  V30 48 H -6.443627 -1.688465 -1.598018 0
M  V30 49 H -4.938590 -1.318018 -2.421433 0
M  V30 50 H -3.661916 -3.010823 -1.123452 0
M  V30 51 H -5.168353 -3.531387 -0.275723 0
M  V30 52 H -4.523215 -3.419331 -3.209361 0
M  V30 53 H -6.192817 -3.891084 -2.625184 0
M  V30 54 H -3.049525 -6.527905 -2.404789 0
M  V30 55 H -2.811261 -5.048997 -1.350660 0
M  V30 56 H -2.771625 -4.867965 -3.111303 0
M  V30 57 H -5.263523 -7.131258 -1.750890 0
M  V30 58 H -4.825369 -6.108089 -0.351236 0
M  V30 59 H -6.407381 -5.879115 -1.262033 0
M  V30 60 H -7.199603 -2.389712 0.153359 0
M  V30 61 H -7.873736 -1.468129 1.561864 0
M  V30 62 H -8.056909 -0.792683 -0.056158 0
M  V30 63 H -3.021648 -0.927589 -2.125055 0
M  V30 64 H -0.995702 0.317247 -2.186394 0
M  V30 END ATOM
M  V30 BEGIN BOND
M  V30 1 1 1 2
M  V30 2 1 2 3
M  V30 3 1 3 4
M  V30 4 2 4 5
M  V30 5 1 4 6
M  V30 6 2 6 7
M  V30 7 1 7 8
M  V30 8 2 8 9
M  V30 9 1 9 10
M  V30 10 2 10 11
M  V30 11 1 10 12
M  V30 12 1 12 13
M  V30 13 2 13 14
M  V30 14 1 13 15
M  V30 15 2 15 16
M  V30 16 1 16 17
M  V30 17 1 17 18
M  V30 18 2 18 19
M  V30 19 1 19 20
M  V30 20 2 20 21
M  V30 21 1 21 22
M  V30 22 1 22 23
M  V30 23 1 23 24
M  V30 24 1 24 25
M  V30 25 1 25 26
M  V30 26 1 26 27
M  V30 27 1 26 28
M  V30 28 1 22 29
M  V30 29 1 29 30
M  V30 30 2 29 31
M  V30 31 1 21 32
M  V30 32 2 32 33
M  V30 33 1 11 6
M  V30 34 1 33 18
M  V30 35 1 15 9
M  V30 36 1 1 34
M  V30 37 1 1 35
M  V30 38 1 1 36
M  V30 39 1 2 37
M  V30 40 1 2 38
M  V30 41 1 3 39
M  V30 42 1 7 40
M  V30 43 1 8 41
M  V30 44 1 11 42
M  V30 45 1 12 43
M  V30 46 1 16 44
M  V30 47 1 17 45
M  V30 48 1 19 46
M  V30 49 1 20 47
M  V30 50 1 23 48
M  V30 51 1 23 49
M  V30 52 1 24 50
M  V30 53 1 24 51
M  V30 54 1 25 52
M  V30 55 1 25 53
M  V30 56 1 27 54
M  V30 57 1 27 55
M  V30 58 1 27 56
M  V30 59 1 28 57
M  V30 60 1 28 58
M  V30 61 1 28 59
M  V30 62 1 30 60
M  V30 63 1 30 61
M  V30 64 1 30 62
M  V30 65 1 32 63
M  V30 66 1 33 64
M  V30 END BOND
M  V30 END CTAB
M  END
>  <Dataset>  (195) 
ChEMBL_Kinases

>  <Ligand_Instance>  (195) 
nan

>  <PDB_ID>  (195) 
nan

>  <Standardized_SMILES>  (195) 
CCNC(=O)c1ccc2c(c1)NC(=O)/C2=C\Nc1ccc(N(CCCN(C)C)C(C)=O)cc1

>  <Name>  (195) 
nan

>  <Pocket>  (195) 
nan

>  <ATP_Site>  (195) 
nan

>  <Peripheral>  (195) 
nan

>  <Num_H_Atoms_ProtBoundConf>  (195) 
nan

>  <Num_Resolved_Atoms>  (195) 
nan

>  <Num_Not_Resolved_Atoms>  (195) 
nan

$$$$
CHEMBL129451
     RDKit          3D

  0  0  0  0  0  0  0  0  0  0999 V3000
M  V30 BEGIN CTAB
M  V30 COUNTS 50 53 0 0 0
M  V30 BEGIN ATOM
M  V30 1 O -0.445396 -2.513102 -0.937624 0
M  V30 2 C -0.442521 -2.648848 0.289064 0
M  V30 3 O 0.138955 -1.814519 1.197102 0
M  V30 4 C 0.852662 -0.630393 0.933621 0 CFG=2
M  V30 5 C 2.342414 -0.815306 1.261938 0
M  V30 6 C 3.007058 0.431287 0.799972 0
M  V30 7 C 4.143115 0.311263 -0.010107 0
M  V30 8 O 4.683077 -0.903032 -0.411571 0
M  V30 9 C 4.728969 1.495440 -0.410139 0
M  V30 10 C 4.225560 2.725032 -0.034440 0
M  V30 11 O 4.761212 3.953933 -0.398006 0
M  V30 12 C 3.103803 2.817530 0.765004 0
M  V30 13 C 2.492524 1.653185 1.183210 0
M  V30 14 O 1.373518 1.441710 1.975672 0
M  V30 15 C 0.292283 0.578886 1.582515 0 CFG=1
M  V30 16 C -0.581827 1.404688 0.744115 0
M  V30 17 C -1.173384 1.146428 -0.451931 0
M  V30 18 C -1.976060 2.029456 -1.120409 0
M  V30 19 C -2.226547 3.272974 -0.580003 0
M  V30 20 O -3.035972 4.205289 -1.221808 0
M  V30 21 C -1.653245 3.592076 0.632336 0
M  V30 22 O -1.900246 4.843264 1.184349 0
M  V30 23 C -0.850801 2.675424 1.274403 0
M  V30 24 C -1.151896 -3.849578 0.778906 0
M  V30 25 C -1.754702 -4.717377 -0.137581 0
M  V30 26 C -2.419500 -5.844434 0.336976 0
M  V30 27 O -3.023032 -6.717510 -0.543714 0
M  V30 28 C -2.472033 -6.085312 1.701057 0
M  V30 29 O -3.135851 -7.212321 2.188874 0
M  V30 30 C -1.887034 -5.247567 2.629023 0
M  V30 31 O -1.963560 -5.527025 3.991649 0
M  V30 32 C -1.234073 -4.135315 2.116781 0
M  V30 33 H 0.847760 -0.484919 -0.165640 0
M  V30 34 H 2.456621 -0.892518 2.362018 0
M  V30 35 H 2.728011 -1.687051 0.716481 0
M  V30 36 H 4.310273 -1.261143 -1.303795 0
M  V30 37 H 5.624625 1.525724 -1.046932 0
M  V30 38 H 4.259467 4.634030 -0.963437 0
M  V30 39 H 2.613119 3.710876 1.128779 0
M  V30 40 H -0.245121 0.383115 2.531753 0
M  V30 41 H -0.957465 0.166872 -0.847670 0
M  V30 42 H -2.407109 1.739708 -2.070264 0
M  V30 43 H -3.585121 3.892276 -2.013567 0
M  V30 44 H -2.722544 5.338211 0.921780 0
M  V30 45 H -0.437317 3.014287 2.232738 0
M  V30 46 H -1.721508 -4.542192 -1.199804 0
M  V30 47 H -3.434072 -6.353929 -1.380568 0
M  V30 48 H -3.114928 -8.085522 1.655935 0
M  V30 49 H -1.353803 -6.175386 4.462929 0
M  V30 50 H -0.776835 -3.480101 2.839292 0
M  V30 END ATOM
M  V30 BEGIN BOND
M  V30 1 2 1 2
M  V30 2 1 2 3
M  V30 3 1 3 4
M  V30 4 1 4 5
M  V30 5 1 5 6
M  V30 6 2 6 7
M  V30 7 1 7 8
M  V30 8 1 7 9
M  V30 9 2 9 10
M  V30 10 1 10 11
M  V30 11 1 10 12
M  V30 12 2 12 13
M  V30 13 1 13 14
M  V30 14 1 14 15
M  V30 15 1 15 16
M  V30 16 2 16 17
M  V30 17 1 17 18
M  V30 18 2 18 19
M  V30 19 1 19 20
M  V30 20 1 19 21
M  V30 21 1 21 22
M  V30 22 2 21 23
M  V30 23 1 2 24
M  V30 24 2 24 25
M  V30 25 1 25 26
M  V30 26 1 26 27
M  V30 27 2 26 28
M  V30 28 1 28 29
M  V30 29 1 28 30
M  V30 30 1 30 31
M  V30 31 2 30 32
M  V30 32 1 15 4
M  V30 33 1 23 16
M  V30 34 1 32 24
M  V30 35 1 13 6
M  V30 36 1 4 33 CFG=3
M  V30 37 1 5 34
M  V30 38 1 5 35
M  V30 39 1 8 36
M  V30 40 1 9 37
M  V30 41 1 11 38
M  V30 42 1 12 39
M  V30 43 1 15 40 CFG=1
M  V30 44 1 17 41
M  V30 45 1 18 42
M  V30 46 1 20 43
M  V30 47 1 22 44
M  V30 48 1 23 45
M  V30 49 1 25 46
M  V30 50 1 27 47
M  V30 51 1 29 48
M  V30 52 1 31 49
M  V30 53 1 32 50
M  V30 END BOND
M  V30 END CTAB
M  END
>  <Dataset>  (196) 
ChEMBL_Kinases

>  <Ligand_Instance>  (196) 
nan

>  <PDB_ID>  (196) 
nan

>  <Standardized_SMILES>  (196) 
O=C(O[C@@H]1Cc2c(O)cc(O)cc2O[C@H]1c1ccc(O)c(O)c1)c1cc(O)c(O)c(O)c1

>  <Name>  (196) 
(-)-CATECHINGALLATE

>  <Pocket>  (196) 
nan

>  <ATP_Site>  (196) 
nan

>  <Peripheral>  (196) 
nan

>  <Num_H_Atoms_ProtBoundConf>  (196) 
nan

>  <Num_Resolved_Atoms>  (196) 
nan

>  <Num_Not_Resolved_Atoms>  (196) 
nan

$$$$
CHEMBL1292
     RDKit          3D

  0  0  0  0  0  0  0  0  0  0999 V3000
M  V30 BEGIN CTAB
M  V30 COUNTS 55 59 0 0 0
M  V30 BEGIN ATOM
M  V30 1 C 3.216384 -0.935913 2.224353 0
M  V30 2 C 2.108907 -1.721704 2.871996 0
M  V30 3 C 1.375180 -0.972869 3.940590 0
M  V30 4 N 1.259248 -2.409796 1.936834 0
M  V30 5 C 0.468111 -1.884261 1.093180 0
M  V30 6 C 0.420065 -0.510122 1.073130 0
M  V30 7 C -0.387714 0.205987 0.215914 0
M  V30 8 N -0.458755 1.553317 0.170000 0
M  V30 9 C 0.342868 2.295192 1.053982 0
M  V30 10 C 1.455502 2.936692 0.543956 0
M  V30 11 C 2.286442 3.682853 1.358042 0
M  V30 12 C 1.991961 3.783120 2.701349 0
M  V30 13 Cl 2.969188 4.702423 3.845673 0
M  V30 14 C 0.873382 3.145897 3.248582 0
M  V30 15 C 0.057860 2.401304 2.394665 0
M  V30 16 C -1.301940 2.097124 -0.729464 0
M  V30 17 C -1.366986 3.489588 -0.767863 0
M  V30 18 C -2.206761 4.128367 -1.661463 0
M  V30 19 C -3.006864 3.423636 -2.542984 0
M  V30 20 C -2.934494 2.035343 -2.496568 0
M  V30 21 C -2.100242 1.391513 -1.609057 0
M  V30 22 N -2.027770 0.028789 -1.561961 0
M  V30 23 C -1.210541 -0.581143 -0.692092 0
M  V30 24 C -1.104165 -1.950175 -0.608495 0
M  V30 25 C -0.296788 -2.655301 0.247779 0
M  V30 26 N -0.170309 -4.056206 0.328785 0
M  V30 27 C -0.724093 -5.130783 -0.388940 0
M  V30 28 C -1.064942 -6.342128 0.210841 0
M  V30 29 C -1.590249 -7.428594 -0.437044 0
M  V30 30 C -1.804767 -7.334699 -1.785422 0
M  V30 31 Cl -2.475553 -8.723028 -2.606836 0
M  V30 32 C -1.501445 -6.189269 -2.457793 0
M  V30 33 C -0.976015 -5.140487 -1.734606 0
M  V30 34 H 3.248692 0.085368 2.674564 0
M  V30 35 H 4.230997 -1.353635 2.391327 0
M  V30 36 H 3.127135 -0.887714 1.105860 0
M  V30 37 H 2.632986 -2.562046 3.419814 0
M  V30 38 H 1.502629 -1.377373 4.966072 0
M  V30 39 H 1.790706 0.074628 4.017471 0
M  V30 40 H 0.272043 -0.958308 3.783135 0
M  V30 41 H 1.026220 0.082374 1.742651 0
M  V30 42 H 1.764485 2.913679 -0.497751 0
M  V30 43 H 3.172663 4.219183 1.065285 0
M  V30 44 H 0.597665 3.191987 4.292437 0
M  V30 45 H -0.817911 1.878540 2.716337 0
M  V30 46 H -0.764778 4.085426 -0.102888 0
M  V30 47 H -2.292130 5.211746 -1.728938 0
M  V30 48 H -3.681755 3.879883 -3.262441 0
M  V30 49 H -3.534720 1.412318 -3.160023 0
M  V30 50 H -1.737041 -2.483031 -1.286873 0
M  V30 51 H 0.471677 -4.448148 1.072041 0
M  V30 52 H -0.910062 -6.464725 1.293993 0
M  V30 53 H -1.829956 -8.336903 0.099014 0
M  V30 54 H -1.686127 -6.156913 -3.521281 0
M  V30 55 H -0.753043 -4.281942 -2.351621 0
M  V30 END ATOM
M  V30 BEGIN BOND
M  V30 1 1 1 2
M  V30 2 1 2 3
M  V30 3 1 2 4
M  V30 4 2 4 5
M  V30 5 1 5 6
M  V30 6 2 6 7
M  V30 7 1 7 8
M  V30 8 1 8 9
M  V30 9 2 9 10
M  V30 10 1 10 11
M  V30 11 2 11 12
M  V30 12 1 12 13
M  V30 13 1 12 14
M  V30 14 2 14 15
M  V30 15 1 8 16
M  V30 16 2 16 17
M  V30 17 1 17 18
M  V30 18 2 18 19
M  V30 19 1 19 20
M  V30 20 2 20 21
M  V30 21 1 21 22
M  V30 22 2 22 23
M  V30 23 1 23 24
M  V30 24 2 24 25
M  V30 25 1 25 26
M  V30 26 1 26 27
M  V30 27 2 27 28
M  V30 28 1 28 29
M  V30 29 2 29 30
M  V30 30 1 30 31
M  V30 31 1 30 32
M  V30 32 2 32 33
M  V30 33 1 25 5
M  V30 34 1 33 27
M  V30 35 1 23 7
M  V30 36 1 15 9
M  V30 37 1 21 16
M  V30 38 1 1 34
M  V30 39 1 1 35
M  V30 40 1 1 36
M  V30 41 1 2 37
M  V30 42 1 3 38
M  V30 43 1 3 39
M  V30 44 1 3 40
M  V30 45 1 6 41
M  V30 46 1 10 42
M  V30 47 1 11 43
M  V30 48 1 14 44
M  V30 49 1 15 45
M  V30 50 1 17 46
M  V30 51 1 18 47
M  V30 52 1 19 48
M  V30 53 1 20 49
M  V30 54 1 24 50
M  V30 55 1 26 51
M  V30 56 1 28 52
M  V30 57 1 29 53
M  V30 58 1 32 54
M  V30 59 1 33 55
M  V30 END BOND
M  V30 END CTAB
M  END
>  <Dataset>  (197) 
ChEMBL_Kinases

>  <Ligand_Instance>  (197) 
nan

>  <PDB_ID>  (197) 
nan

>  <Standardized_SMILES>  (197) 
CC(C)/N=c1\cc2n(-c3ccc(Cl)cc3)c3ccccc3nc-2cc1Nc1ccc(Cl)cc1

>  <Name>  (197) 
CLOFAZIMINE

>  <Pocket>  (197) 
nan

>  <ATP_Site>  (197) 
nan

>  <Peripheral>  (197) 
nan

>  <Num_H_Atoms_ProtBoundConf>  (197) 
nan

>  <Num_Resolved_Atoms>  (197) 
nan

>  <Num_Not_Resolved_Atoms>  (197) 
nan

$$$$
CHEMBL1290746
     RDKit          3D

  0  0  0  0  0  0  0  0  0  0999 V3000
M  V30 BEGIN CTAB
M  V30 COUNTS 48 51 0 0 0
M  V30 BEGIN ATOM
M  V30 1 C 1.803296 -0.148718 3.891417 0
M  V30 2 C 2.180332 0.704220 2.734878 0
M  V30 3 C 3.023541 1.776894 2.975979 0
M  V30 4 C 3.398606 2.599335 1.913595 0
M  V30 5 C 2.921699 2.325612 0.649411 0
M  V30 6 C 3.359059 3.230804 -0.407175 0
M  V30 7 O 4.124645 4.185761 -0.123295 0
M  V30 8 N 2.987505 3.130544 -1.775777 0
M  V30 9 C 3.582321 4.165886 -2.549520 0
M  V30 10 C 3.304486 5.465848 -2.967976 0
M  V30 11 C 4.401886 5.834525 -3.721406 0
M  V30 12 O 5.268845 4.849456 -3.758565 0
M  V30 13 N 4.799230 3.852090 -3.069042 0
M  V30 14 C 2.081375 1.268341 0.369396 0
M  V30 15 C 1.737788 0.485489 1.442324 0
M  V30 16 N 0.879744 -0.643033 1.322054 0
M  V30 17 C -0.522667 -0.783351 1.422465 0
M  V30 18 O -1.358656 0.133109 1.656578 0
M  V30 19 C -1.060086 -2.128269 1.235982 0
M  V30 20 C -0.402665 -3.313193 0.971099 0
M  V30 21 N -1.340113 -4.286473 0.884997 0
M  V30 22 N -2.545769 -3.765198 1.083075 0
M  V30 23 C -3.665995 -4.640702 1.030289 0
M  V30 24 C -4.779906 -4.386988 0.293289 0
M  V30 25 C -5.795383 -5.319956 0.330292 0
M  V30 26 C -5.797522 -6.498821 1.046939 0
M  V30 27 C -4.647737 -6.748905 1.800487 0
M  V30 28 C -3.621402 -5.826311 1.775481 0
M  V30 29 F -2.513227 -6.122102 2.535097 0
M  V30 30 C -2.393711 -2.447860 1.298989 0
M  V30 31 N -3.489209 -1.611796 1.542066 0
M  V30 32 H 1.057273 0.339981 4.534486 0
M  V30 33 H 1.378472 -1.130531 3.542169 0
M  V30 34 H 2.705987 -0.362845 4.498999 0
M  V30 35 H 3.388709 1.975171 3.982278 0
M  V30 36 H 4.059082 3.428136 2.141056 0
M  V30 37 H 2.354441 2.352218 -2.048878 0
M  V30 38 H 2.359703 5.856170 -2.628765 0
M  V30 39 H 4.367345 6.847096 -4.145502 0
M  V30 40 H 1.715920 1.060412 -0.605478 0
M  V30 41 H 1.491886 -1.471705 1.123141 0
M  V30 42 H 0.675490 -3.386997 0.862304 0
M  V30 43 H -4.859127 -3.488120 -0.295427 0
M  V30 44 H -6.699445 -5.119424 -0.264596 0
M  V30 45 H -6.616642 -7.184045 1.035793 0
M  V30 46 H -4.555547 -7.649293 2.396906 0
M  V30 47 H -4.029112 -0.858644 1.058885 0
M  V30 48 H -3.970721 -1.711032 2.473931 0
M  V30 END ATOM
M  V30 BEGIN BOND
M  V30 1 1 1 2
M  V30 2 2 2 3
M  V30 3 1 3 4
M  V30 4 2 4 5
M  V30 5 1 5 6
M  V30 6 2 6 7
M  V30 7 1 6 8
M  V30 8 1 8 9
M  V30 9 1 9 10
M  V30 10 2 10 11
M  V30 11 1 11 12
M  V30 12 1 12 13
M  V30 13 1 5 14
M  V30 14 2 14 15
M  V30 15 1 15 16
M  V30 16 1 16 17
M  V30 17 2 17 18
M  V30 18 1 17 19
M  V30 19 1 19 20
M  V30 20 2 20 21
M  V30 21 1 21 22
M  V30 22 1 22 23
M  V30 23 2 23 24
M  V30 24 1 24 25
M  V30 25 2 25 26
M  V30 26 1 26 27
M  V30 27 2 27 28
M  V30 28 1 28 29
M  V30 29 1 22 30
M  V30 30 1 30 31
M  V30 31 1 15 2
M  V30 32 2 30 19
M  V30 33 2 13 9
M  V30 34 1 28 23
M  V30 35 1 1 32
M  V30 36 1 1 33
M  V30 37 1 1 34
M  V30 38 1 3 35
M  V30 39 1 4 36
M  V30 40 1 8 37
M  V30 41 1 10 38
M  V30 42 1 11 39
M  V30 43 1 14 40
M  V30 44 1 16 41
M  V30 45 1 20 42
M  V30 46 1 24 43
M  V30 47 1 25 44
M  V30 48 1 26 45
M  V30 49 1 27 46
M  V30 50 1 31 47
M  V30 51 1 31 48
M  V30 END BOND
M  V30 END CTAB
M  END
>  <Dataset>  (198) 
ChEMBL_Kinases

>  <Ligand_Instance>  (198) 
nan

>  <PDB_ID>  (198) 
nan

>  <Standardized_SMILES>  (198) 
Cc1ccc(C(=O)Nc2ccon2)cc1NC(=O)c1cnn(-c2ccccc2F)c1N

>  <Name>  (198) 
nan

>  <Pocket>  (198) 
nan

>  <ATP_Site>  (198) 
nan

>  <Peripheral>  (198) 
nan

>  <Num_H_Atoms_ProtBoundConf>  (198) 
nan

>  <Num_Resolved_Atoms>  (198) 
nan

>  <Num_Not_Resolved_Atoms>  (198) 
nan

$$$$
CHEMBL1290745
     RDKit          3D

  0  0  0  0  0  0  0  0  0  0999 V3000
M  V30 BEGIN CTAB
M  V30 COUNTS 52 55 0 0 0
M  V30 BEGIN ATOM
M  V30 1 C 1.279195 -3.753833 2.823285 0
M  V30 2 C 1.880026 -2.381775 2.800071 0
M  V30 3 C 2.813857 -2.004729 3.766394 0
M  V30 4 C 3.327058 -0.717897 3.680962 0
M  V30 5 C 2.970418 0.193996 2.708975 0
M  V30 6 C 3.594674 1.513148 2.745614 0
M  V30 7 O 4.418138 1.741875 3.656958 0
M  V30 8 N 3.302253 2.524633 1.798037 0
M  V30 9 C 3.887858 3.825043 1.796462 0
M  V30 10 C 5.060315 4.107454 1.109060 0
M  V30 11 C 5.330817 5.454153 1.328258 0
M  V30 12 N 4.341555 5.917401 2.115063 0
M  V30 13 N 3.477176 4.963678 2.402069 0
M  V30 14 C 2.298016 5.079037 3.211156 0
M  V30 15 C 2.051353 -0.198719 1.770284 0
M  V30 16 C 1.518101 -1.470260 1.821611 0
M  V30 17 N 0.563290 -1.885556 0.850533 0
M  V30 18 C -0.848611 -1.829940 0.780316 0
M  V30 19 O -1.625463 -1.365968 1.625402 0
M  V30 20 C -1.420925 -2.388651 -0.433424 0
M  V30 21 C -0.844463 -2.972011 -1.547974 0
M  V30 22 N -1.827275 -3.332793 -2.411498 0
M  V30 23 N -3.011261 -3.004222 -1.895525 0
M  V30 24 C -4.234178 -3.261026 -2.578244 0
M  V30 25 C -5.373046 -2.482014 -2.418500 0
M  V30 26 C -6.558733 -2.729793 -3.079488 0
M  V30 27 C -6.585602 -3.823063 -3.944297 0
M  V30 28 C -5.499486 -4.640455 -4.154824 0
M  V30 29 C -4.351753 -4.322654 -3.454086 0
M  V30 30 F -3.226432 -5.093671 -3.612922 0
M  V30 31 C -2.768812 -2.435038 -0.703355 0
M  V30 32 N -3.825452 -1.969133 0.109227 0
M  V30 33 H 0.377077 -3.703445 3.475006 0
M  V30 34 H 1.073360 -4.084670 1.790297 0
M  V30 35 H 1.964697 -4.472562 3.316791 0
M  V30 36 H 3.115410 -2.699043 4.544426 0
M  V30 37 H 4.050402 -0.482966 4.462088 0
M  V30 38 H 2.617357 2.352083 1.029955 0
M  V30 39 H 5.718200 3.503131 0.498476 0
M  V30 40 H 6.129220 6.133496 1.003734 0
M  V30 41 H 2.501831 4.593019 4.187686 0
M  V30 42 H 2.012301 6.149172 3.325696 0
M  V30 43 H 1.432939 4.497734 2.777184 0
M  V30 44 H 1.757818 0.502412 0.998500 0
M  V30 45 H 1.163597 -2.294624 0.094419 0
M  V30 46 H 0.240607 -3.089270 -1.645935 0
M  V30 47 H -5.298774 -1.645043 -1.735247 0
M  V30 48 H -7.438034 -2.137870 -2.963614 0
M  V30 49 H -7.495446 -4.083650 -4.506574 0
M  V30 50 H -5.557960 -5.478258 -4.832482 0
M  V30 51 H -4.532460 -2.422560 0.736440 0
M  V30 52 H -4.580406 -2.290848 0.761245 0
M  V30 END ATOM
M  V30 BEGIN BOND
M  V30 1 1 1 2
M  V30 2 2 2 3
M  V30 3 1 3 4
M  V30 4 2 4 5
M  V30 5 1 5 6
M  V30 6 2 6 7
M  V30 7 1 6 8
M  V30 8 1 8 9
M  V30 9 2 9 10
M  V30 10 1 10 11
M  V30 11 2 11 12
M  V30 12 1 12 13
M  V30 13 1 13 14
M  V30 14 1 5 15
M  V30 15 2 15 16
M  V30 16 1 16 17
M  V30 17 1 17 18
M  V30 18 2 18 19
M  V30 19 1 18 20
M  V30 20 1 20 21
M  V30 21 2 21 22
M  V30 22 1 22 23
M  V30 23 1 23 24
M  V30 24 2 24 25
M  V30 25 1 25 26
M  V30 26 2 26 27
M  V30 27 1 27 28
M  V30 28 2 28 29
M  V30 29 1 29 30
M  V30 30 1 23 31
M  V30 31 1 31 32
M  V30 32 1 16 2
M  V30 33 2 31 20
M  V30 34 1 13 9
M  V30 35 1 29 24
M  V30 36 1 1 33
M  V30 37 1 1 34
M  V30 38 1 1 35
M  V30 39 1 3 36
M  V30 40 1 4 37
M  V30 41 1 8 38
M  V30 42 1 10 39
M  V30 43 1 11 40
M  V30 44 1 14 41
M  V30 45 1 14 42
M  V30 46 1 14 43
M  V30 47 1 15 44
M  V30 48 1 17 45
M  V30 49 1 21 46
M  V30 50 1 25 47
M  V30 51 1 26 48
M  V30 52 1 27 49
M  V30 53 1 28 50
M  V30 54 1 32 51
M  V30 55 1 32 52
M  V30 END BOND
M  V30 END CTAB
M  END
>  <Dataset>  (199) 
ChEMBL_Kinases

>  <Ligand_Instance>  (199) 
nan

>  <PDB_ID>  (199) 
nan

>  <Standardized_SMILES>  (199) 
Cc1ccc(C(=O)Nc2ccnn2C)cc1NC(=O)c1cnn(-c2ccccc2F)c1N

>  <Name>  (199) 
nan

>  <Pocket>  (199) 
nan

>  <ATP_Site>  (199) 
nan

>  <Peripheral>  (199) 
nan

>  <Num_H_Atoms_ProtBoundConf>  (199) 
nan

>  <Num_Resolved_Atoms>  (199) 
nan

>  <Num_Not_Resolved_Atoms>  (199) 
nan

$$$$
CHEMBL1290627
     RDKit          3D

  0  0  0  0  0  0  0  0  0  0999 V3000
M  V30 BEGIN CTAB
M  V30 COUNTS 55 58 0 0 0
M  V30 BEGIN ATOM
M  V30 1 C 3.658554 1.444798 5.567021 0
M  V30 2 C 4.062454 0.276785 4.713800 0
M  V30 3 N 4.904462 0.691044 3.589466 0
M  V30 4 N 6.212108 0.792940 3.529366 0
M  V30 5 C 6.613556 1.209557 2.311079 0
M  V30 6 C 5.439566 1.370947 1.577671 0
M  V30 7 C 4.365488 1.036870 2.406657 0
M  V30 8 N 3.028951 1.108222 1.921702 0
M  V30 9 C 2.261004 2.290348 2.037059 0
M  V30 10 O 2.840470 3.264211 2.594265 0
M  V30 11 C 0.891495 2.464834 1.575120 0
M  V30 12 C 0.310478 3.697644 1.779004 0
M  V30 13 C -0.985998 3.869238 1.343862 0
M  V30 14 C -1.677223 2.854909 0.730264 0
M  V30 15 C -3.091610 3.114611 0.280514 0
M  V30 16 C -1.122127 1.616423 0.514545 0
M  V30 17 N -1.895931 0.618356 -0.124906 0
M  V30 18 C -1.572222 -0.713281 -0.460903 0
M  V30 19 O -0.428652 -1.141582 -0.172570 0
M  V30 20 C -2.478474 -1.637043 -1.125213 0
M  V30 21 C -3.782751 -1.448220 -1.557559 0
M  V30 22 N -4.219417 -2.610258 -2.125002 0
M  V30 23 N -3.221195 -3.505106 -2.052964 0
M  V30 24 C -3.292756 -4.842703 -2.541726 0
M  V30 25 C -3.380479 -5.270978 -3.834339 0
M  V30 26 C -3.441131 -6.621123 -4.124754 0
M  V30 27 C -3.415305 -7.574764 -3.126213 0
M  V30 28 C -3.325677 -7.143490 -1.801900 0
M  V30 29 C -3.265347 -5.789034 -1.519573 0
M  V30 30 F -3.179437 -5.489204 -0.185232 0
M  V30 31 C -2.141911 -2.933415 -1.444070 0
M  V30 32 N -0.909644 -3.633141 -1.215435 0
M  V30 33 C 0.169274 1.492135 0.964071 0
M  V30 34 H 2.629072 1.796825 5.339310 0
M  V30 35 H 3.651488 1.175471 6.660381 0
M  V30 36 H 4.367232 2.304053 5.432788 0
M  V30 37 H 3.115017 -0.190133 4.344809 0
M  V30 38 H 4.559971 -0.496021 5.339769 0
M  V30 39 H 7.664543 1.364901 2.034061 0
M  V30 40 H 5.444987 1.706460 0.533996 0
M  V30 41 H 2.595173 0.288071 1.473120 0
M  V30 42 H 0.769765 4.555300 2.250090 0
M  V30 43 H -1.492452 4.812714 1.476323 0
M  V30 44 H -3.214895 2.886186 -0.799026 0
M  V30 45 H -3.321701 4.195451 0.375025 0
M  V30 46 H -3.820318 2.573098 0.918346 0
M  V30 47 H -2.871437 0.852055 -0.416277 0
M  V30 48 H -4.333719 -0.504693 -1.442210 0
M  V30 49 H -3.395279 -4.460318 -4.557647 0
M  V30 50 H -3.510614 -6.896582 -5.185014 0
M  V30 51 H -3.464036 -8.622865 -3.380529 0
M  V30 52 H -3.305100 -7.903344 -1.006334 0
M  V30 53 H -0.357211 -3.902688 -2.059120 0
M  V30 54 H -0.379268 -3.889194 -2.083982 0
M  V30 55 H 0.683295 0.553792 0.836262 0
M  V30 END ATOM
M  V30 BEGIN BOND
M  V30 1 1 1 2
M  V30 2 1 2 3
M  V30 3 1 3 4
M  V30 4 2 4 5
M  V30 5 1 5 6
M  V30 6 2 6 7
M  V30 7 1 7 8
M  V30 8 1 8 9
M  V30 9 2 9 10
M  V30 10 1 9 11
M  V30 11 2 11 12
M  V30 12 1 12 13
M  V30 13 2 13 14
M  V30 14 1 14 15
M  V30 15 1 14 16
M  V30 16 1 16 17
M  V30 17 1 17 18
M  V30 18 2 18 19
M  V30 19 1 18 20
M  V30 20 1 20 21
M  V30 21 2 21 22
M  V30 22 1 22 23
M  V30 23 1 23 24
M  V30 24 2 24 25
M  V30 25 1 25 26
M  V30 26 2 26 27
M  V30 27 1 27 28
M  V30 28 2 28 29
M  V30 29 1 29 30
M  V30 30 1 23 31
M  V30 31 1 31 32
M  V30 32 2 16 33
M  V30 33 1 7 3
M  V30 34 1 33 11
M  V30 35 2 31 20
M  V30 36 1 29 24
M  V30 37 1 1 34
M  V30 38 1 1 35
M  V30 39 1 1 36
M  V30 40 1 2 37
M  V30 41 1 2 38
M  V30 42 1 5 39
M  V30 43 1 6 40
M  V30 44 1 8 41
M  V30 45 1 12 42
M  V30 46 1 13 43
M  V30 47 1 15 44
M  V30 48 1 15 45
M  V30 49 1 15 46
M  V30 50 1 17 47
M  V30 51 1 21 48
M  V30 52 1 25 49
M  V30 53 1 26 50
M  V30 54 1 27 51
M  V30 55 1 28 52
M  V30 56 1 32 53
M  V30 57 1 32 54
M  V30 58 1 33 55
M  V30 END BOND
M  V30 END CTAB
M  END
>  <Dataset>  (200) 
ChEMBL_Kinases

>  <Ligand_Instance>  (200) 
nan

>  <PDB_ID>  (200) 
nan

>  <Standardized_SMILES>  (200) 
CCn1nccc1NC(=O)c1ccc(C)c(NC(=O)c2cnn(-c3ccccc3F)c2N)c1

>  <Name>  (200) 
nan

>  <Pocket>  (200) 
nan

>  <ATP_Site>  (200) 
nan

>  <Peripheral>  (200) 
nan

>  <Num_H_Atoms_ProtBoundConf>  (200) 
nan

>  <Num_Resolved_Atoms>  (200) 
nan

>  <Num_Not_Resolved_Atoms>  (200) 
nan

$$$$
CHEMBL1290626
     RDKit          3D

  0  0  0  0  0  0  0  0  0  0999 V3000
M  V30 BEGIN CTAB
M  V30 COUNTS 47 50 0 0 0
M  V30 BEGIN ATOM
M  V30 1 C -0.751090 2.926576 3.773338 0
M  V30 2 C 0.388842 2.820031 2.797273 0
M  V30 3 C 1.305237 3.845369 2.721192 0
M  V30 4 C 2.375152 3.819600 1.851732 0
M  V30 5 C 2.501605 2.711020 1.043186 0
M  V30 6 C 3.616027 2.673786 0.131251 0
M  V30 7 O 4.428421 3.634153 0.118800 0
M  V30 8 N 3.908621 1.632168 -0.789999 0
M  V30 9 C 5.017659 1.621401 -1.679671 0
M  V30 10 C 4.879917 2.177093 -2.935625 0
M  V30 11 C 6.100302 2.017999 -3.555424 0
M  V30 12 O 6.908556 1.410512 -2.727857 0
M  V30 13 N 6.298279 1.162111 -1.609203 0
M  V30 14 C 1.567270 1.705572 1.146404 0
M  V30 15 C 0.493380 1.704076 2.001700 0
M  V30 16 N -0.481005 0.689908 2.134712 0
M  V30 17 C -0.601635 -0.540696 1.460217 0
M  V30 18 O 0.251492 -0.852638 0.593738 0
M  V30 19 C -1.655596 -1.509325 1.684036 0
M  V30 20 C -2.684601 -1.367364 2.581669 0
M  V30 21 N -3.448352 -2.494463 2.478794 0
M  V30 22 N -2.911299 -3.302347 1.552443 0
M  V30 23 C -3.424053 -4.584418 1.156090 0
M  V30 24 C -4.569646 -5.057503 1.761162 0
M  V30 25 C -5.001498 -6.295299 1.328681 0
M  V30 26 C -4.279072 -6.950776 0.352445 0
M  V30 27 C -3.131437 -6.456366 -0.240902 0
M  V30 28 N -2.717904 -5.236241 0.194889 0
M  V30 29 C -1.796848 -2.716924 1.041504 0
M  V30 30 N -0.932685 -3.252003 0.028266 0
M  V30 31 H -0.706852 2.139776 4.530729 0
M  V30 32 H -1.705766 2.851139 3.174583 0
M  V30 33 H -0.768045 3.947863 4.187718 0
M  V30 34 H 1.151620 4.687835 3.381146 0
M  V30 35 H 3.074801 4.631069 1.812025 0
M  V30 36 H 3.267806 0.813472 -0.821149 0
M  V30 37 H 4.016354 2.659380 -3.408561 0
M  V30 38 H 6.395082 2.324766 -4.555535 0
M  V30 39 H 1.718901 0.866258 0.489589 0
M  V30 40 H -1.257122 0.811189 2.821450 0
M  V30 41 H -2.929581 -0.571130 3.271173 0
M  V30 42 H -5.049375 -4.456578 2.513040 0
M  V30 43 H -5.894971 -6.708762 1.772847 0
M  V30 44 H -4.621946 -7.917129 0.019323 0
M  V30 45 H -2.602376 -7.006346 -0.999245 0
M  V30 46 H -0.164338 -3.757935 0.557236 0
M  V30 47 H -0.988142 -3.194146 -1.019613 0
M  V30 END ATOM
M  V30 BEGIN BOND
M  V30 1 1 1 2
M  V30 2 2 2 3
M  V30 3 1 3 4
M  V30 4 2 4 5
M  V30 5 1 5 6
M  V30 6 2 6 7
M  V30 7 1 6 8
M  V30 8 1 8 9
M  V30 9 1 9 10
M  V30 10 2 10 11
M  V30 11 1 11 12
M  V30 12 1 12 13
M  V30 13 1 5 14
M  V30 14 2 14 15
M  V30 15 1 15 16
M  V30 16 1 16 17
M  V30 17 2 17 18
M  V30 18 1 17 19
M  V30 19 1 19 20
M  V30 20 2 20 21
M  V30 21 1 21 22
M  V30 22 1 22 23
M  V30 23 2 23 24
M  V30 24 1 24 25
M  V30 25 2 25 26
M  V30 26 1 26 27
M  V30 27 2 27 28
M  V30 28 1 22 29
M  V30 29 1 29 30
M  V30 30 1 15 2
M  V30 31 2 29 19
M  V30 32 2 13 9
M  V30 33 1 28 23
M  V30 34 1 1 31
M  V30 35 1 1 32
M  V30 36 1 1 33
M  V30 37 1 3 34
M  V30 38 1 4 35
M  V30 39 1 8 36
M  V30 40 1 10 37
M  V30 41 1 11 38
M  V30 42 1 14 39
M  V30 43 1 16 40
M  V30 44 1 20 41
M  V30 45 1 24 42
M  V30 46 1 25 43
M  V30 47 1 26 44
M  V30 48 1 27 45
M  V30 49 1 30 46
M  V30 50 1 30 47
M  V30 END BOND
M  V30 END CTAB
M  END
>  <Dataset>  (201) 
ChEMBL_Kinases

>  <Ligand_Instance>  (201) 
nan

>  <PDB_ID>  (201) 
nan

>  <Standardized_SMILES>  (201) 
Cc1ccc(C(=O)Nc2ccon2)cc1NC(=O)c1cnn(-c2ccccn2)c1N

>  <Name>  (201) 
nan

>  <Pocket>  (201) 
nan

>  <ATP_Site>  (201) 
nan

>  <Peripheral>  (201) 
nan

>  <Num_H_Atoms_ProtBoundConf>  (201) 
nan

>  <Num_Resolved_Atoms>  (201) 
nan

>  <Num_Not_Resolved_Atoms>  (201) 
nan

$$$$
CHEMBL1290514
     RDKit          3D

  0  0  0  0  0  0  0  0  0  0999 V3000
M  V30 BEGIN CTAB
M  V30 COUNTS 55 58 0 0 0
M  V30 BEGIN ATOM
M  V30 1 C 4.698025 -2.173499 1.930098 0
M  V30 2 C 5.368155 -0.828773 1.726342 0
M  V30 3 N 5.437651 -0.087729 2.986065 0
M  V30 4 N 6.443799 -0.158386 3.845238 0
M  V30 5 C 6.173166 0.658253 4.897592 0
M  V30 6 C 4.945883 1.219781 4.614454 0
M  V30 7 C 4.461503 0.754495 3.397420 0
M  V30 8 N 3.253491 1.052559 2.709082 0
M  V30 9 C 3.049264 2.084343 1.768882 0
M  V30 10 O 3.988140 2.848475 1.467927 0
M  V30 11 C 1.758769 2.299537 1.120216 0
M  V30 12 C 1.675562 3.347026 0.210573 0
M  V30 13 C 0.507830 3.674827 -0.488122 0
M  V30 14 C -0.600044 2.893768 -0.234110 0
M  V30 15 C -1.860037 3.228082 -0.971697 0
M  V30 16 C -0.534321 1.845384 0.669946 0
M  V30 17 N -1.722028 1.063417 0.895687 0
M  V30 18 C -1.777191 -0.029637 -0.005605 0
M  V30 19 O -0.854572 -0.193877 -0.846756 0
M  V30 20 C -2.877769 -0.990106 0.000040 0
M  V30 21 C -3.984710 -1.005618 0.825673 0
M  V30 22 N -4.728522 -2.076468 0.465655 0
M  V30 23 N -4.112082 -2.690985 -0.531707 0
M  V30 24 C -4.534097 -3.873655 -1.232097 0
M  V30 25 C -5.606070 -3.929009 -2.124113 0
M  V30 26 C -5.903726 -5.131973 -2.729072 0
M  V30 27 C -5.149053 -6.271622 -2.455661 0
M  V30 28 C -4.099136 -6.213754 -1.580898 0
M  V30 29 C -3.778419 -5.010892 -0.957138 0
M  V30 30 C -2.948553 -2.061076 -0.870206 0
M  V30 31 N -2.034019 -2.437353 -1.887987 0
M  V30 32 C 0.639902 1.542891 1.349746 0
M  V30 33 H 4.037494 -2.143118 2.829447 0
M  V30 34 H 5.415825 -3.001392 2.089240 0
M  V30 35 H 4.066915 -2.449367 1.037066 0
M  V30 36 H 4.871598 -0.245250 0.926971 0
M  V30 37 H 6.404296 -1.057967 1.374543 0
M  V30 38 H 6.800429 0.824121 5.771009 0
M  V30 39 H 4.399042 1.938637 5.242403 0
M  V30 40 H 2.486816 0.398302 2.980251 0
M  V30 41 H 2.518166 3.991683 -0.025097 0
M  V30 42 H 0.476017 4.490626 -1.184592 0
M  V30 43 H -2.332349 4.133754 -0.517491 0
M  V30 44 H -1.649339 3.454552 -2.040358 0
M  V30 45 H -2.614140 2.424168 -0.903310 0
M  V30 46 H -2.515113 1.176258 1.594304 0
M  V30 47 H -4.220796 -0.294735 1.617889 0
M  V30 48 H -6.144758 -2.999442 -2.284350 0
M  V30 49 H -6.748574 -5.158221 -3.426861 0
M  V30 50 H -5.445828 -7.195445 -2.975926 0
M  V30 51 H -3.569223 -7.137548 -1.426084 0
M  V30 52 H -2.946344 -4.988324 -0.270884 0
M  V30 53 H -2.162000 -2.370124 -2.929789 0
M  V30 54 H -1.178548 -2.807141 -1.393017 0
M  V30 55 H 0.698703 0.726608 2.056417 0
M  V30 END ATOM
M  V30 BEGIN BOND
M  V30 1 1 1 2
M  V30 2 1 2 3
M  V30 3 1 3 4
M  V30 4 2 4 5
M  V30 5 1 5 6
M  V30 6 2 6 7
M  V30 7 1 7 8
M  V30 8 1 8 9
M  V30 9 2 9 10
M  V30 10 1 9 11
M  V30 11 2 11 12
M  V30 12 1 12 13
M  V30 13 2 13 14
M  V30 14 1 14 15
M  V30 15 1 14 16
M  V30 16 1 16 17
M  V30 17 1 17 18
M  V30 18 2 18 19
M  V30 19 1 18 20
M  V30 20 1 20 21
M  V30 21 2 21 22
M  V30 22 1 22 23
M  V30 23 1 23 24
M  V30 24 2 24 25
M  V30 25 1 25 26
M  V30 26 2 26 27
M  V30 27 1 27 28
M  V30 28 2 28 29
M  V30 29 1 23 30
M  V30 30 1 30 31
M  V30 31 2 16 32
M  V30 32 1 7 3
M  V30 33 1 32 11
M  V30 34 2 30 20
M  V30 35 1 29 24
M  V30 36 1 1 33
M  V30 37 1 1 34
M  V30 38 1 1 35
M  V30 39 1 2 36
M  V30 40 1 2 37
M  V30 41 1 5 38
M  V30 42 1 6 39
M  V30 43 1 8 40
M  V30 44 1 12 41
M  V30 45 1 13 42
M  V30 46 1 15 43
M  V30 47 1 15 44
M  V30 48 1 15 45
M  V30 49 1 17 46
M  V30 50 1 21 47
M  V30 51 1 25 48
M  V30 52 1 26 49
M  V30 53 1 27 50
M  V30 54 1 28 51
M  V30 55 1 29 52
M  V30 56 1 31 53
M  V30 57 1 31 54
M  V30 58 1 32 55
M  V30 END BOND
M  V30 END CTAB
M  END
>  <Dataset>  (202) 
ChEMBL_Kinases

>  <Ligand_Instance>  (202) 
nan

>  <PDB_ID>  (202) 
nan

>  <Standardized_SMILES>  (202) 
CCn1nccc1NC(=O)c1ccc(C)c(NC(=O)c2cnn(-c3ccccc3)c2N)c1

>  <Name>  (202) 
nan

>  <Pocket>  (202) 
nan

>  <ATP_Site>  (202) 
nan

>  <Peripheral>  (202) 
nan

>  <Num_H_Atoms_ProtBoundConf>  (202) 
nan

>  <Num_Resolved_Atoms>  (202) 
nan

>  <Num_Not_Resolved_Atoms>  (202) 
nan

$$$$
CHEMBL1290405
     RDKit          3D

  0  0  0  0  0  0  0  0  0  0999 V3000
M  V30 BEGIN CTAB
M  V30 COUNTS 52 55 0 0 0
M  V30 BEGIN ATOM
M  V30 1 C -0.809611 -0.245430 4.878555 0
M  V30 2 C 0.026459 0.464234 3.844140 0
M  V30 3 C 0.846551 1.487460 4.257254 0
M  V30 4 C 1.635975 2.180052 3.378726 0
M  V30 5 C 1.589709 1.823376 2.050493 0
M  V30 6 C 2.392111 2.500781 1.041616 0
M  V30 7 O 2.379533 2.206538 -0.181437 0
M  V30 8 N 3.271512 3.567583 1.352870 0
M  V30 9 C 4.076796 4.262615 0.406769 0
M  V30 10 C 3.788635 5.394765 -0.343472 0
M  V30 11 C 4.889907 5.694813 -1.124462 0
M  V30 12 N 5.816168 4.757174 -0.843032 0
M  V30 13 N 5.327925 3.904384 0.070745 0
M  V30 14 C 6.058215 2.767972 0.605783 0
M  V30 15 C 0.754526 0.792480 1.678507 0
M  V30 16 C -0.047191 0.078488 2.524382 0
M  V30 17 N -0.911055 -0.975461 2.193507 0
M  V30 18 C -1.178814 -1.566495 0.936891 0
M  V30 19 O -0.598790 -1.140314 -0.069791 0
M  V30 20 C -2.110396 -2.669304 0.727526 0
M  V30 21 C -2.905055 -3.357888 1.649748 0
M  V30 22 N -3.593512 -4.294981 0.962071 0
M  V30 23 N -3.282304 -4.238334 -0.329065 0
M  V30 24 C -3.861969 -5.115244 -1.291715 0
M  V30 25 C -5.099516 -5.046234 -1.902171 0
M  V30 26 C -5.443175 -6.023327 -2.813177 0
M  V30 27 C -4.606149 -7.067782 -3.142912 0
M  V30 28 C -3.360950 -7.136200 -2.527924 0
M  V30 29 C -2.998804 -6.166491 -1.612526 0
M  V30 30 C -2.371661 -3.245650 -0.497053 0
M  V30 31 N -1.846645 -2.944362 -1.777161 0
M  V30 32 H -0.624516 -1.343624 4.808240 0
M  V30 33 H -0.601738 0.161315 5.869745 0
M  V30 34 H -1.866839 -0.033171 4.596860 0
M  V30 35 H 0.853079 1.735422 5.307343 0
M  V30 36 H 2.266920 2.977003 3.738984 0
M  V30 37 H 3.381068 3.915155 2.329364 0
M  V30 38 H 2.871598 5.933423 -0.314869 0
M  V30 39 H 5.028881 6.510226 -1.836108 0
M  V30 40 H 6.021073 1.883459 -0.042652 0
M  V30 41 H 5.773015 2.533365 1.637211 0
M  V30 42 H 7.137449 3.083830 0.659192 0
M  V30 43 H 0.747605 0.544663 0.630984 0
M  V30 44 H -1.480276 -1.447272 2.947517 0
M  V30 45 H -2.864338 -3.075909 2.679480 0
M  V30 46 H -5.673083 -4.207400 -1.584578 0
M  V30 47 H -6.432277 -5.923089 -3.267530 0
M  V30 48 H -4.954807 -7.803633 -3.877041 0
M  V30 49 H -2.728526 -7.968588 -2.809237 0
M  V30 50 H -2.010306 -6.328965 -1.204823 0
M  V30 51 H -0.800522 -2.924212 -1.809850 0
M  V30 52 H -2.507544 -2.767759 -2.578228 0
M  V30 END ATOM
M  V30 BEGIN BOND
M  V30 1 1 1 2
M  V30 2 2 2 3
M  V30 3 1 3 4
M  V30 4 2 4 5
M  V30 5 1 5 6
M  V30 6 2 6 7
M  V30 7 1 6 8
M  V30 8 1 8 9
M  V30 9 2 9 10
M  V30 10 1 10 11
M  V30 11 2 11 12
M  V30 12 1 12 13
M  V30 13 1 13 14
M  V30 14 1 5 15
M  V30 15 2 15 16
M  V30 16 1 16 17
M  V30 17 1 17 18
M  V30 18 2 18 19
M  V30 19 1 18 20
M  V30 20 1 20 21
M  V30 21 2 21 22
M  V30 22 1 22 23
M  V30 23 1 23 24
M  V30 24 2 24 25
M  V30 25 1 25 26
M  V30 26 2 26 27
M  V30 27 1 27 28
M  V30 28 2 28 29
M  V30 29 1 23 30
M  V30 30 1 30 31
M  V30 31 1 16 2
M  V30 32 2 30 20
M  V30 33 1 13 9
M  V30 34 1 29 24
M  V30 35 1 1 32
M  V30 36 1 1 33
M  V30 37 1 1 34
M  V30 38 1 3 35
M  V30 39 1 4 36
M  V30 40 1 8 37
M  V30 41 1 10 38
M  V30 42 1 11 39
M  V30 43 1 14 40
M  V30 44 1 14 41
M  V30 45 1 14 42
M  V30 46 1 15 43
M  V30 47 1 17 44
M  V30 48 1 21 45
M  V30 49 1 25 46
M  V30 50 1 26 47
M  V30 51 1 27 48
M  V30 52 1 28 49
M  V30 53 1 29 50
M  V30 54 1 31 51
M  V30 55 1 31 52
M  V30 END BOND
M  V30 END CTAB
M  END
>  <Dataset>  (203) 
ChEMBL_Kinases

>  <Ligand_Instance>  (203) 
nan

>  <PDB_ID>  (203) 
nan

>  <Standardized_SMILES>  (203) 
Cc1ccc(C(=O)Nc2ccnn2C)cc1NC(=O)c1cnn(-c2ccccc2)c1N

>  <Name>  (203) 
nan

>  <Pocket>  (203) 
nan

>  <ATP_Site>  (203) 
nan

>  <Peripheral>  (203) 
nan

>  <Num_H_Atoms_ProtBoundConf>  (203) 
nan

>  <Num_Resolved_Atoms>  (203) 
nan

>  <Num_Not_Resolved_Atoms>  (203) 
nan

$$$$
CHEMBL1290401
     RDKit          3D

  0  0  0  0  0  0  0  0  0  0999 V3000
M  V30 BEGIN CTAB
M  V30 COUNTS 44 48 0 0 0
M  V30 BEGIN ATOM
M  V30 1 C -0.439973 -6.114814 2.205358 0
M  V30 2 O -0.102984 -5.937456 0.827181 0
M  V30 3 C 0.499644 -4.753347 0.429273 0
M  V30 4 C 0.774090 -3.753004 1.347148 0
M  V30 5 C 1.376584 -2.587936 0.904587 0
M  V30 6 C 1.702461 -2.418672 -0.433426 0
M  V30 7 C 2.336018 -1.227713 -0.979625 0
M  V30 8 C 3.398738 -1.148223 -1.878993 0
M  V30 9 O 3.663164 0.108866 -2.113581 0
M  V30 10 C 2.850103 0.886417 -1.432824 0
M  V30 11 C 2.767272 2.277301 -1.374987 0
M  V30 12 C 1.826867 2.905684 -0.584936 0
M  V30 13 O 1.711686 4.204862 -0.500858 0
M  V30 14 C 0.815169 4.799338 0.250562 0
M  V30 15 O 0.691771 6.051451 0.341544 0
M  V30 16 C -0.046253 3.978255 0.987370 0
M  V30 17 C 0.017557 2.578154 0.948476 0
M  V30 18 C -0.941896 1.900158 1.802574 0
M  V30 19 C -2.259232 2.319471 1.589997 0
M  V30 20 C -3.333259 1.825659 2.290920 0
M  V30 21 C -3.130648 0.867370 3.258652 0
M  V30 22 C -1.836819 0.446824 3.476945 0
M  V30 23 C -0.759803 0.942090 2.774348 0
M  V30 24 C 0.997241 2.064323 0.124849 0
M  V30 25 C 1.037465 0.686327 0.102164 0
M  V30 26 C 1.983695 0.074872 -0.693058 0
M  V30 27 C 1.423872 -3.425156 -1.343829 0
M  V30 28 C 0.817503 -4.600896 -0.905998 0
M  V30 29 F 0.541193 -5.585132 -1.775527 0
M  V30 30 H 0.498336 -5.965072 2.782663 0
M  V30 31 H -1.197562 -5.350689 2.474566 0
M  V30 32 H -0.886883 -7.103532 2.367138 0
M  V30 33 H 0.524274 -3.869667 2.404058 0
M  V30 34 H 1.603781 -1.793171 1.584877 0
M  V30 35 H 3.852150 -2.058372 -2.254469 0
M  V30 36 H 3.449113 2.901529 -1.957316 0
M  V30 37 H -0.790124 4.497916 1.610438 0
M  V30 38 H -2.540413 3.073492 0.849440 0
M  V30 39 H -4.350742 2.151080 2.125112 0
M  V30 40 H -3.907311 0.418527 3.861211 0
M  V30 41 H -1.530893 -0.300620 4.206451 0
M  V30 42 H 0.263107 0.650754 2.918686 0
M  V30 43 H 0.373864 0.058964 0.658311 0
M  V30 44 H 1.655959 -3.347030 -2.397884 0
M  V30 END ATOM
M  V30 BEGIN BOND
M  V30 1 1 1 2
M  V30 2 1 2 3
M  V30 3 2 3 4
M  V30 4 1 4 5
M  V30 5 2 5 6
M  V30 6 1 6 7
M  V30 7 2 7 8
M  V30 8 1 8 9
M  V30 9 1 9 10
M  V30 10 2 10 11
M  V30 11 1 11 12
M  V30 12 1 12 13
M  V30 13 1 13 14
M  V30 14 2 14 15
M  V30 15 1 14 16
M  V30 16 2 16 17
M  V30 17 1 17 18
M  V30 18 2 18 19
M  V30 19 1 19 20
M  V30 20 2 20 21
M  V30 21 1 21 22
M  V30 22 2 22 23
M  V30 23 1 17 24
M  V30 24 1 24 25
M  V30 25 2 25 26
M  V30 26 1 6 27
M  V30 27 2 27 28
M  V30 28 1 28 29
M  V30 29 1 28 3
M  V30 30 1 26 7
M  V30 31 1 26 10
M  V30 32 2 24 12
M  V30 33 1 23 18
M  V30 34 1 1 30
M  V30 35 1 1 31
M  V30 36 1 1 32
M  V30 37 1 4 33
M  V30 38 1 5 34
M  V30 39 1 8 35
M  V30 40 1 11 36
M  V30 41 1 16 37
M  V30 42 1 19 38
M  V30 43 1 20 39
M  V30 44 1 21 40
M  V30 45 1 22 41
M  V30 46 1 23 42
M  V30 47 1 25 43
M  V30 48 1 27 44
M  V30 END BOND
M  V30 END CTAB
M  END
>  <Dataset>  (204) 
ChEMBL_Kinases

>  <Ligand_Instance>  (204) 
nan

>  <PDB_ID>  (204) 
nan

>  <Standardized_SMILES>  (204) 
COc1ccc(-c2coc3cc4oc(=O)cc(-c5ccccc5)c4cc23)cc1F

>  <Name>  (204) 
nan

>  <Pocket>  (204) 
nan

>  <ATP_Site>  (204) 
nan

>  <Peripheral>  (204) 
nan

>  <Num_H_Atoms_ProtBoundConf>  (204) 
nan

>  <Num_Resolved_Atoms>  (204) 
nan

>  <Num_Not_Resolved_Atoms>  (204) 
nan

$$$$
CHEMBL1290361
     RDKit          3D

  0  0  0  0  0  0  0  0  0  0999 V3000
M  V30 BEGIN CTAB
M  V30 COUNTS 50 53 0 0 0
M  V30 BEGIN ATOM
M  V30 1 C 0.504047 -2.001959 -1.213665 0
M  V30 2 C 1.112903 -0.718205 -1.493043 0
M  V30 3 N 0.603665 0.015274 -2.533281 0
M  V30 4 C 1.298557 1.130845 -2.605428 0
M  V30 5 C 1.237979 2.244807 -3.450855 0
M  V30 6 C 2.083155 3.311726 -3.332482 0
M  V30 7 C 3.022217 3.274742 -2.341713 0
M  V30 8 C 3.080973 2.176437 -1.509247 0
M  V30 9 C 2.229078 1.095631 -1.624446 0
M  V30 10 N 2.121401 -0.071722 -0.912212 0
M  V30 11 C 2.957329 -0.384428 0.169371 0
M  V30 12 C 2.679793 0.459283 1.420830 0
M  V30 13 C 1.514631 -0.024512 2.216086 0
M  V30 14 N 1.321450 -1.414905 2.081882 0
M  V30 15 C 0.276399 -2.032896 2.780242 0
M  V30 16 C -1.079699 -1.659095 2.307285 0
M  V30 17 O -1.114058 -0.846856 1.353198 0
M  V30 18 N -2.283514 -2.146463 2.849121 0
M  V30 19 C -3.610500 -1.853957 2.472075 0
M  V30 20 C -4.033020 -1.010492 1.475443 0
M  V30 21 C -5.348652 -0.764499 1.151528 0
M  V30 22 C -6.335477 -1.389718 1.853796 0
M  V30 23 C -5.955280 -2.245756 2.863931 0
M  V30 24 C -4.636366 -2.464090 3.155864 0
M  V30 25 Br -4.220211 -3.679949 4.588535 0
M  V30 26 C 2.509298 -2.184750 1.850564 0
M  V30 27 C 3.234799 -1.758148 0.584239 0
M  V30 28 H 0.886396 -2.648223 -0.451085 0
M  V30 29 H -0.620345 -1.862788 -1.149308 0
M  V30 30 H 0.582287 -2.642034 -2.150266 0
M  V30 31 H 0.465220 2.200329 -4.213238 0
M  V30 32 H 1.921564 4.115301 -4.063407 0
M  V30 33 H 3.684515 4.126287 -2.259433 0
M  V30 34 H 3.853866 2.229321 -0.752628 0
M  V30 35 H 3.986329 0.040771 -0.097313 0
M  V30 36 H 2.560772 1.523125 1.137068 0
M  V30 37 H 3.576821 0.407913 2.081128 0
M  V30 38 H 0.624207 0.574887 1.947469 0
M  V30 39 H 1.697598 0.188102 3.303329 0
M  V30 40 H 0.386374 -3.135709 2.676084 0
M  V30 41 H 0.302417 -1.785746 3.878695 0
M  V30 42 H -2.101517 -2.809078 3.632226 0
M  V30 43 H -3.299105 -0.489970 0.887784 0
M  V30 44 H -5.600958 -0.080296 0.346065 0
M  V30 45 H -7.360691 -1.190474 1.592784 0
M  V30 46 H -6.711728 -2.756438 3.438138 0
M  V30 47 H 2.233928 -3.232899 1.749044 0
M  V30 48 H 3.109738 -2.071324 2.775253 0
M  V30 49 H 3.231795 -2.527879 -0.216455 0
M  V30 50 H 4.321146 -1.870958 0.919715 0
M  V30 END ATOM
M  V30 BEGIN BOND
M  V30 1 1 1 2
M  V30 2 2 2 3
M  V30 3 1 3 4
M  V30 4 2 4 5
M  V30 5 1 5 6
M  V30 6 2 6 7
M  V30 7 1 7 8
M  V30 8 2 8 9
M  V30 9 1 9 10
M  V30 10 1 10 11
M  V30 11 1 11 12
M  V30 12 1 12 13
M  V30 13 1 13 14
M  V30 14 1 14 15
M  V30 15 1 15 16
M  V30 16 2 16 17
M  V30 17 1 16 18
M  V30 18 1 18 19
M  V30 19 2 19 20
M  V30 20 1 20 21
M  V30 21 2 21 22
M  V30 22 1 22 23
M  V30 23 2 23 24
M  V30 24 1 24 25
M  V30 25 1 14 26
M  V30 26 1 26 27
M  V30 27 1 10 2
M  V30 28 1 27 11
M  V30 29 1 9 4
M  V30 30 1 24 19
M  V30 31 1 1 28
M  V30 32 1 1 29
M  V30 33 1 1 30
M  V30 34 1 5 31
M  V30 35 1 6 32
M  V30 36 1 7 33
M  V30 37 1 8 34
M  V30 38 1 11 35
M  V30 39 1 12 36
M  V30 40 1 12 37
M  V30 41 1 13 38
M  V30 42 1 13 39
M  V30 43 1 15 40
M  V30 44 1 15 41
M  V30 45 1 18 42
M  V30 46 1 20 43
M  V30 47 1 21 44
M  V30 48 1 22 45
M  V30 49 1 23 46
M  V30 50 1 26 47
M  V30 51 1 26 48
M  V30 52 1 27 49
M  V30 53 1 27 50
M  V30 END BOND
M  V30 END CTAB
M  END
>  <Dataset>  (205) 
ChEMBL_Kinases

>  <Ligand_Instance>  (205) 
nan

>  <PDB_ID>  (205) 
nan

>  <Standardized_SMILES>  (205) 
Cc1nc2ccccc2n1C1CCN(CC(=O)Nc2ccccc2Br)CC1

>  <Name>  (205) 
ASN06356088

>  <Pocket>  (205) 
nan

>  <ATP_Site>  (205) 
nan

>  <Peripheral>  (205) 
nan

>  <Num_H_Atoms_ProtBoundConf>  (205) 
nan

>  <Num_Resolved_Atoms>  (205) 
nan

>  <Num_Not_Resolved_Atoms>  (205) 
nan

$$$$
CHEMBL1290289
     RDKit          3D

  0  0  0  0  0  0  0  0  0  0999 V3000
M  V30 BEGIN CTAB
M  V30 COUNTS 48 50 0 0 0
M  V30 BEGIN ATOM
M  V30 1 C 6.898203 -3.418297 0.654412 0
M  V30 2 C 5.871341 -3.860732 -0.337924 0
M  V30 3 N 4.667916 -3.034326 -0.310511 0
M  V30 4 C 4.943468 -1.670557 -0.600179 0
M  V30 5 O 6.137549 -1.389502 -0.827787 0
M  V30 6 C 3.958212 -0.595337 -0.651015 0
M  V30 7 C 4.430535 0.667271 -0.942114 0
M  V30 8 C 3.500703 1.708883 -0.995720 0
M  V30 9 C 2.146763 1.554605 -0.776879 0
M  V30 10 C 1.207297 2.706967 -0.847105 0
M  V30 11 C 1.711563 0.277133 -0.488357 0
M  V30 12 N 0.317927 0.097870 -0.261709 0
M  V30 13 C -0.440612 0.168875 0.916754 0
M  V30 14 O 0.012458 0.421512 2.061187 0
M  V30 15 C -1.873109 -0.075885 0.767623 0
M  V30 16 C -2.622722 -0.374614 -0.351634 0
M  V30 17 N -3.895906 -0.504317 0.060838 0
M  V30 18 N -3.975034 -0.302220 1.373565 0
M  V30 19 C -5.270208 -0.407353 1.959543 0
M  V30 20 C -5.552752 -1.482772 2.787022 0
M  V30 21 C -6.778176 -1.665059 3.396367 0
M  V30 22 C -7.725666 -0.696183 3.129819 0
M  V30 23 C -7.513264 0.382838 2.327925 0
M  V30 24 C -6.261710 0.541921 1.723510 0
M  V30 25 C -2.725548 -0.030811 1.850955 0
M  V30 26 N -2.534365 0.224261 3.227368 0
M  V30 27 C 2.617650 -0.761133 -0.432006 0
M  V30 28 H 7.754000 -2.886864 0.155939 0
M  V30 29 H 6.427154 -2.679186 1.340330 0
M  V30 30 H 7.296820 -4.248258 1.284679 0
M  V30 31 H 5.528075 -4.881076 0.001448 0
M  V30 32 H 6.248466 -4.010818 -1.356485 0
M  V30 33 H 3.651452 -3.267696 -0.117650 0
M  V30 34 H 5.451922 0.892917 -1.127022 0
M  V30 35 H 3.875473 2.700750 -1.225265 0
M  V30 36 H 1.664579 3.559000 -1.396542 0
M  V30 37 H 1.018323 3.127774 0.184983 0
M  V30 38 H 0.260490 2.466517 -1.357453 0
M  V30 39 H -0.088152 -0.114798 -1.200512 0
M  V30 40 H -2.127327 -0.453775 -1.306755 0
M  V30 41 H -4.795518 -2.254679 2.998685 0
M  V30 42 H -7.004914 -2.502471 4.043139 0
M  V30 43 H -8.709463 -0.751794 3.558991 0
M  V30 44 H -8.216826 1.164369 2.088684 0
M  V30 45 H -5.973749 1.362913 1.062720 0
M  V30 46 H -2.090894 -0.239897 4.032978 0
M  V30 47 H -2.921375 1.113204 3.619830 0
M  V30 48 H 2.242977 -1.746380 -0.203941 0
M  V30 END ATOM
M  V30 BEGIN BOND
M  V30 1 1 1 2
M  V30 2 1 2 3
M  V30 3 1 3 4
M  V30 4 2 4 5
M  V30 5 1 4 6
M  V30 6 2 6 7
M  V30 7 1 7 8
M  V30 8 2 8 9
M  V30 9 1 9 10
M  V30 10 1 9 11
M  V30 11 1 11 12
M  V30 12 1 12 13
M  V30 13 2 13 14
M  V30 14 1 13 15
M  V30 15 1 15 16
M  V30 16 2 16 17
M  V30 17 1 17 18
M  V30 18 1 18 19
M  V30 19 2 19 20
M  V30 20 1 20 21
M  V30 21 2 21 22
M  V30 22 1 22 23
M  V30 23 2 23 24
M  V30 24 1 18 25
M  V30 25 1 25 26
M  V30 26 2 11 27
M  V30 27 1 27 6
M  V30 28 2 25 15
M  V30 29 1 24 19
M  V30 30 1 1 28
M  V30 31 1 1 29
M  V30 32 1 1 30
M  V30 33 1 2 31
M  V30 34 1 2 32
M  V30 35 1 3 33
M  V30 36 1 7 34
M  V30 37 1 8 35
M  V30 38 1 10 36
M  V30 39 1 10 37
M  V30 40 1 10 38
M  V30 41 1 12 39
M  V30 42 1 16 40
M  V30 43 1 20 41
M  V30 44 1 21 42
M  V30 45 1 22 43
M  V30 46 1 23 44
M  V30 47 1 24 45
M  V30 48 1 26 46
M  V30 49 1 26 47
M  V30 50 1 27 48
M  V30 END BOND
M  V30 END CTAB
M  END
>  <Dataset>  (206) 
ChEMBL_Kinases

>  <Ligand_Instance>  (206) 
nan

>  <PDB_ID>  (206) 
nan

>  <Standardized_SMILES>  (206) 
CCNC(=O)c1ccc(C)c(NC(=O)c2cnn(-c3ccccc3)c2N)c1

>  <Name>  (206) 
nan

>  <Pocket>  (206) 
nan

>  <ATP_Site>  (206) 
nan

>  <Peripheral>  (206) 
nan

>  <Num_H_Atoms_ProtBoundConf>  (206) 
nan

>  <Num_Resolved_Atoms>  (206) 
nan

>  <Num_Not_Resolved_Atoms>  (206) 
nan

$$$$
CHEMBL1290288
     RDKit          3D

  0  0  0  0  0  0  0  0  0  0999 V3000
M  V30 BEGIN CTAB
M  V30 COUNTS 45 47 0 0 0
M  V30 BEGIN ATOM
M  V30 1 C -0.357720 -6.049733 -3.259193 0
M  V30 2 N -0.041567 -4.709915 -2.838374 0
M  V30 3 C 1.268828 -4.215355 -3.067856 0
M  V30 4 O 2.130693 -4.939213 -3.628109 0
M  V30 5 C 1.687091 -2.874482 -2.679552 0
M  V30 6 C 2.985272 -2.495213 -2.950063 0
M  V30 7 C 3.418389 -1.214009 -2.589861 0
M  V30 8 C 2.551752 -0.320853 -1.962067 0
M  V30 9 C 2.994844 1.055493 -1.567999 0
M  V30 10 C 1.241252 -0.695547 -1.685798 0
M  V30 11 N 0.348368 0.214133 -1.043100 0
M  V30 12 C 0.415803 0.072052 0.374906 0
M  V30 13 O 1.196111 -0.774149 0.836014 0
M  V30 14 C -0.392231 0.879019 1.282987 0
M  V30 15 C -1.310209 1.862646 0.977853 0
M  V30 16 N -1.783491 2.301926 2.178026 0
M  V30 17 N -1.200388 1.637948 3.155566 0
M  V30 18 C -1.484431 1.868660 4.534911 0
M  V30 19 C -2.731579 2.279139 4.963035 0
M  V30 20 C -3.083317 2.521631 6.267536 0
M  V30 21 C -2.101516 2.337530 7.229358 0
M  V30 22 C -0.827010 1.926473 6.870554 0
M  V30 23 C -0.530118 1.696965 5.537507 0
M  V30 24 C -0.320745 0.735059 2.654430 0
M  V30 25 N 0.486652 -0.155350 3.428169 0
M  V30 26 C 0.860439 -1.962141 -2.057160 0
M  V30 27 H 0.182996 -6.320434 -4.197354 0
M  V30 28 H -0.076105 -6.813973 -2.491644 0
M  V30 29 H -1.450055 -6.120500 -3.459925 0
M  V30 30 H -0.757382 -4.114988 -2.375490 0
M  V30 31 H 3.728295 -3.109887 -3.429374 0
M  V30 32 H 4.412718 -0.830706 -2.760852 0
M  V30 33 H 2.589346 1.829129 -2.272891 0
M  V30 34 H 2.735932 1.308843 -0.533752 0
M  V30 35 H 4.098404 1.082783 -1.713328 0
M  V30 36 H -0.302400 0.921267 -1.456632 0
M  V30 37 H -1.511060 2.126019 -0.052553 0
M  V30 38 H -3.500455 2.423382 4.210442 0
M  V30 39 H -4.070121 2.841533 6.560636 0
M  V30 40 H -2.283060 2.504592 8.294142 0
M  V30 41 H -0.040744 1.776523 7.617379 0
M  V30 42 H 0.468748 1.375959 5.267015 0
M  V30 43 H -0.176926 -0.913377 3.761201 0
M  V30 44 H 1.519760 -0.080454 3.628497 0
M  V30 45 H -0.160230 -2.241431 -1.837091 0
M  V30 END ATOM
M  V30 BEGIN BOND
M  V30 1 1 1 2
M  V30 2 1 2 3
M  V30 3 2 3 4
M  V30 4 1 3 5
M  V30 5 2 5 6
M  V30 6 1 6 7
M  V30 7 2 7 8
M  V30 8 1 8 9
M  V30 9 1 8 10
M  V30 10 1 10 11
M  V30 11 1 11 12
M  V30 12 2 12 13
M  V30 13 1 12 14
M  V30 14 1 14 15
M  V30 15 2 15 16
M  V30 16 1 16 17
M  V30 17 1 17 18
M  V30 18 2 18 19
M  V30 19 1 19 20
M  V30 20 2 20 21
M  V30 21 1 21 22
M  V30 22 2 22 23
M  V30 23 1 17 24
M  V30 24 1 24 25
M  V30 25 2 10 26
M  V30 26 1 26 5
M  V30 27 2 24 14
M  V30 28 1 23 18
M  V30 29 1 1 27
M  V30 30 1 1 28
M  V30 31 1 1 29
M  V30 32 1 2 30
M  V30 33 1 6 31
M  V30 34 1 7 32
M  V30 35 1 9 33
M  V30 36 1 9 34
M  V30 37 1 9 35
M  V30 38 1 11 36
M  V30 39 1 15 37
M  V30 40 1 19 38
M  V30 41 1 20 39
M  V30 42 1 21 40
M  V30 43 1 22 41
M  V30 44 1 23 42
M  V30 45 1 25 43
M  V30 46 1 25 44
M  V30 47 1 26 45
M  V30 END BOND
M  V30 END CTAB
M  END
>  <Dataset>  (207) 
ChEMBL_Kinases

>  <Ligand_Instance>  (207) 
nan

>  <PDB_ID>  (207) 
nan

>  <Standardized_SMILES>  (207) 
CNC(=O)c1ccc(C)c(NC(=O)c2cnn(-c3ccccc3)c2N)c1

>  <Name>  (207) 
nan

>  <Pocket>  (207) 
nan

>  <ATP_Site>  (207) 
nan

>  <Peripheral>  (207) 
nan

>  <Num_H_Atoms_ProtBoundConf>  (207) 
nan

>  <Num_Resolved_Atoms>  (207) 
nan

>  <Num_Not_Resolved_Atoms>  (207) 
nan

$$$$
CHEMBL1289427
     RDKit          3D

  0  0  0  0  0  0  0  0  0  0999 V3000
M  V30 BEGIN CTAB
M  V30 COUNTS 57 60 0 0 0
M  V30 BEGIN ATOM
M  V30 1 C 0.228425 -2.354209 2.902731 0
M  V30 2 C -0.460599 -3.605170 2.418512 0
M  V30 3 N -1.126428 -3.436360 1.144148 0
M  V30 4 C -0.619692 -3.077326 -0.104686 0
M  V30 5 C -0.481734 -1.870570 -0.754545 0
M  V30 6 C -0.895180 -0.592272 -0.192309 0
M  V30 7 O -1.414770 -0.396946 0.913972 0
M  V30 8 N -0.726162 0.623649 -0.914132 0
M  V30 9 C -1.125684 1.865530 -0.371476 0
M  V30 10 C -0.137527 2.507031 0.351694 0
M  V30 11 C -0.408128 3.731369 0.933650 0
M  V30 12 C 0.491208 4.561786 1.727986 0
M  V30 13 O 0.244798 5.668571 2.260361 0
M  V30 14 N 1.815327 4.141086 1.973722 0
M  V30 15 C 2.853270 4.772512 2.706867 0
M  V30 16 C 3.722909 5.646626 2.056670 0
M  V30 17 C 4.606391 6.083626 3.048335 0
M  V30 18 O 4.274205 5.512070 4.167253 0
M  V30 19 N 3.246566 4.735143 3.997815 0
M  V30 20 C -1.676391 4.300517 0.781449 0
M  V30 21 C -2.670296 3.651973 0.052233 0
M  V30 22 C -2.372370 2.438865 -0.513424 0
M  V30 23 C -3.383434 1.700947 -1.298565 0
M  V30 24 C 0.090595 -2.025298 -1.998607 0
M  V30 25 N 0.303851 -3.338741 -2.109318 0
M  V30 26 N -0.108917 -3.966304 -1.004208 0
M  V30 27 C 0.025839 -5.387080 -0.908320 0
M  V30 28 C 0.988121 -5.866359 -0.040853 0
M  V30 29 C 1.169850 -7.227463 0.099715 0
M  V30 30 C 0.362779 -8.055653 -0.650392 0
M  V30 31 C -0.613161 -7.595225 -1.530506 0
M  V30 32 C -0.775505 -6.228491 -1.653290 0
M  V30 33 C -1.806182 -5.656594 -2.580760 0
M  V30 34 H -0.489837 -1.570676 3.220275 0
M  V30 35 H 0.838188 -2.659573 3.790358 0
M  V30 36 H 0.942709 -2.015334 2.134666 0
M  V30 37 H 0.326258 -4.390264 2.374255 0
M  V30 38 H -1.186540 -3.940622 3.190753 0
M  V30 39 H -2.153717 -3.574793 0.993064 0
M  V30 40 H -0.295014 0.640037 -1.883330 0
M  V30 41 H 0.867201 2.144167 0.521336 0
M  V30 42 H 2.213263 3.232441 1.608086 0
M  V30 43 H 3.745054 5.948810 1.014041 0
M  V30 44 H 5.415176 6.787656 2.842684 0
M  V30 45 H -2.004517 5.251354 1.189817 0
M  V30 46 H -3.662000 4.060848 -0.086803 0
M  V30 47 H -4.333212 1.568752 -0.722729 0
M  V30 48 H -3.620788 2.229743 -2.249676 0
M  V30 49 H -3.052959 0.701513 -1.577618 0
M  V30 50 H 0.295696 -1.221500 -2.685478 0
M  V30 51 H 1.629565 -5.245505 0.554467 0
M  V30 52 H 1.895920 -7.672573 0.752011 0
M  V30 53 H 0.471297 -9.130549 -0.570938 0
M  V30 54 H -1.218812 -8.278547 -2.094087 0
M  V30 55 H -1.327441 -5.394052 -3.546552 0
M  V30 56 H -2.529657 -6.464195 -2.825537 0
M  V30 57 H -2.325791 -4.782131 -2.163698 0
M  V30 END ATOM
M  V30 BEGIN BOND
M  V30 1 1 1 2
M  V30 2 1 2 3
M  V30 3 1 3 4
M  V30 4 2 4 5
M  V30 5 1 5 6
M  V30 6 2 6 7
M  V30 7 1 6 8
M  V30 8 1 8 9
M  V30 9 2 9 10
M  V30 10 1 10 11
M  V30 11 1 11 12
M  V30 12 2 12 13
M  V30 13 1 12 14
M  V30 14 1 14 15
M  V30 15 1 15 16
M  V30 16 2 16 17
M  V30 17 1 17 18
M  V30 18 1 18 19
M  V30 19 2 11 20
M  V30 20 1 20 21
M  V30 21 2 21 22
M  V30 22 1 22 23
M  V30 23 1 5 24
M  V30 24 2 24 25
M  V30 25 1 25 26
M  V30 26 1 26 27
M  V30 27 2 27 28
M  V30 28 1 28 29
M  V30 29 2 29 30
M  V30 30 1 30 31
M  V30 31 2 31 32
M  V30 32 1 32 33
M  V30 33 1 26 4
M  V30 34 1 32 27
M  V30 35 1 22 9
M  V30 36 2 19 15
M  V30 37 1 1 34
M  V30 38 1 1 35
M  V30 39 1 1 36
M  V30 40 1 2 37
M  V30 41 1 2 38
M  V30 42 1 3 39
M  V30 43 1 8 40
M  V30 44 1 10 41
M  V30 45 1 14 42
M  V30 46 1 16 43
M  V30 47 1 17 44
M  V30 48 1 20 45
M  V30 49 1 21 46
M  V30 50 1 23 47
M  V30 51 1 23 48
M  V30 52 1 23 49
M  V30 53 1 24 50
M  V30 54 1 28 51
M  V30 55 1 29 52
M  V30 56 1 30 53
M  V30 57 1 31 54
M  V30 58 1 33 55
M  V30 59 1 33 56
M  V30 60 1 33 57
M  V30 END BOND
M  V30 END CTAB
M  END
>  <Dataset>  (208) 
ChEMBL_Kinases

>  <Ligand_Instance>  (208) 
nan

>  <PDB_ID>  (208) 
nan

>  <Standardized_SMILES>  (208) 
CCNc1c(C(=O)Nc2cc(C(=O)Nc3ccon3)ccc2C)cnn1-c1ccccc1C

>  <Name>  (208) 
nan

>  <Pocket>  (208) 
nan

>  <ATP_Site>  (208) 
nan

>  <Peripheral>  (208) 
nan

>  <Num_H_Atoms_ProtBoundConf>  (208) 
nan

>  <Num_Resolved_Atoms>  (208) 
nan

>  <Num_Not_Resolved_Atoms>  (208) 
nan

$$$$
CHEMBL1289426
     RDKit          3D

  0  0  0  0  0  0  0  0  0  0999 V3000
M  V30 BEGIN CTAB
M  V30 COUNTS 53 56 0 0 0
M  V30 BEGIN ATOM
M  V30 1 C 2.271957 -2.536953 1.410233 0
M  V30 2 C 2.439252 -3.022770 0.020985 0
M  V30 3 N 1.347807 -2.736955 -0.889146 0
M  V30 4 C -0.001882 -3.086220 -0.816289 0
M  V30 5 C -0.998558 -2.329305 -0.246587 0
M  V30 6 C -0.944651 -1.005357 0.362013 0
M  V30 7 O 0.137990 -0.404058 0.370283 0
M  V30 8 N -2.076302 -0.382806 0.941542 0
M  V30 9 C -2.180369 0.876306 1.560162 0
M  V30 10 C -1.198142 1.793190 1.742085 0
M  V30 11 C -1.320803 3.023096 2.352431 0
M  V30 12 C -0.222000 3.963415 2.515486 0
M  V30 13 O -0.470254 5.065696 3.098293 0
M  V30 14 N 1.099622 3.784409 2.094311 0
M  V30 15 C 2.162376 4.712126 2.260637 0
M  V30 16 C 2.168777 5.959874 2.846177 0
M  V30 17 C 3.457789 6.492872 2.769264 0
M  V30 18 O 4.151282 5.578673 2.162703 0
M  V30 19 N 3.434734 4.542200 1.857119 0
M  V30 20 C -2.580101 3.339313 2.821616 0
M  V30 21 C -3.611603 2.469896 2.674605 0
M  V30 22 C -3.409724 1.258006 2.052594 0
M  V30 23 C -4.582584 0.346181 1.921661 0
M  V30 24 C -2.151097 -3.073923 -0.376408 0
M  V30 25 N -1.805016 -4.207145 -0.999600 0
M  V30 26 N -0.495091 -4.231440 -1.277011 0
M  V30 27 C 0.012120 -5.360983 -1.967390 0
M  V30 28 C 1.318802 -5.486001 -2.372461 0
M  V30 29 C 1.856448 -6.554793 -3.058308 0
M  V30 30 C 1.029197 -7.609301 -3.380821 0
M  V30 31 C -0.282487 -7.497071 -2.981473 0
M  V30 32 N -0.732604 -6.425826 -2.317008 0
M  V30 33 H 1.281111 -2.798153 1.869826 0
M  V30 34 H 3.020828 -3.065584 2.035842 0
M  V30 35 H 2.492697 -1.453187 1.509113 0
M  V30 36 H 3.339933 -2.522793 -0.399397 0
M  V30 37 H 2.670160 -4.107944 0.045240 0
M  V30 38 H 1.474831 -2.191803 -1.770068 0
M  V30 39 H -2.932978 -0.986552 0.874742 0
M  V30 40 H -0.204672 1.576292 1.387156 0
M  V30 41 H 1.312193 2.880373 1.614315 0
M  V30 42 H 1.354493 6.470844 3.293666 0
M  V30 43 H 3.773732 7.467110 3.147356 0
M  V30 44 H -2.795529 4.283084 3.320927 0
M  V30 45 H -4.593447 2.717033 3.040726 0
M  V30 46 H -4.664245 0.089037 0.830044 0
M  V30 47 H -5.504868 0.839723 2.269717 0
M  V30 48 H -4.365470 -0.549542 2.533493 0
M  V30 49 H -3.165173 -2.827123 -0.050483 0
M  V30 50 H 2.039080 -4.721508 -2.181358 0
M  V30 51 H 2.886162 -6.615122 -3.357712 0
M  V30 52 H 1.361875 -8.487187 -3.915690 0
M  V30 53 H -1.019534 -8.265325 -3.181547 0
M  V30 END ATOM
M  V30 BEGIN BOND
M  V30 1 1 1 2
M  V30 2 1 2 3
M  V30 3 1 3 4
M  V30 4 2 4 5
M  V30 5 1 5 6
M  V30 6 2 6 7
M  V30 7 1 6 8
M  V30 8 1 8 9
M  V30 9 2 9 10
M  V30 10 1 10 11
M  V30 11 1 11 12
M  V30 12 2 12 13
M  V30 13 1 12 14
M  V30 14 1 14 15
M  V30 15 1 15 16
M  V30 16 2 16 17
M  V30 17 1 17 18
M  V30 18 1 18 19
M  V30 19 2 11 20
M  V30 20 1 20 21
M  V30 21 2 21 22
M  V30 22 1 22 23
M  V30 23 1 5 24
M  V30 24 2 24 25
M  V30 25 1 25 26
M  V30 26 1 26 27
M  V30 27 2 27 28
M  V30 28 1 28 29
M  V30 29 2 29 30
M  V30 30 1 30 31
M  V30 31 2 31 32
M  V30 32 1 26 4
M  V30 33 1 32 27
M  V30 34 1 22 9
M  V30 35 2 19 15
M  V30 36 1 1 33
M  V30 37 1 1 34
M  V30 38 1 1 35
M  V30 39 1 2 36
M  V30 40 1 2 37
M  V30 41 1 3 38
M  V30 42 1 8 39
M  V30 43 1 10 40
M  V30 44 1 14 41
M  V30 45 1 16 42
M  V30 46 1 17 43
M  V30 47 1 20 44
M  V30 48 1 21 45
M  V30 49 1 23 46
M  V30 50 1 23 47
M  V30 51 1 23 48
M  V30 52 1 24 49
M  V30 53 1 28 50
M  V30 54 1 29 51
M  V30 55 1 30 52
M  V30 56 1 31 53
M  V30 END BOND
M  V30 END CTAB
M  END
>  <Dataset>  (209) 
ChEMBL_Kinases

>  <Ligand_Instance>  (209) 
nan

>  <PDB_ID>  (209) 
nan

>  <Standardized_SMILES>  (209) 
CCNc1c(C(=O)Nc2cc(C(=O)Nc3ccon3)ccc2C)cnn1-c1ccccn1

>  <Name>  (209) 
nan

>  <Pocket>  (209) 
nan

>  <ATP_Site>  (209) 
nan

>  <Peripheral>  (209) 
nan

>  <Num_H_Atoms_ProtBoundConf>  (209) 
nan

>  <Num_Resolved_Atoms>  (209) 
nan

>  <Num_Not_Resolved_Atoms>  (209) 
nan

$$$$
CHEMBL1289309
     RDKit          3D

  0  0  0  0  0  0  0  0  0  0999 V3000
M  V30 BEGIN CTAB
M  V30 COUNTS 54 56 0 0 0
M  V30 BEGIN ATOM
M  V30 1 C 5.179476 -2.629541 6.104673 0
M  V30 2 C 4.111572 -3.335395 5.263335 0
M  V30 3 N 3.587652 -2.463683 4.237369 0
M  V30 4 C 4.416247 -1.898526 3.229584 0
M  V30 5 O 5.626633 -2.193878 3.274302 0
M  V30 6 C 3.939052 -1.011520 2.169187 0
M  V30 7 C 4.895700 -0.562117 1.281022 0
M  V30 8 C 4.509335 0.290019 0.241123 0
M  V30 9 C 3.176567 0.689596 0.090666 0
M  V30 10 C 2.749531 1.594452 -1.008592 0
M  V30 11 C 2.246595 0.216740 1.002760 0
M  V30 12 N 0.893432 0.630987 0.838398 0
M  V30 13 C -0.049699 -0.113287 0.033312 0
M  V30 14 O 0.690984 -1.046170 -0.348703 0
M  V30 15 C -1.411497 0.374247 -0.084922 0
M  V30 16 C -1.851842 1.518147 0.533797 0
M  V30 17 N -3.135839 1.603217 0.171751 0
M  V30 18 N -3.476723 0.606178 -0.603852 0
M  V30 19 C -4.801938 0.543594 -1.077750 0
M  V30 20 C -5.141420 0.763820 -2.403797 0
M  V30 21 C -6.458650 0.685052 -2.790412 0
M  V30 22 C -7.492882 0.395501 -1.932918 0
M  V30 23 C -7.129243 0.180368 -0.618389 0
M  V30 24 C -5.818769 0.253880 -0.209025 0
M  V30 25 C -2.429664 -0.204997 -0.802944 0
M  V30 26 N -2.469174 -1.378166 -1.596629 0
M  V30 27 C -1.474071 -2.361205 -1.921281 0
M  V30 28 C -2.046083 -3.452476 -2.841698 0
M  V30 29 C 2.642063 -0.624942 2.025844 0
M  V30 30 H 5.371079 -3.198331 7.014561 0
M  V30 31 H 4.880402 -1.577557 6.278433 0
M  V30 32 H 6.119815 -2.635550 5.515879 0
M  V30 33 H 3.286762 -3.537026 5.977876 0
M  V30 34 H 4.530080 -4.283078 4.865207 0
M  V30 35 H 2.558260 -2.205017 4.189206 0
M  V30 36 H 5.950042 -0.784896 1.273776 0
M  V30 37 H 5.167836 0.697415 -0.502940 0
M  V30 38 H 1.784322 1.266390 -1.444361 0
M  V30 39 H 3.540216 1.662850 -1.778594 0
M  V30 40 H 2.667605 2.613256 -0.546245 0
M  V30 41 H 0.652680 1.535043 1.364227 0
M  V30 42 H -1.321029 2.211782 1.169160 0
M  V30 43 H -4.358935 0.998259 -3.130984 0
M  V30 44 H -6.661155 0.864897 -3.828620 0
M  V30 45 H -8.529001 0.331982 -2.229089 0
M  V30 46 H -7.875399 -0.052322 0.121539 0
M  V30 47 H -5.584450 0.076337 0.836512 0
M  V30 48 H -3.405884 -1.594852 -2.050992 0
M  V30 49 H -0.658700 -1.912801 -2.524921 0
M  V30 50 H -1.130524 -2.921037 -1.027157 0
M  V30 51 H -1.207517 -4.053106 -3.232671 0
M  V30 52 H -2.612105 -3.004293 -3.667412 0
M  V30 53 H -2.655134 -4.124005 -2.195490 0
M  V30 54 H 1.904347 -0.967688 2.705589 0
M  V30 END ATOM
M  V30 BEGIN BOND
M  V30 1 1 1 2
M  V30 2 1 2 3
M  V30 3 1 3 4
M  V30 4 2 4 5
M  V30 5 1 4 6
M  V30 6 2 6 7
M  V30 7 1 7 8
M  V30 8 2 8 9
M  V30 9 1 9 10
M  V30 10 1 9 11
M  V30 11 1 11 12
M  V30 12 1 12 13
M  V30 13 2 13 14
M  V30 14 1 13 15
M  V30 15 1 15 16
M  V30 16 2 16 17
M  V30 17 1 17 18
M  V30 18 1 18 19
M  V30 19 2 19 20
M  V30 20 1 20 21
M  V30 21 2 21 22
M  V30 22 1 22 23
M  V30 23 2 23 24
M  V30 24 1 18 25
M  V30 25 1 25 26
M  V30 26 1 26 27
M  V30 27 1 27 28
M  V30 28 2 11 29
M  V30 29 1 29 6
M  V30 30 2 25 15
M  V30 31 1 24 19
M  V30 32 1 1 30
M  V30 33 1 1 31
M  V30 34 1 1 32
M  V30 35 1 2 33
M  V30 36 1 2 34
M  V30 37 1 3 35
M  V30 38 1 7 36
M  V30 39 1 8 37
M  V30 40 1 10 38
M  V30 41 1 10 39
M  V30 42 1 10 40
M  V30 43 1 12 41
M  V30 44 1 16 42
M  V30 45 1 20 43
M  V30 46 1 21 44
M  V30 47 1 22 45
M  V30 48 1 23 46
M  V30 49 1 24 47
M  V30 50 1 26 48
M  V30 51 1 27 49
M  V30 52 1 27 50
M  V30 53 1 28 51
M  V30 54 1 28 52
M  V30 55 1 28 53
M  V30 56 1 29 54
M  V30 END BOND
M  V30 END CTAB
M  END
>  <Dataset>  (210) 
ChEMBL_Kinases

>  <Ligand_Instance>  (210) 
nan

>  <PDB_ID>  (210) 
nan

>  <Standardized_SMILES>  (210) 
CCNC(=O)c1ccc(C)c(NC(=O)c2cnn(-c3ccccc3)c2NCC)c1

>  <Name>  (210) 
nan

>  <Pocket>  (210) 
nan

>  <ATP_Site>  (210) 
nan

>  <Peripheral>  (210) 
nan

>  <Num_H_Atoms_ProtBoundConf>  (210) 
nan

>  <Num_Resolved_Atoms>  (210) 
nan

>  <Num_Not_Resolved_Atoms>  (210) 
nan

$$$$
CHEMBL1277294
     RDKit          3D

  0  0  0  0  0  0  0  0  0  0999 V3000
M  V30 BEGIN CTAB
M  V30 COUNTS 48 52 0 0 0
M  V30 BEGIN ATOM
M  V30 1 C -1.005865 1.385565 -2.100473 0
M  V30 2 C -1.208443 0.115807 -1.358324 0
M  V30 3 C -0.417627 -0.341414 -0.402512 0
M  V30 4 C 0.732638 0.502487 -0.090537 0
M  V30 5 O 0.987613 1.597708 -0.663061 0
M  V30 6 N 1.735378 0.244588 0.881498 0
M  V30 7 C 2.712265 1.252434 0.944167 0
M  V30 8 C 3.888560 1.312926 0.220623 0
M  V30 9 C 4.749627 2.378804 0.398835 0
M  V30 10 C 4.421871 3.361870 1.293279 0
M  V30 11 N 5.303505 4.462976 1.482496 0 CHG=1 VAL=4
M  V30 12 O 6.378773 4.580327 0.864100 0
M  V30 13 O 4.993610 5.462243 2.376510 0 CHG=-1 VAL=1
M  V30 14 C 3.259995 3.345351 2.037910 0
M  V30 15 C 2.411727 2.269475 1.844442 0
M  V30 16 C -0.600275 -1.593001 0.374100 0
M  V30 17 C -0.718484 -1.327913 1.833152 0
M  V30 18 C -0.325410 -1.868269 3.057795 0
M  V30 19 C -0.804779 -1.071163 4.075003 0
M  V30 20 C -1.477779 -0.065419 3.435748 0
M  V30 21 O -1.400917 -0.254217 2.162928 0
M  V30 22 N -1.745235 -2.326878 -0.119197 0
M  V30 23 C -2.581292 -1.919784 -1.080688 0
M  V30 24 N -3.563815 -2.811284 -1.306015 0
M  V30 25 C -3.379186 -3.851811 -0.467711 0
M  V30 26 C -4.130050 -4.987957 -0.342943 0
M  V30 27 C -3.718257 -5.900816 0.596406 0
M  V30 28 C -2.604520 -5.665501 1.362576 0
M  V30 29 C -1.900424 -4.503983 1.182571 0
M  V30 30 C -2.232376 -3.521120 0.263596 0
M  V30 31 N -2.319909 -0.680452 -1.716442 0
M  V30 32 H -1.840118 1.534807 -2.847639 0
M  V30 33 H -1.075111 2.291920 -1.448138 0
M  V30 34 H -0.093209 1.425569 -2.701955 0
M  V30 35 H 1.669524 -0.632998 1.439602 0
M  V30 36 H 4.043511 0.489357 -0.450853 0
M  V30 37 H 5.660680 2.393941 -0.183530 0
M  V30 38 H 3.031620 4.136718 2.734854 0
M  V30 39 H 1.504428 2.290448 2.449387 0
M  V30 40 H 0.299720 -2.212723 0.204667 0
M  V30 41 H 0.266319 -2.782107 2.976343 0
M  V30 42 H -0.605643 -1.323556 5.088616 0
M  V30 43 H -1.975871 0.734659 3.976909 0
M  V30 44 H -4.993013 -5.146578 -0.952219 0
M  V30 45 H -4.282767 -6.815022 0.729663 0
M  V30 46 H -2.290590 -6.404323 2.106724 0
M  V30 47 H -1.047242 -4.372238 1.797907 0
M  V30 48 H -2.969131 -0.356666 -2.465443 0
M  V30 END ATOM
M  V30 BEGIN BOND
M  V30 1 1 1 2
M  V30 2 2 2 3
M  V30 3 1 3 4
M  V30 4 2 4 5
M  V30 5 1 4 6
M  V30 6 1 6 7
M  V30 7 2 7 8
M  V30 8 1 8 9
M  V30 9 2 9 10
M  V30 10 1 10 11
M  V30 11 2 11 12
M  V30 12 1 11 13
M  V30 13 1 10 14
M  V30 14 2 14 15
M  V30 15 1 3 16
M  V30 16 1 16 17
M  V30 17 2 17 18
M  V30 18 1 18 19
M  V30 19 2 19 20
M  V30 20 1 20 21
M  V30 21 1 16 22
M  V30 22 1 22 23
M  V30 23 2 23 24
M  V30 24 1 24 25
M  V30 25 2 25 26
M  V30 26 1 26 27
M  V30 27 2 27 28
M  V30 28 1 28 29
M  V30 29 2 29 30
M  V30 30 1 23 31
M  V30 31 1 31 2
M  V30 32 1 15 7
M  V30 33 1 21 17
M  V30 34 1 30 22
M  V30 35 1 30 25
M  V30 36 1 1 32
M  V30 37 1 1 33
M  V30 38 1 1 34
M  V30 39 1 6 35
M  V30 40 1 8 36
M  V30 41 1 9 37
M  V30 42 1 14 38
M  V30 43 1 15 39
M  V30 44 1 16 40
M  V30 45 1 18 41
M  V30 46 1 19 42
M  V30 47 1 20 43
M  V30 48 1 26 44
M  V30 49 1 27 45
M  V30 50 1 28 46
M  V30 51 1 29 47
M  V30 52 1 31 48
M  V30 END BOND
M  V30 END CTAB
M  END
>  <Dataset>  (211) 
ChEMBL_Kinases

>  <Ligand_Instance>  (211) 
nan

>  <PDB_ID>  (211) 
nan

>  <Standardized_SMILES>  (211) 
CC1=C(C(=O)Nc2ccc([N+](=O)[O-])cc2)C(c2ccco2)n2c(nc3ccccc32)N1

>  <Name>  (211) 
nan

>  <Pocket>  (211) 
nan

>  <ATP_Site>  (211) 
nan

>  <Peripheral>  (211) 
nan

>  <Num_H_Atoms_ProtBoundConf>  (211) 
nan

>  <Num_Resolved_Atoms>  (211) 
nan

>  <Num_Not_Resolved_Atoms>  (211) 
nan

$$$$
CHEMBL1277382
     RDKit          3D

  0  0  0  0  0  0  0  0  0  0999 V3000
M  V30 BEGIN CTAB
M  V30 COUNTS 49 53 0 0 0
M  V30 BEGIN ATOM
M  V30 1 C 2.367390 -2.721802 2.831226 0
M  V30 2 C 1.029579 -2.825908 2.206481 0
M  V30 3 C 0.720209 -1.866907 1.371715 0
M  V30 4 C 1.394734 -0.704111 0.905013 0
M  V30 5 O 0.929887 0.146836 0.067099 0
M  V30 6 N 2.641769 -0.076196 1.109683 0
M  V30 7 C 2.850396 1.139673 0.365323 0
M  V30 8 C 2.430966 2.278212 1.046745 0
M  V30 9 C 2.581511 3.511002 0.428771 0
M  V30 10 C 3.144274 3.585064 -0.849862 0
M  V30 11 C 3.313090 4.901190 -1.527749 0
M  V30 12 F 2.223420 5.730892 -1.321228 0
M  V30 13 F 3.400093 4.703605 -2.889372 0
M  V30 14 F 4.485158 5.516369 -1.121449 0
M  V30 15 C 3.554536 2.442735 -1.509867 0
M  V30 16 C 3.405682 1.212325 -0.896228 0
M  V30 17 C -0.620771 -1.899891 0.720534 0
M  V30 18 C -1.307766 -0.602761 1.057404 0
M  V30 19 C -2.008154 0.395915 0.412508 0
M  V30 20 C -2.398216 1.359601 1.303306 0
M  V30 21 C -1.904045 0.897974 2.503404 0
M  V30 22 O -1.277707 -0.238525 2.333298 0
M  V30 23 N -1.392206 -3.038955 1.052441 0
M  V30 24 C -1.035230 -4.003029 1.915606 0
M  V30 25 N -2.035902 -4.884068 1.963516 0
M  V30 26 C -3.029256 -4.469563 1.121853 0
M  V30 27 C -4.221156 -5.118902 0.898632 0
M  V30 28 C -5.053840 -4.492724 -0.004006 0
M  V30 29 C -4.740304 -3.313000 -0.643092 0
M  V30 30 C -3.519474 -2.747871 -0.345218 0
M  V30 31 C -2.606163 -3.279962 0.538388 0
M  V30 32 N 0.225085 -3.936082 2.547773 0
M  V30 33 H 2.379436 -1.838609 3.465481 0
M  V30 34 H 2.509227 -3.575974 3.571278 0
M  V30 35 H 3.182291 -2.840034 2.104533 0
M  V30 36 H 3.219657 -0.596651 1.771905 0
M  V30 37 H 1.989393 2.248635 2.043535 0
M  V30 38 H 2.265513 4.410461 0.932675 0
M  V30 39 H 3.996987 2.467481 -2.507531 0
M  V30 40 H 3.689660 0.271698 -1.318975 0
M  V30 41 H -0.473062 -1.896987 -0.401726 0
M  V30 42 H -2.129900 0.257060 -0.660826 0
M  V30 43 H -2.952886 2.223435 1.016512 0
M  V30 44 H -2.041418 1.443526 3.449439 0
M  V30 45 H -4.480015 -6.026790 1.380432 0
M  V30 46 H -6.008726 -4.942671 -0.231334 0
M  V30 47 H -5.408356 -2.831202 -1.353225 0
M  V30 48 H -3.268609 -1.844335 -0.835578 0
M  V30 49 H 0.576125 -4.637631 3.226357 0
M  V30 END ATOM
M  V30 BEGIN BOND
M  V30 1 1 1 2
M  V30 2 2 2 3
M  V30 3 1 3 4
M  V30 4 2 4 5
M  V30 5 1 4 6
M  V30 6 1 6 7
M  V30 7 2 7 8
M  V30 8 1 8 9
M  V30 9 2 9 10
M  V30 10 1 10 11
M  V30 11 1 11 12
M  V30 12 1 11 13
M  V30 13 1 11 14
M  V30 14 1 10 15
M  V30 15 2 15 16
M  V30 16 1 3 17
M  V30 17 1 17 18
M  V30 18 2 18 19
M  V30 19 1 19 20
M  V30 20 2 20 21
M  V30 21 1 21 22
M  V30 22 1 17 23
M  V30 23 1 23 24
M  V30 24 2 24 25
M  V30 25 1 25 26
M  V30 26 2 26 27
M  V30 27 1 27 28
M  V30 28 2 28 29
M  V30 29 1 29 30
M  V30 30 2 30 31
M  V30 31 1 24 32
M  V30 32 1 32 2
M  V30 33 1 16 7
M  V30 34 1 22 18
M  V30 35 1 31 23
M  V30 36 1 31 26
M  V30 37 1 1 33
M  V30 38 1 1 34
M  V30 39 1 1 35
M  V30 40 1 6 36
M  V30 41 1 8 37
M  V30 42 1 9 38
M  V30 43 1 15 39
M  V30 44 1 16 40
M  V30 45 1 17 41
M  V30 46 1 19 42
M  V30 47 1 20 43
M  V30 48 1 21 44
M  V30 49 1 27 45
M  V30 50 1 28 46
M  V30 51 1 29 47
M  V30 52 1 30 48
M  V30 53 1 32 49
M  V30 END BOND
M  V30 END CTAB
M  END
>  <Dataset>  (212) 
ChEMBL_Kinases

>  <Ligand_Instance>  (212) 
nan

>  <PDB_ID>  (212) 
nan

>  <Standardized_SMILES>  (212) 
CC1=C(C(=O)Nc2ccc(C(F)(F)F)cc2)C(c2ccco2)n2c(nc3ccccc32)N1

>  <Name>  (212) 
nan

>  <Pocket>  (212) 
nan

>  <ATP_Site>  (212) 
nan

>  <Peripheral>  (212) 
nan

>  <Num_H_Atoms_ProtBoundConf>  (212) 
nan

>  <Num_Resolved_Atoms>  (212) 
nan

>  <Num_Not_Resolved_Atoms>  (212) 
nan

$$$$
CHEMBL1277383
     RDKit          3D

  0  0  0  0  0  0  0  0  0  0999 V3000
M  V30 BEGIN CTAB
M  V30 COUNTS 46 50 0 0 0
M  V30 BEGIN ATOM
M  V30 1 C -1.653630 2.124520 2.312823 0
M  V30 2 C -1.503282 0.669558 2.177712 0
M  V30 3 C -0.409931 0.269998 1.572899 0
M  V30 4 C 0.715290 0.959859 0.992409 0
M  V30 5 O 1.719095 0.394523 0.429713 0
M  V30 6 N 1.115288 2.301786 0.827719 0
M  V30 7 C 2.363217 2.489652 0.162096 0
M  V30 8 C 3.533878 2.538540 0.913830 0
M  V30 9 C 4.770327 2.718017 0.326302 0
M  V30 10 C 4.869294 2.854832 -1.043952 0
M  V30 11 F 6.073284 3.031892 -1.640804 0
M  V30 12 C 3.720671 2.810347 -1.819197 0
M  V30 13 Cl 3.824228 2.980517 -3.544839 0
M  V30 14 C 2.499019 2.630244 -1.208723 0
M  V30 15 C -0.199488 -1.198153 1.389838 0
M  V30 16 C -0.083089 -1.375828 -0.099072 0
M  V30 17 C -0.886086 -0.670463 -1.004405 0
M  V30 18 C -0.582106 -1.013001 -2.300942 0
M  V30 19 C 0.414357 -1.932075 -2.127666 0
M  V30 20 O 0.678658 -2.119512 -0.858768 0
M  V30 21 N -1.228224 -1.983255 1.955851 0
M  V30 22 C -2.346251 -1.594934 2.574461 0
M  V30 23 N -3.078579 -2.647389 2.960962 0
M  V30 24 C -2.375109 -3.720736 2.560903 0
M  V30 25 C -2.739455 -5.037342 2.744898 0
M  V30 26 C -1.881468 -6.000452 2.264594 0
M  V30 27 C -0.711763 -5.695805 1.628597 0
M  V30 28 C -0.425062 -4.359163 1.487225 0
M  V30 29 C -1.203838 -3.311801 1.924855 0
M  V30 30 N -2.499349 -0.194065 2.695197 0
M  V30 31 H -1.815577 2.676915 1.377632 0
M  V30 32 H -0.902033 2.550974 3.012960 0
M  V30 33 H -2.623159 2.326001 2.878189 0
M  V30 34 H 0.435383 2.959882 1.219143 0
M  V30 35 H 3.523585 2.436337 2.007075 0
M  V30 36 H 5.705037 2.761649 0.876859 0
M  V30 37 H 1.586969 2.592378 -1.796834 0
M  V30 38 H 0.793730 -1.479679 1.823912 0
M  V30 39 H -1.655977 0.059533 -0.706355 0
M  V30 40 H -0.986954 -0.679078 -3.228482 0
M  V30 41 H 0.988426 -2.499816 -2.858435 0
M  V30 42 H -3.656909 -5.316816 3.243382 0
M  V30 43 H -2.142164 -7.040571 2.395045 0
M  V30 44 H -0.021352 -6.441988 1.242552 0
M  V30 45 H 0.497927 -4.106381 0.989993 0
M  V30 46 H -3.328531 0.233879 3.156747 0
M  V30 END ATOM
M  V30 BEGIN BOND
M  V30 1 1 1 2
M  V30 2 2 2 3
M  V30 3 1 3 4
M  V30 4 2 4 5
M  V30 5 1 4 6
M  V30 6 1 6 7
M  V30 7 2 7 8
M  V30 8 1 8 9
M  V30 9 2 9 10
M  V30 10 1 10 11
M  V30 11 1 10 12
M  V30 12 1 12 13
M  V30 13 2 12 14
M  V30 14 1 3 15
M  V30 15 1 15 16
M  V30 16 2 16 17
M  V30 17 1 17 18
M  V30 18 2 18 19
M  V30 19 1 19 20
M  V30 20 1 15 21
M  V30 21 1 21 22
M  V30 22 2 22 23
M  V30 23 1 23 24
M  V30 24 2 24 25
M  V30 25 1 25 26
M  V30 26 2 26 27
M  V30 27 1 27 28
M  V30 28 2 28 29
M  V30 29 1 22 30
M  V30 30 1 30 2
M  V30 31 1 14 7
M  V30 32 1 20 16
M  V30 33 1 29 21
M  V30 34 1 29 24
M  V30 35 1 1 31
M  V30 36 1 1 32
M  V30 37 1 1 33
M  V30 38 1 6 34
M  V30 39 1 8 35
M  V30 40 1 9 36
M  V30 41 1 14 37
M  V30 42 1 15 38
M  V30 43 1 17 39
M  V30 44 1 18 40
M  V30 45 1 19 41
M  V30 46 1 25 42
M  V30 47 1 26 43
M  V30 48 1 27 44
M  V30 49 1 28 45
M  V30 50 1 30 46
M  V30 END BOND
M  V30 END CTAB
M  END
>  <Dataset>  (213) 
ChEMBL_Kinases

>  <Ligand_Instance>  (213) 
nan

>  <PDB_ID>  (213) 
nan

>  <Standardized_SMILES>  (213) 
CC1=C(C(=O)Nc2ccc(F)c(Cl)c2)C(c2ccco2)n2c(nc3ccccc32)N1

>  <Name>  (213) 
nan

>  <Pocket>  (213) 
nan

>  <ATP_Site>  (213) 
nan

>  <Peripheral>  (213) 
nan

>  <Num_H_Atoms_ProtBoundConf>  (213) 
nan

>  <Num_Resolved_Atoms>  (213) 
nan

>  <Num_Not_Resolved_Atoms>  (213) 
nan

$$$$
CHEMBL1277473
     RDKit          3D

  0  0  0  0  0  0  0  0  0  0999 V3000
M  V30 BEGIN CTAB
M  V30 COUNTS 46 50 0 0 0
M  V30 BEGIN ATOM
M  V30 1 C -3.092217 1.250971 0.201760 0
M  V30 2 C -2.251081 0.465990 1.102160 0
M  V30 3 C -0.997969 0.270028 0.776269 0
M  V30 4 C -0.232700 0.705292 -0.371365 0
M  V30 5 O 1.005442 0.453141 -0.590013 0
M  V30 6 N -0.397918 1.449210 -1.559744 0
M  V30 7 C 0.828864 1.513628 -2.315505 0
M  V30 8 C 1.651218 2.578072 -2.015831 0
M  V30 9 C 2.820521 2.619488 -2.752582 0
M  V30 10 C 3.171490 1.703680 -3.706712 0
M  V30 11 F 4.310390 1.743211 -4.425618 0
M  V30 12 C 2.291840 0.647577 -3.961844 0
M  V30 13 C 1.105388 0.546288 -3.261259 0
M  V30 14 C -0.066339 -0.531151 1.612482 0
M  V30 15 C 0.529956 -1.634287 0.805974 0
M  V30 16 C 1.771402 -2.215980 0.518332 0
M  V30 17 C 1.574458 -3.260383 -0.357147 0
M  V30 18 C 0.212025 -3.263752 -0.561260 0
M  V30 19 O -0.356439 -2.321233 0.118292 0
M  V30 20 N -0.716174 -0.956520 2.790439 0
M  V30 21 C -1.992435 -0.782456 3.168708 0
M  V30 22 N -2.214026 -1.361116 4.358729 0
M  V30 23 C -1.032653 -1.921636 4.749092 0
M  V30 24 C -0.836598 -2.607218 5.916695 0
M  V30 25 C 0.440185 -3.086549 6.114207 0
M  V30 26 C 1.434491 -2.879851 5.190511 0
M  V30 27 C 1.135254 -2.176608 4.046204 0
M  V30 28 C -0.106720 -1.654888 3.749928 0
M  V30 29 N -2.815091 -0.040166 2.297572 0
M  V30 30 H -2.746447 2.303613 0.097029 0
M  V30 31 H -3.262350 0.831414 -0.795062 0
M  V30 32 H -4.111001 1.397358 0.694602 0
M  V30 33 H -1.380387 1.789495 -1.627175 0
M  V30 34 H 1.423709 3.326007 -1.275454 0
M  V30 35 H 3.555606 3.406150 -2.614929 0
M  V30 36 H 2.559530 -0.083026 -4.715481 0
M  V30 37 H 0.423707 -0.263184 -3.452160 0
M  V30 38 H 0.794881 0.128159 1.921435 0
M  V30 39 H 2.597882 -1.723210 1.040155 0
M  V30 40 H 2.442002 -3.817652 -0.680757 0
M  V30 41 H -0.208866 -4.021379 -1.237342 0
M  V30 42 H -1.601627 -2.771332 6.637555 0
M  V30 43 H 0.675617 -3.633228 7.001027 0
M  V30 44 H 2.422951 -3.276818 5.390006 0
M  V30 45 H 1.944233 -2.032245 3.352549 0
M  V30 46 H -3.815707 0.140629 2.513430 0
M  V30 END ATOM
M  V30 BEGIN BOND
M  V30 1 1 1 2
M  V30 2 2 2 3
M  V30 3 1 3 4
M  V30 4 2 4 5
M  V30 5 1 4 6
M  V30 6 1 6 7
M  V30 7 2 7 8
M  V30 8 1 8 9
M  V30 9 2 9 10
M  V30 10 1 10 11
M  V30 11 1 10 12
M  V30 12 2 12 13
M  V30 13 1 3 14
M  V30 14 1 14 15
M  V30 15 2 15 16
M  V30 16 1 16 17
M  V30 17 2 17 18
M  V30 18 1 18 19
M  V30 19 1 14 20
M  V30 20 1 20 21
M  V30 21 2 21 22
M  V30 22 1 22 23
M  V30 23 2 23 24
M  V30 24 1 24 25
M  V30 25 2 25 26
M  V30 26 1 26 27
M  V30 27 2 27 28
M  V30 28 1 21 29
M  V30 29 1 29 2
M  V30 30 1 13 7
M  V30 31 1 19 15
M  V30 32 1 28 20
M  V30 33 1 28 23
M  V30 34 1 1 30
M  V30 35 1 1 31
M  V30 36 1 1 32
M  V30 37 1 6 33
M  V30 38 1 8 34
M  V30 39 1 9 35
M  V30 40 1 12 36
M  V30 41 1 13 37
M  V30 42 1 14 38
M  V30 43 1 16 39
M  V30 44 1 17 40
M  V30 45 1 18 41
M  V30 46 1 24 42
M  V30 47 1 25 43
M  V30 48 1 26 44
M  V30 49 1 27 45
M  V30 50 1 29 46
M  V30 END BOND
M  V30 END CTAB
M  END
>  <Dataset>  (214) 
ChEMBL_Kinases

>  <Ligand_Instance>  (214) 
nan

>  <PDB_ID>  (214) 
nan

>  <Standardized_SMILES>  (214) 
CC1=C(C(=O)Nc2ccc(F)cc2)C(c2ccco2)n2c(nc3ccccc32)N1

>  <Name>  (214) 
nan

>  <Pocket>  (214) 
nan

>  <ATP_Site>  (214) 
nan

>  <Peripheral>  (214) 
nan

>  <Num_H_Atoms_ProtBoundConf>  (214) 
nan

>  <Num_Resolved_Atoms>  (214) 
nan

>  <Num_Not_Resolved_Atoms>  (214) 
nan

$$$$
CHEMBL1277862
     RDKit          3D

  0  0  0  0  0  0  0  0  0  0999 V3000
M  V30 BEGIN CTAB
M  V30 COUNTS 43 47 0 0 0
M  V30 BEGIN ATOM
M  V30 1 O 3.441536 -1.125912 4.469855 0
M  V30 2 C 2.983354 -2.017332 3.713776 0
M  V30 3 N 3.024049 -3.452185 3.818921 0
M  V30 4 C 2.359126 -4.005920 2.702824 0
M  V30 5 O 2.331505 -5.244478 2.685554 0
M  V30 6 C 1.865130 -2.969138 1.837409 0
M  V30 7 C 2.243609 -1.803522 2.451430 0
M  V30 8 C 1.913746 -0.578960 1.865248 0
M  V30 9 C 1.201349 -0.569221 0.659345 0
M  V30 10 C 0.883280 0.771484 0.117143 0
M  V30 11 O 1.662534 1.645815 -0.368584 0
M  V30 12 N -0.479571 1.111621 0.152584 0
M  V30 13 C -1.137223 2.346779 -0.294046 0
M  V30 14 C -0.930079 3.458322 0.667940 0
M  V30 15 C 0.032063 4.454367 0.692045 0
M  V30 16 C 0.078905 5.410843 1.685629 0
M  V30 17 C -0.819496 5.445538 2.718010 0
M  V30 18 C -1.785608 4.465346 2.715035 0
M  V30 19 C -1.842230 3.508540 1.731026 0
M  V30 20 C 0.852765 -1.764680 0.095086 0
M  V30 21 N 0.183061 -1.997330 -1.033229 0
M  V30 22 C 0.093686 -3.344267 -1.153337 0
M  V30 23 C -0.519313 -4.074312 -2.172675 0
M  V30 24 C -0.537459 -5.434659 -2.168783 0
M  V30 25 C 0.083557 -6.088706 -1.101539 0
M  V30 26 C 0.672978 -5.320692 -0.124121 0
M  V30 27 C 0.715966 -3.960817 -0.085700 0
M  V30 28 C 1.182172 -2.951181 0.680143 0
M  V30 29 H 3.512890 -3.848190 4.658620 0
M  V30 30 H 2.202140 0.369083 2.331624 0
M  V30 31 H -1.187220 0.419950 0.548274 0
M  V30 32 H -2.197213 2.205378 -0.489948 0
M  V30 33 H -0.684062 2.653868 -1.280662 0
M  V30 34 H 0.717169 4.381145 -0.153180 0
M  V30 35 H 0.870483 6.140368 1.604258 0
M  V30 36 H -0.803421 6.170389 3.496723 0
M  V30 37 H -2.534276 4.445483 3.524995 0
M  V30 38 H -2.643999 2.769545 1.810285 0
M  V30 39 H -0.208216 -1.285159 -1.714628 0
M  V30 40 H -1.010914 -3.610495 -3.014829 0
M  V30 41 H -1.005675 -6.029724 -2.944172 0
M  V30 42 H 0.071827 -7.178017 -1.092366 0
M  V30 43 H 1.122061 -5.898346 0.646812 0
M  V30 END ATOM
M  V30 BEGIN BOND
M  V30 1 2 1 2
M  V30 2 1 2 3
M  V30 3 1 3 4
M  V30 4 2 4 5
M  V30 5 1 4 6
M  V30 6 2 6 7
M  V30 7 1 7 8
M  V30 8 2 8 9
M  V30 9 1 9 10
M  V30 10 2 10 11
M  V30 11 1 10 12
M  V30 12 1 12 13
M  V30 13 1 13 14
M  V30 14 2 14 15
M  V30 15 1 15 16
M  V30 16 2 16 17
M  V30 17 1 17 18
M  V30 18 2 18 19
M  V30 19 1 9 20
M  V30 20 1 20 21
M  V30 21 1 21 22
M  V30 22 2 22 23
M  V30 23 1 23 24
M  V30 24 2 24 25
M  V30 25 1 25 26
M  V30 26 2 26 27
M  V30 27 1 27 28
M  V30 28 1 7 2
M  V30 29 1 19 14
M  V30 30 2 28 20
M  V30 31 1 28 6
M  V30 32 1 27 22
M  V30 33 1 3 29
M  V30 34 1 8 30
M  V30 35 1 12 31
M  V30 36 1 13 32
M  V30 37 1 13 33
M  V30 38 1 15 34
M  V30 39 1 16 35
M  V30 40 1 17 36
M  V30 41 1 18 37
M  V30 42 1 19 38
M  V30 43 1 21 39
M  V30 44 1 23 40
M  V30 45 1 24 41
M  V30 46 1 25 42
M  V30 47 1 26 43
M  V30 END BOND
M  V30 END CTAB
M  END
>  <Dataset>  (215) 
ChEMBL_Kinases

>  <Ligand_Instance>  (215) 
nan

>  <PDB_ID>  (215) 
nan

>  <Standardized_SMILES>  (215) 
O=C1NC(=O)c2c1cc(C(=O)NCc1ccccc1)c1[nH]c3ccccc3c21

>  <Name>  (215) 
nan

>  <Pocket>  (215) 
nan

>  <ATP_Site>  (215) 
nan

>  <Peripheral>  (215) 
nan

>  <Num_H_Atoms_ProtBoundConf>  (215) 
nan

>  <Num_Resolved_Atoms>  (215) 
nan

>  <Num_Not_Resolved_Atoms>  (215) 
nan

$$$$
CHEMBL127798
     RDKit          3D

  0  0  0  0  0  0  0  0  0  0999 V3000
M  V30 BEGIN CTAB
M  V30 COUNTS 30 32 0 0 0
M  V30 BEGIN ATOM
M  V30 1 O -0.847090 -1.267956 4.275398 0
M  V30 2 C 0.277126 -1.226736 3.717258 0
M  V30 3 N 1.544770 -1.413863 4.330579 0
M  V30 4 C 2.499854 -1.268563 3.269759 0
M  V30 5 C 3.867224 -1.369673 3.395496 0
M  V30 6 C 4.649742 -1.203064 2.273386 0
M  V30 7 C 4.026873 -0.936645 1.043909 0
M  V30 8 Br 5.289490 -0.740139 -0.381930 0
M  V30 9 C 2.651506 -0.848780 0.991045 0
M  V30 10 C 1.867678 -1.008888 2.078972 0
M  V30 11 C 0.454866 -0.970781 2.302129 0
M  V30 12 C -0.417240 -0.749227 1.386626 0
M  V30 13 C -0.241859 -0.496005 -0.013283 0
M  V30 14 O 0.529817 -0.362513 -0.956327 0
M  V30 15 C -1.420605 -0.274229 -0.837114 0
M  V30 16 C -1.462603 -0.019734 -2.178081 0
M  V30 17 C -2.620816 0.188866 -2.937980 0
M  V30 18 C -3.827555 0.135110 -2.287792 0
M  V30 19 F -4.925503 0.343061 -3.062452 0
M  V30 20 C -3.848881 -0.118011 -0.935021 0
M  V30 21 C -2.674476 -0.313800 -0.248141 0
M  V30 22 H 1.685142 -1.613263 5.348980 0
M  V30 23 H 4.324936 -1.574649 4.347919 0
M  V30 24 H 5.711484 -1.290887 2.420535 0
M  V30 25 H 2.451313 -0.650187 -0.004995 0
M  V30 26 H -1.419284 -0.765076 1.773169 0
M  V30 27 H -0.559409 0.036683 -2.750786 0
M  V30 28 H -2.557823 0.384239 -3.996176 0
M  V30 29 H -4.858368 -0.133153 -0.549758 0
M  V30 30 H -2.947433 -0.489277 0.767584 0
M  V30 END ATOM
M  V30 BEGIN BOND
M  V30 1 2 1 2
M  V30 2 1 2 3
M  V30 3 1 3 4
M  V30 4 2 4 5
M  V30 5 1 5 6
M  V30 6 2 6 7
M  V30 7 1 7 8
M  V30 8 1 7 9
M  V30 9 2 9 10
M  V30 10 1 10 11
M  V30 11 2 11 12
M  V30 12 1 12 13
M  V30 13 2 13 14
M  V30 14 1 13 15
M  V30 15 2 15 16
M  V30 16 1 16 17
M  V30 17 2 17 18
M  V30 18 1 18 19
M  V30 19 1 18 20
M  V30 20 2 20 21
M  V30 21 1 11 2
M  V30 22 1 21 15
M  V30 23 1 10 4
M  V30 24 1 3 22
M  V30 25 1 5 23
M  V30 26 1 6 24
M  V30 27 1 9 25
M  V30 28 1 12 26
M  V30 29 1 16 27
M  V30 30 1 17 28
M  V30 31 1 20 29
M  V30 32 1 21 30
M  V30 END BOND
M  V30 END CTAB
M  END
>  <Dataset>  (216) 
ChEMBL_Kinases

>  <Ligand_Instance>  (216) 
nan

>  <PDB_ID>  (216) 
nan

>  <Standardized_SMILES>  (216) 
O=C1Nc2ccc(Br)cc2/C1=C\C(=O)c1ccc(F)cc1

>  <Name>  (216) 
nan

>  <Pocket>  (216) 
nan

>  <ATP_Site>  (216) 
nan

>  <Peripheral>  (216) 
nan

>  <Num_H_Atoms_ProtBoundConf>  (216) 
nan

>  <Num_Resolved_Atoms>  (216) 
nan

>  <Num_Not_Resolved_Atoms>  (216) 
nan

$$$$
CHEMBL1278026
     RDKit          3D

  0  0  0  0  0  0  0  0  0  0999 V3000
M  V30 BEGIN CTAB
M  V30 COUNTS 47 51 0 0 0
M  V30 BEGIN ATOM
M  V30 1 N -0.729930 -0.267652 4.093114 0
M  V30 2 C 0.492274 -0.815777 4.557516 0
M  V30 3 O 0.284183 -1.584523 5.514827 0
M  V30 4 C 1.769723 -0.470106 3.941355 0
M  V30 5 C 2.740889 -1.389598 4.336470 0
M  V30 6 C 4.004408 -1.259135 3.771720 0
M  V30 7 C 4.154206 -0.213619 2.858417 0
M  V30 8 C 3.117634 0.664332 2.511022 0
M  V30 9 C 3.514383 1.547859 1.310569 0
M  V30 10 N 2.578381 0.946362 0.325586 0
M  V30 11 C 1.366932 1.514054 -0.211880 0
M  V30 12 O 0.999982 2.684228 -0.005473 0
M  V30 13 C 0.784925 0.368722 -0.954920 0
M  V30 14 C 1.367366 -0.615953 -1.691068 0
M  V30 15 C 0.508876 -1.693172 -2.003051 0
M  V30 16 C -0.803029 -1.790576 -1.629334 0
M  V30 17 C -1.350630 -0.776615 -0.899378 0
M  V30 18 C -0.560621 0.324261 -0.552355 0
M  V30 19 N -1.432121 1.099977 0.121690 0
M  V30 20 C -2.680877 0.552275 0.210046 0
M  V30 21 C -3.785237 1.088907 0.854395 0
M  V30 22 C -4.943813 0.320687 0.845571 0
M  V30 23 C -4.952826 -0.927829 0.208918 0
M  V30 24 C -3.795284 -1.308148 -0.384603 0
M  V30 25 C -2.620898 -0.663023 -0.445473 0
M  V30 26 C -1.255653 -3.061042 -2.164209 0
M  V30 27 O -2.346280 -3.644011 -2.122908 0
M  V30 28 N -0.179711 -3.679882 -2.842998 0
M  V30 29 C 0.989267 -2.830787 -2.767796 0
M  V30 30 O 2.094558 -3.124486 -3.283691 0
M  V30 31 C 1.882730 0.560330 3.053029 0
M  V30 32 H -1.607176 0.210362 3.814415 0
M  V30 33 H -1.207445 -0.889988 3.377372 0
M  V30 34 H 2.573180 -2.176224 5.035424 0
M  V30 35 H 4.829880 -1.905928 3.994250 0
M  V30 36 H 5.162146 -0.148338 2.441126 0
M  V30 37 H 4.554778 1.404317 1.021691 0
M  V30 38 H 3.291703 2.588214 1.515207 0
M  V30 39 H 3.013602 -0.007613 0.123082 0
M  V30 40 H 2.373236 -0.396328 -1.899024 0
M  V30 41 H -1.178212 2.051854 0.532273 0
M  V30 42 H -3.778598 2.056816 1.341815 0
M  V30 43 H -5.811178 0.753840 1.368903 0
M  V30 44 H -5.904118 -1.406754 0.292946 0
M  V30 45 H -3.887302 -2.269102 -0.833318 0
M  V30 46 H -0.165982 -4.608819 -3.345885 0
M  V30 47 H 1.117764 1.243359 2.786211 0
M  V30 END ATOM
M  V30 BEGIN BOND
M  V30 1 1 1 2
M  V30 2 2 2 3
M  V30 3 1 2 4
M  V30 4 2 4 5
M  V30 5 1 5 6
M  V30 6 2 6 7
M  V30 7 1 7 8
M  V30 8 1 8 9
M  V30 9 1 9 10
M  V30 10 1 10 11
M  V30 11 2 11 12
M  V30 12 1 11 13
M  V30 13 2 13 14
M  V30 14 1 14 15
M  V30 15 2 15 16
M  V30 16 1 16 17
M  V30 17 2 17 18
M  V30 18 1 18 19
M  V30 19 1 19 20
M  V30 20 2 20 21
M  V30 21 1 21 22
M  V30 22 2 22 23
M  V30 23 1 23 24
M  V30 24 2 24 25
M  V30 25 1 16 26
M  V30 26 2 26 27
M  V30 27 1 26 28
M  V30 28 1 28 29
M  V30 29 2 29 30
M  V30 30 2 8 31
M  V30 31 1 31 4
M  V30 32 1 18 13
M  V30 33 1 25 20
M  V30 34 1 29 15
M  V30 35 1 25 17
M  V30 36 1 1 32
M  V30 37 1 1 33
M  V30 38 1 5 34
M  V30 39 1 6 35
M  V30 40 1 7 36
M  V30 41 1 9 37
M  V30 42 1 9 38
M  V30 43 1 10 39
M  V30 44 1 14 40
M  V30 45 1 19 41
M  V30 46 1 21 42
M  V30 47 1 22 43
M  V30 48 1 23 44
M  V30 49 1 24 45
M  V30 50 1 28 46
M  V30 51 1 31 47
M  V30 END BOND
M  V30 END CTAB
M  END
>  <Dataset>  (217) 
ChEMBL_Kinases

>  <Ligand_Instance>  (217) 
nan

>  <PDB_ID>  (217) 
nan

>  <Standardized_SMILES>  (217) 
NC(=O)c1cccc(CNC(=O)c2cc3c(c4c2[nH]c2ccccc24)C(=O)NC3=O)c1

>  <Name>  (217) 
nan

>  <Pocket>  (217) 
nan

>  <ATP_Site>  (217) 
nan

>  <Peripheral>  (217) 
nan

>  <Num_H_Atoms_ProtBoundConf>  (217) 
nan

>  <Num_Resolved_Atoms>  (217) 
nan

>  <Num_Not_Resolved_Atoms>  (217) 
nan

$$$$
CHEMBL1278120
     RDKit          3D

  0  0  0  0  0  0  0  0  0  0999 V3000
M  V30 BEGIN CTAB
M  V30 COUNTS 55 59 0 0 0
M  V30 BEGIN ATOM
M  V30 1 N 1.478644 -1.942310 4.368519 0
M  V30 2 C 2.811258 -1.578551 4.798422 0
M  V30 3 C 3.809990 -1.657036 3.669874 0
M  V30 4 N 3.476257 -0.788470 2.566264 0
M  V30 5 C 3.326959 0.628187 2.779191 0
M  V30 6 O 3.464777 1.191267 3.893228 0
M  V30 7 C 2.991998 1.452109 1.607789 0
M  V30 8 C 3.899436 1.635111 0.607484 0
M  V30 9 C 3.548003 2.384809 -0.524496 0
M  V30 10 C 2.260105 2.873390 -0.496005 0
M  V30 11 C 1.313954 2.708363 0.496600 0
M  V30 12 C -0.044461 3.303397 0.261310 0
M  V30 13 N -0.893443 2.292665 -0.394145 0
M  V30 14 C -1.558084 1.240026 0.371873 0
M  V30 15 O -1.467738 1.156874 1.610623 0
M  V30 16 C -2.283232 0.365748 -0.550409 0
M  V30 17 C -3.089271 0.738741 -1.598575 0
M  V30 18 C -3.624434 -0.289408 -2.381650 0
M  V30 19 C -3.346177 -1.607316 -2.099552 0
M  V30 20 C -2.547853 -1.980327 -1.057471 0
M  V30 21 C -2.014695 -0.978128 -0.279460 0
M  V30 22 N -1.286458 -1.660430 0.658657 0
M  V30 23 C -1.370779 -2.985037 0.462163 0
M  V30 24 C -0.772272 -4.004209 1.201947 0
M  V30 25 C -0.975911 -5.316489 0.841314 0
M  V30 26 C -1.785864 -5.586555 -0.269805 0
M  V30 27 C -2.339252 -4.525351 -0.943474 0
M  V30 28 C -2.173554 -3.215107 -0.631762 0
M  V30 29 C -4.060864 -2.328411 -3.118135 0
M  V30 30 O -4.205607 -3.527687 -3.403976 0
M  V30 31 N -4.757980 -1.462533 -3.997435 0
M  V30 32 C -4.493559 -0.116429 -3.542385 0
M  V30 33 O -4.902101 0.990872 -4.014666 0
M  V30 34 C 1.693171 1.965284 1.601090 0
M  V30 35 H 0.758928 -1.265566 4.769500 0
M  V30 36 H 1.458211 -1.938584 3.315613 0
M  V30 37 H 3.065274 -2.293202 5.617169 0
M  V30 38 H 2.803950 -0.560898 5.268170 0
M  V30 39 H 4.817808 -1.441014 4.082699 0
M  V30 40 H 3.779878 -2.717719 3.299816 0
M  V30 41 H 3.326865 -1.159143 1.579420 0
M  V30 42 H 4.897402 1.223752 0.645545 0
M  V30 43 H 4.196939 2.585506 -1.356518 0
M  V30 44 H 1.982407 3.464015 -1.381745 0
M  V30 45 H -0.492222 3.708179 1.178355 0
M  V30 46 H 0.086856 4.123885 -0.463856 0
M  V30 47 H -0.999614 2.378659 -1.454923 0
M  V30 48 H -3.233226 1.800463 -1.711746 0
M  V30 49 H -0.748557 -1.201486 1.417436 0
M  V30 50 H -0.147057 -3.769925 2.058673 0
M  V30 51 H -0.491115 -6.063869 1.451926 0
M  V30 52 H -1.903858 -6.631242 -0.499385 0
M  V30 53 H -2.930814 -4.804972 -1.761549 0
M  V30 54 H -5.369371 -1.565844 -4.836469 0
M  V30 55 H 1.005436 1.811011 2.396174 0
M  V30 END ATOM
M  V30 BEGIN BOND
M  V30 1 1 1 2
M  V30 2 1 2 3
M  V30 3 1 3 4
M  V30 4 1 4 5
M  V30 5 2 5 6
M  V30 6 1 5 7
M  V30 7 2 7 8
M  V30 8 1 8 9
M  V30 9 2 9 10
M  V30 10 1 10 11
M  V30 11 1 11 12
M  V30 12 1 12 13
M  V30 13 1 13 14
M  V30 14 2 14 15
M  V30 15 1 14 16
M  V30 16 2 16 17
M  V30 17 1 17 18
M  V30 18 2 18 19
M  V30 19 1 19 20
M  V30 20 2 20 21
M  V30 21 1 21 22
M  V30 22 1 22 23
M  V30 23 2 23 24
M  V30 24 1 24 25
M  V30 25 2 25 26
M  V30 26 1 26 27
M  V30 27 2 27 28
M  V30 28 1 19 29
M  V30 29 2 29 30
M  V30 30 1 29 31
M  V30 31 1 31 32
M  V30 32 2 32 33
M  V30 33 2 11 34
M  V30 34 1 34 7
M  V30 35 1 21 16
M  V30 36 1 28 23
M  V30 37 1 32 18
M  V30 38 1 28 20
M  V30 39 1 1 35
M  V30 40 1 1 36
M  V30 41 1 2 37
M  V30 42 1 2 38
M  V30 43 1 3 39
M  V30 44 1 3 40
M  V30 45 1 4 41
M  V30 46 1 8 42
M  V30 47 1 9 43
M  V30 48 1 10 44
M  V30 49 1 12 45
M  V30 50 1 12 46
M  V30 51 1 13 47
M  V30 52 1 17 48
M  V30 53 1 22 49
M  V30 54 1 24 50
M  V30 55 1 25 51
M  V30 56 1 26 52
M  V30 57 1 27 53
M  V30 58 1 31 54
M  V30 59 1 34 55
M  V30 END BOND
M  V30 END CTAB
M  END
>  <Dataset>  (218) 
ChEMBL_Kinases

>  <Ligand_Instance>  (218) 
nan

>  <PDB_ID>  (218) 
nan

>  <Standardized_SMILES>  (218) 
NCCNC(=O)c1cccc(CNC(=O)c2cc3c(c4c2[nH]c2ccccc24)C(=O)NC3=O)c1

>  <Name>  (218) 
nan

>  <Pocket>  (218) 
nan

>  <ATP_Site>  (218) 
nan

>  <Peripheral>  (218) 
nan

>  <Num_H_Atoms_ProtBoundConf>  (218) 
nan

>  <Num_Resolved_Atoms>  (218) 
nan

>  <Num_Not_Resolved_Atoms>  (218) 
nan

$$$$
CHEMBL1289308
     RDKit          3D

  0  0  0  0  0  0  0  0  0  0999 V3000
M  V30 BEGIN CTAB
M  V30 COUNTS 51 54 0 0 0
M  V30 BEGIN ATOM
M  V30 1 C -1.436973 -2.666742 3.071286 0
M  V30 2 N -0.530302 -3.213083 2.067735 0
M  V30 3 C -0.949254 -3.323483 0.708816 0
M  V30 4 C -0.830857 -2.410934 -0.317409 0
M  V30 5 C -0.217824 -1.096201 -0.173719 0
M  V30 6 O 0.217409 -0.814008 0.969548 0
M  V30 7 N -0.082508 -0.145638 -1.197853 0
M  V30 8 C 0.479438 1.135340 -1.187378 0
M  V30 9 C 1.052966 1.779439 -0.117058 0
M  V30 10 C 1.600691 3.043947 -0.132154 0
M  V30 11 C 2.181145 3.617794 1.075943 0
M  V30 12 O 2.179650 2.947164 2.140164 0
M  V30 13 N 2.750151 4.895881 1.118865 0
M  V30 14 C 3.244746 5.202221 2.439508 0
M  V30 15 C 2.776688 5.783129 3.619196 0
M  V30 16 C 3.819231 5.752504 4.515739 0
M  V30 17 O 4.851691 5.182902 3.899196 0
M  V30 18 N 4.528315 4.862023 2.699450 0
M  V30 19 C 1.579074 3.737529 -1.319181 0
M  V30 20 C 1.014375 3.133463 -2.421175 0
M  V30 21 C 0.481547 1.868177 -2.350283 0
M  V30 22 C -0.111937 1.282982 -3.587653 0
M  V30 23 C -1.398253 -3.010392 -1.438059 0
M  V30 24 N -1.838710 -4.247881 -1.072440 0
M  V30 25 N -1.569136 -4.437455 0.219081 0
M  V30 26 C -1.914683 -5.658008 0.905512 0
M  V30 27 C -0.975231 -6.450064 1.540977 0
M  V30 28 C -1.437075 -7.594131 2.161822 0
M  V30 29 C -2.775202 -7.930380 2.147927 0
M  V30 30 C -3.709548 -7.152756 1.522080 0
M  V30 31 C -3.270928 -5.992516 0.887599 0
M  V30 32 H -2.173165 -3.446113 3.352696 0
M  V30 33 H -0.816113 -2.391868 3.967368 0
M  V30 34 H -1.907895 -1.723796 2.733434 0
M  V30 35 H 0.434902 -3.530713 2.325440 0
M  V30 36 H -0.492085 -0.523402 -2.094278 0
M  V30 37 H 1.092145 1.273443 0.834429 0
M  V30 38 H 2.786901 5.507729 0.277382 0
M  V30 39 H 1.728678 6.118254 3.567017 0
M  V30 40 H 3.615732 6.171912 5.494093 0
M  V30 41 H 1.986312 4.733046 -1.418833 0
M  V30 42 H 0.983472 3.653124 -3.364315 0
M  V30 43 H 0.496460 0.434681 -3.955088 0
M  V30 44 H -1.172049 0.960103 -3.394157 0
M  V30 45 H -0.157136 2.032278 -4.395075 0
M  V30 46 H -1.407412 -2.452419 -2.364421 0
M  V30 47 H 0.052486 -6.121500 1.508850 0
M  V30 48 H -0.698653 -8.227809 2.668071 0
M  V30 49 H -3.060506 -8.850411 2.661268 0
M  V30 50 H -4.741220 -7.445826 1.531954 0
M  V30 51 H -4.011845 -5.378243 0.392742 0
M  V30 END ATOM
M  V30 BEGIN BOND
M  V30 1 1 1 2
M  V30 2 1 2 3
M  V30 3 2 3 4
M  V30 4 1 4 5
M  V30 5 2 5 6
M  V30 6 1 5 7
M  V30 7 1 7 8
M  V30 8 2 8 9
M  V30 9 1 9 10
M  V30 10 1 10 11
M  V30 11 2 11 12
M  V30 12 1 11 13
M  V30 13 1 13 14
M  V30 14 1 14 15
M  V30 15 2 15 16
M  V30 16 1 16 17
M  V30 17 1 17 18
M  V30 18 2 10 19
M  V30 19 1 19 20
M  V30 20 2 20 21
M  V30 21 1 21 22
M  V30 22 1 4 23
M  V30 23 2 23 24
M  V30 24 1 24 25
M  V30 25 1 25 26
M  V30 26 2 26 27
M  V30 27 1 27 28
M  V30 28 2 28 29
M  V30 29 1 29 30
M  V30 30 2 30 31
M  V30 31 1 25 3
M  V30 32 1 31 26
M  V30 33 1 21 8
M  V30 34 2 18 14
M  V30 35 1 1 32
M  V30 36 1 1 33
M  V30 37 1 1 34
M  V30 38 1 2 35
M  V30 39 1 7 36
M  V30 40 1 9 37
M  V30 41 1 13 38
M  V30 42 1 15 39
M  V30 43 1 16 40
M  V30 44 1 19 41
M  V30 45 1 20 42
M  V30 46 1 22 43
M  V30 47 1 22 44
M  V30 48 1 22 45
M  V30 49 1 23 46
M  V30 50 1 27 47
M  V30 51 1 28 48
M  V30 52 1 29 49
M  V30 53 1 30 50
M  V30 54 1 31 51
M  V30 END BOND
M  V30 END CTAB
M  END
>  <Dataset>  (219) 
ChEMBL_Kinases

>  <Ligand_Instance>  (219) 
nan

>  <PDB_ID>  (219) 
nan

>  <Standardized_SMILES>  (219) 
CNc1c(C(=O)Nc2cc(C(=O)Nc3ccon3)ccc2C)cnn1-c1ccccc1

>  <Name>  (219) 
nan

>  <Pocket>  (219) 
nan

>  <ATP_Site>  (219) 
nan

>  <Peripheral>  (219) 
nan

>  <Num_H_Atoms_ProtBoundConf>  (219) 
nan

>  <Num_Resolved_Atoms>  (219) 
nan

>  <Num_Not_Resolved_Atoms>  (219) 
nan

$$$$
CHEMBL1278207
     RDKit          3D

  0  0  0  0  0  0  0  0  0  0999 V3000
M  V30 BEGIN CTAB
M  V30 COUNTS 58 62 0 0 0
M  V30 BEGIN ATOM
M  V30 1 N 2.423656 -4.190345 4.155374 0
M  V30 2 C 2.431522 -2.759912 4.369742 0
M  V30 3 C 3.849061 -2.262104 4.562772 0
M  V30 4 C 3.899450 -0.775071 4.790091 0
M  V30 5 N 3.363916 0.007077 3.706471 0
M  V30 6 C 3.936716 -0.053238 2.405731 0
M  V30 7 O 4.923616 -0.818509 2.267536 0
M  V30 8 C 3.474679 0.693139 1.242975 0
M  V30 9 C 4.244124 0.590627 0.103363 0
M  V30 10 C 3.908418 1.258921 -1.080407 0
M  V30 11 C 2.773954 2.048364 -1.122404 0
M  V30 12 C 1.999279 2.145322 0.039295 0
M  V30 13 C 0.770197 3.009173 -0.012497 0
M  V30 14 N -0.368932 2.277217 -0.519212 0
M  V30 15 C -1.163523 1.301146 0.152039 0
M  V30 16 O -0.812672 1.060480 1.340783 0
M  V30 17 C -2.284645 0.666221 -0.546431 0
M  V30 18 C -3.383169 1.391232 -0.957255 0
M  V30 19 C -4.470939 0.836571 -1.631767 0
M  V30 20 C -4.414021 -0.510154 -1.885695 0
M  V30 21 C -3.369336 -1.258466 -1.506898 0
M  V30 22 C -2.309899 -0.685952 -0.843281 0
M  V30 23 N -1.389410 -1.615788 -0.568275 0
M  V30 24 C -1.887467 -2.782058 -1.069773 0
M  V30 25 C -1.280101 -4.032480 -1.023114 0
M  V30 26 C -1.892787 -5.140026 -1.570891 0
M  V30 27 C -3.124937 -4.961697 -2.164244 0
M  V30 28 C -3.683572 -3.705573 -2.184823 0
M  V30 29 C -3.117993 -2.585853 -1.658464 0
M  V30 30 C -5.644108 -0.784101 -2.578137 0
M  V30 31 O -6.176408 -1.791847 -3.064503 0
M  V30 32 N -6.413573 0.397777 -2.726535 0
M  V30 33 C -5.683061 1.484185 -2.120883 0
M  V30 34 O -5.972679 2.699522 -2.014379 0
M  V30 35 C 2.353667 1.473890 1.198617 0
M  V30 36 H 1.767935 -4.418391 3.382406 0
M  V30 37 H 3.344495 -4.597729 3.948980 0
M  V30 38 H 1.807728 -2.595072 5.292203 0
M  V30 39 H 1.922322 -2.269000 3.543298 0
M  V30 40 H 4.453420 -2.592347 3.697885 0
M  V30 41 H 4.299894 -2.735649 5.451601 0
M  V30 42 H 4.995380 -0.526507 4.930520 0
M  V30 43 H 3.434456 -0.477810 5.746203 0
M  V30 44 H 2.542521 0.657132 3.791414 0
M  V30 45 H 5.161359 -0.012231 0.040971 0
M  V30 46 H 4.535580 1.158528 -1.958633 0
M  V30 47 H 2.451977 2.594531 -2.002317 0
M  V30 48 H 1.001813 3.830120 -0.714706 0
M  V30 49 H 0.568207 3.463404 0.978832 0
M  V30 50 H -0.679872 2.468221 -1.521824 0
M  V30 51 H -3.364901 2.448385 -0.725727 0
M  V30 52 H -0.486244 -1.478033 -0.077263 0
M  V30 53 H -0.317215 -4.167387 -0.557820 0
M  V30 54 H -1.385226 -6.092726 -1.513046 0
M  V30 55 H -3.613067 -5.833180 -2.599347 0
M  V30 56 H -4.630734 -3.655269 -2.659651 0
M  V30 57 H -7.350052 0.625666 -3.162806 0
M  V30 58 H 1.775809 1.539803 2.091172 0
M  V30 END ATOM
M  V30 BEGIN BOND
M  V30 1 1 1 2
M  V30 2 1 2 3
M  V30 3 1 3 4
M  V30 4 1 4 5
M  V30 5 1 5 6
M  V30 6 2 6 7
M  V30 7 1 6 8
M  V30 8 2 8 9
M  V30 9 1 9 10
M  V30 10 2 10 11
M  V30 11 1 11 12
M  V30 12 1 12 13
M  V30 13 1 13 14
M  V30 14 1 14 15
M  V30 15 2 15 16
M  V30 16 1 15 17
M  V30 17 2 17 18
M  V30 18 1 18 19
M  V30 19 2 19 20
M  V30 20 1 20 21
M  V30 21 2 21 22
M  V30 22 1 22 23
M  V30 23 1 23 24
M  V30 24 2 24 25
M  V30 25 1 25 26
M  V30 26 2 26 27
M  V30 27 1 27 28
M  V30 28 2 28 29
M  V30 29 1 20 30
M  V30 30 2 30 31
M  V30 31 1 30 32
M  V30 32 1 32 33
M  V30 33 2 33 34
M  V30 34 2 12 35
M  V30 35 1 35 8
M  V30 36 1 22 17
M  V30 37 1 29 24
M  V30 38 1 33 19
M  V30 39 1 29 21
M  V30 40 1 1 36
M  V30 41 1 1 37
M  V30 42 1 2 38
M  V30 43 1 2 39
M  V30 44 1 3 40
M  V30 45 1 3 41
M  V30 46 1 4 42
M  V30 47 1 4 43
M  V30 48 1 5 44
M  V30 49 1 9 45
M  V30 50 1 10 46
M  V30 51 1 11 47
M  V30 52 1 13 48
M  V30 53 1 13 49
M  V30 54 1 14 50
M  V30 55 1 18 51
M  V30 56 1 23 52
M  V30 57 1 25 53
M  V30 58 1 26 54
M  V30 59 1 27 55
M  V30 60 1 28 56
M  V30 61 1 32 57
M  V30 62 1 35 58
M  V30 END BOND
M  V30 END CTAB
M  END
>  <Dataset>  (220) 
ChEMBL_Kinases

>  <Ligand_Instance>  (220) 
nan

>  <PDB_ID>  (220) 
nan

>  <Standardized_SMILES>  (220) 
NCCCNC(=O)c1cccc(CNC(=O)c2cc3c(c4c2[nH]c2ccccc24)C(=O)NC3=O)c1

>  <Name>  (220) 
nan

>  <Pocket>  (220) 
nan

>  <ATP_Site>  (220) 
nan

>  <Peripheral>  (220) 
nan

>  <Num_H_Atoms_ProtBoundConf>  (220) 
nan

>  <Num_Resolved_Atoms>  (220) 
nan

>  <Num_Not_Resolved_Atoms>  (220) 
nan

$$$$
CHEMBL1278208
     RDKit          3D

  0  0  0  0  0  0  0  0  0  0999 V3000
M  V30 BEGIN CTAB
M  V30 COUNTS 59 63 0 0 0
M  V30 BEGIN ATOM
M  V30 1 N 0.395170 -4.321333 4.557815 0
M  V30 2 C 1.166528 -3.095117 4.614999 0
M  V30 3 C 2.613161 -3.502677 4.926801 0
M  V30 4 C 3.485678 -2.277493 5.005443 0
M  V30 5 N 3.442523 -1.592127 3.743170 0
M  V30 6 C 3.850243 -2.139968 2.497492 0
M  V30 7 O 4.284626 -3.313106 2.491927 0
M  V30 8 C 3.802848 -1.440124 1.218874 0
M  V30 9 C 4.275042 -2.081554 0.116549 0
M  V30 10 C 4.277592 -1.505665 -1.155490 0
M  V30 11 C 3.775227 -0.221814 -1.298636 0
M  V30 12 C 3.289133 0.447804 -0.186291 0
M  V30 13 C 2.761209 1.824763 -0.374583 0
M  V30 14 N 1.344808 1.836662 -0.722568 0
M  V30 15 C 0.252544 1.610087 0.153171 0
M  V30 16 O 0.434649 1.367963 1.371150 0
M  V30 17 C -1.130526 1.657684 -0.369516 0
M  V30 18 C -1.851045 2.832497 -0.442006 0
M  V30 19 C -3.152565 2.766500 -0.955127 0
M  V30 20 C -3.689629 1.573982 -1.370350 0
M  V30 21 C -2.978531 0.439523 -1.294401 0
M  V30 22 C -1.696248 0.473376 -0.794318 0
M  V30 23 N -1.207413 -0.786803 -0.826267 0
M  V30 24 C -2.179018 -1.589418 -1.341276 0
M  V30 25 C -2.097860 -2.952483 -1.548891 0
M  V30 26 C -3.170333 -3.629767 -2.081341 0
M  V30 27 C -4.327074 -2.911076 -2.401387 0
M  V30 28 O -5.408808 -3.596307 -2.938439 0
M  V30 29 C -4.318453 -1.556219 -2.160592 0
M  V30 30 C -3.290203 -0.832390 -1.637270 0
M  V30 31 C -5.013711 1.901436 -1.823749 0
M  V30 32 O -5.961515 1.263296 -2.300583 0
M  V30 33 N -5.243748 3.290496 -1.669913 0
M  V30 34 C -4.079127 3.901351 -1.114188 0
M  V30 35 O -3.865352 5.104235 -0.821694 0
M  V30 36 C 3.303893 -0.160125 1.065212 0
M  V30 37 H -0.546106 -4.238568 5.005888 0
M  V30 38 H 0.239745 -4.613010 3.570552 0
M  V30 39 H 0.826828 -2.414188 5.436918 0
M  V30 40 H 1.095620 -2.600389 3.628710 0
M  V30 41 H 2.553967 -4.032884 5.914744 0
M  V30 42 H 2.910236 -4.222733 4.138176 0
M  V30 43 H 4.516066 -2.622709 5.236217 0
M  V30 44 H 3.079443 -1.631800 5.789658 0
M  V30 45 H 3.084992 -0.597349 3.693394 0
M  V30 46 H 4.696846 -3.094523 0.093304 0
M  V30 47 H 4.649749 -2.002191 -2.042513 0
M  V30 48 H 3.778968 0.221250 -2.288263 0
M  V30 49 H 3.310140 2.391992 -1.146006 0
M  V30 50 H 2.931130 2.423245 0.570525 0
M  V30 51 H 1.080375 2.032937 -1.732651 0
M  V30 52 H -1.410640 3.748117 -0.112581 0
M  V30 53 H -0.238505 -1.078878 -0.503369 0
M  V30 54 H -1.220945 -3.503903 -1.307387 0
M  V30 55 H -3.133220 -4.695770 -2.253894 0
M  V30 56 H -5.254679 -4.472912 -3.420186 0
M  V30 57 H -5.229943 -1.081756 -2.429256 0
M  V30 58 H -6.072758 3.918873 -1.879798 0
M  V30 59 H 2.927846 0.366127 1.913639 0
M  V30 END ATOM
M  V30 BEGIN BOND
M  V30 1 1 1 2
M  V30 2 1 2 3
M  V30 3 1 3 4
M  V30 4 1 4 5
M  V30 5 1 5 6
M  V30 6 2 6 7
M  V30 7 1 6 8
M  V30 8 2 8 9
M  V30 9 1 9 10
M  V30 10 2 10 11
M  V30 11 1 11 12
M  V30 12 1 12 13
M  V30 13 1 13 14
M  V30 14 1 14 15
M  V30 15 2 15 16
M  V30 16 1 15 17
M  V30 17 2 17 18
M  V30 18 1 18 19
M  V30 19 2 19 20
M  V30 20 1 20 21
M  V30 21 2 21 22
M  V30 22 1 22 23
M  V30 23 1 23 24
M  V30 24 2 24 25
M  V30 25 1 25 26
M  V30 26 2 26 27
M  V30 27 1 27 28
M  V30 28 1 27 29
M  V30 29 2 29 30
M  V30 30 1 20 31
M  V30 31 2 31 32
M  V30 32 1 31 33
M  V30 33 1 33 34
M  V30 34 2 34 35
M  V30 35 2 12 36
M  V30 36 1 36 8
M  V30 37 1 22 17
M  V30 38 1 30 24
M  V30 39 1 34 19
M  V30 40 1 30 21
M  V30 41 1 1 37
M  V30 42 1 1 38
M  V30 43 1 2 39
M  V30 44 1 2 40
M  V30 45 1 3 41
M  V30 46 1 3 42
M  V30 47 1 4 43
M  V30 48 1 4 44
M  V30 49 1 5 45
M  V30 50 1 9 46
M  V30 51 1 10 47
M  V30 52 1 11 48
M  V30 53 1 13 49
M  V30 54 1 13 50
M  V30 55 1 14 51
M  V30 56 1 18 52
M  V30 57 1 23 53
M  V30 58 1 25 54
M  V30 59 1 26 55
M  V30 60 1 28 56
M  V30 61 1 29 57
M  V30 62 1 33 58
M  V30 63 1 36 59
M  V30 END BOND
M  V30 END CTAB
M  END
>  <Dataset>  (221) 
ChEMBL_Kinases

>  <Ligand_Instance>  (221) 
nan

>  <PDB_ID>  (221) 
nan

>  <Standardized_SMILES>  (221) 
NCCCNC(=O)c1cccc(CNC(=O)c2cc3c(c4c2[nH]c2ccc(O)cc24)C(=O)NC3=O)c1

>  <Name>  (221) 
nan

>  <Pocket>  (221) 
nan

>  <ATP_Site>  (221) 
nan

>  <Peripheral>  (221) 
nan

>  <Num_H_Atoms_ProtBoundConf>  (221) 
nan

>  <Num_Resolved_Atoms>  (221) 
nan

>  <Num_Not_Resolved_Atoms>  (221) 
nan

$$$$
CHEMBL127907
     RDKit          3D

  0  0  0  0  0  0  0  0  0  0999 V3000
M  V30 BEGIN CTAB
M  V30 COUNTS 37 39 0 0 0
M  V30 BEGIN ATOM
M  V30 1 C -0.582449 -5.795154 2.717040 0
M  V30 2 O -0.199785 -4.664159 2.207540 0
M  V30 3 C 0.211907 -3.597809 1.652647 0
M  V30 4 C 0.989087 -3.748903 0.511769 0
M  V30 5 C 1.475494 -2.613262 -0.152822 0
M  V30 6 N 2.227867 -2.734667 -1.243126 0
M  V30 7 C 2.752999 -1.711783 -1.958850 0
M  V30 8 N 2.433064 -0.528358 -1.445538 0
M  V30 9 C 1.693466 -0.282034 -0.366211 0
M  V30 10 N 1.446978 1.058789 0.068770 0
M  V30 11 C 0.732276 2.190024 -0.405112 0
M  V30 12 C 0.619770 3.308375 0.407854 0
M  V30 13 C -0.067359 4.383191 -0.093971 0
M  V30 14 C -0.626038 4.374644 -1.341532 0
M  V30 15 C -0.517067 3.259413 -2.158636 0
M  V30 16 O -1.131519 3.391739 -3.396923 0
M  V30 17 C 0.164404 2.167608 -1.684193 0
M  V30 18 C 1.174986 -1.360610 0.335955 0
M  V30 19 C 0.409121 -1.207389 1.459279 0
M  V30 20 C -0.085095 -2.313800 2.137189 0
M  V30 21 O -0.804228 -2.303174 3.188066 0
M  V30 22 C -1.523267 -2.041075 4.249200 0
M  V30 23 H -1.590630 -5.856578 3.215262 0
M  V30 24 H -0.658425 -6.624583 1.932937 0
M  V30 25 H 0.086163 -6.280614 3.499808 0
M  V30 26 H 1.246818 -4.739307 0.095865 0
M  V30 27 H 3.362755 -1.830842 -2.842448 0
M  V30 28 H 1.971559 1.116664 0.970776 0
M  V30 29 H 1.072059 3.291695 1.393385 0
M  V30 30 H -0.108891 5.226337 0.612420 0
M  V30 31 H -1.128897 5.324181 -1.554038 0
M  V30 32 H -0.665067 4.045871 -4.046431 0
M  V30 33 H 0.224071 1.320938 -2.351742 0
M  V30 34 H 0.199385 -0.229981 1.803305 0
M  V30 35 H -1.736455 -0.960959 4.468526 0
M  V30 36 H -0.970561 -2.367196 5.197910 0
M  V30 37 H -2.500849 -2.623657 4.359040 0
M  V30 END ATOM
M  V30 BEGIN BOND
M  V30 1 1 1 2
M  V30 2 1 2 3
M  V30 3 2 3 4
M  V30 4 1 4 5
M  V30 5 2 5 6
M  V30 6 1 6 7
M  V30 7 2 7 8
M  V30 8 1 8 9
M  V30 9 1 9 10
M  V30 10 1 10 11
M  V30 11 2 11 12
M  V30 12 1 12 13
M  V30 13 2 13 14
M  V30 14 1 14 15
M  V30 15 1 15 16
M  V30 16 2 15 17
M  V30 17 2 9 18
M  V30 18 1 18 19
M  V30 19 2 19 20
M  V30 20 1 20 21
M  V30 21 1 21 22
M  V30 22 1 20 3
M  V30 23 1 18 5
M  V30 24 1 17 11
M  V30 25 1 1 23
M  V30 26 1 1 24
M  V30 27 1 1 25
M  V30 28 1 4 26
M  V30 29 1 7 27
M  V30 30 1 10 28
M  V30 31 1 12 29
M  V30 32 1 13 30
M  V30 33 1 14 31
M  V30 34 1 16 32
M  V30 35 1 17 33
M  V30 36 1 19 34
M  V30 37 1 22 35
M  V30 38 1 22 36
M  V30 39 1 22 37
M  V30 END BOND
M  V30 END CTAB
M  END
>  <Dataset>  (222) 
ChEMBL_Kinases

>  <Ligand_Instance>  (222) 
nan

>  <PDB_ID>  (222) 
nan

>  <Standardized_SMILES>  (222) 
COc1cc2ncnc(Nc3cccc(O)c3)c2cc1OC

>  <Name>  (222) 
nan

>  <Pocket>  (222) 
nan

>  <ATP_Site>  (222) 
nan

>  <Peripheral>  (222) 
nan

>  <Num_H_Atoms_ProtBoundConf>  (222) 
nan

>  <Num_Resolved_Atoms>  (222) 
nan

>  <Num_Not_Resolved_Atoms>  (222) 
nan

$$$$
CHEMBL1287825
     RDKit          3D

  0  0  0  0  0  0  0  0  0  0999 V3000
M  V30 BEGIN CTAB
M  V30 COUNTS 54 56 0 0 0
M  V30 BEGIN ATOM
M  V30 1 C 4.612191 3.661638 4.251171 0
M  V30 2 C 5.002829 2.369428 3.540565 0
M  V30 3 C 4.509294 1.218986 4.373776 0
M  V30 4 C 4.827411 -0.126106 3.788246 0
M  V30 5 N 4.235889 -0.305790 2.472304 0
M  V30 6 N 4.762702 -0.011898 1.289889 0
M  V30 7 C 3.895894 -0.327986 0.289234 0
M  V30 8 C 2.798149 -0.838071 0.953281 0
M  V30 9 C 1.566030 -1.333567 0.344406 0
M  V30 10 O 0.648452 -1.770359 1.086720 0
M  V30 11 N 1.339184 -1.351764 -1.055950 0
M  V30 12 C 0.027626 -1.901091 -1.317791 0
M  V30 13 C -1.107880 -1.117917 -1.392630 0
M  V30 14 C -2.316906 -1.757410 -1.650069 0
M  V30 15 C -3.517947 -0.934346 -1.729874 0
M  V30 16 O -3.407343 0.286947 -1.565785 0
M  V30 17 N -4.776209 -1.491606 -1.985026 0
M  V30 18 C -6.037328 -0.844800 -2.095107 0
M  V30 19 C -6.652240 -0.321539 -3.215598 0
M  V30 20 C -7.877540 0.226461 -2.909787 0
M  V30 21 N -8.006822 0.033599 -1.591074 0
M  V30 22 N -6.942257 -0.588273 -1.108776 0
M  V30 23 C -6.796469 -0.932004 0.284042 0
M  V30 24 C -2.307093 -3.127029 -1.813842 0
M  V30 25 C -1.163871 -3.896888 -1.736243 0
M  V30 26 C 0.058934 -3.267258 -1.477938 0
M  V30 27 C 1.258851 -4.103735 -1.399880 0
M  V30 28 C 2.985784 -0.835160 2.322328 0
M  V30 29 N 2.109045 -1.270909 3.351684 0
M  V30 30 H 5.192176 3.808803 5.173359 0
M  V30 31 H 4.752330 4.545055 3.609437 0
M  V30 32 H 3.552611 3.541889 4.565272 0
M  V30 33 H 4.580991 2.411350 2.525184 0
M  V30 34 H 6.122137 2.374123 3.541987 0
M  V30 35 H 5.070324 1.273956 5.339505 0
M  V30 36 H 3.441791 1.345262 4.644751 0
M  V30 37 H 4.422860 -0.878918 4.502141 0
M  V30 38 H 5.910199 -0.263850 3.767418 0
M  V30 39 H 4.017475 -0.215633 -0.766980 0
M  V30 40 H 2.096829 -0.989039 -1.705592 0
M  V30 41 H -0.982081 -0.050098 -1.245043 0
M  V30 42 H -4.929786 -2.496093 -2.129347 0
M  V30 43 H -6.187792 -0.358140 -4.209706 0
M  V30 44 H -8.553443 0.701949 -3.629917 0
M  V30 45 H -6.365144 -0.102589 0.903950 0
M  V30 46 H -6.191345 -1.858160 0.363456 0
M  V30 47 H -7.793695 -1.148057 0.712593 0
M  V30 48 H -3.241263 -3.634558 -2.014384 0
M  V30 49 H -1.176531 -4.972450 -1.867893 0
M  V30 50 H 2.121932 -3.577552 -0.960002 0
M  V30 51 H 1.062334 -5.108817 -0.978210 0
M  V30 52 H 1.584156 -4.309241 -2.461072 0
M  V30 53 H 2.395234 -2.171212 3.792166 0
M  V30 54 H 1.260300 -0.732983 3.633350 0
M  V30 END ATOM
M  V30 BEGIN BOND
M  V30 1 1 1 2
M  V30 2 1 2 3
M  V30 3 1 3 4
M  V30 4 1 4 5
M  V30 5 1 5 6
M  V30 6 2 6 7
M  V30 7 1 7 8
M  V30 8 1 8 9
M  V30 9 2 9 10
M  V30 10 1 9 11
M  V30 11 1 11 12
M  V30 12 2 12 13
M  V30 13 1 13 14
M  V30 14 1 14 15
M  V30 15 2 15 16
M  V30 16 1 15 17
M  V30 17 1 17 18
M  V30 18 2 18 19
M  V30 19 1 19 20
M  V30 20 2 20 21
M  V30 21 1 21 22
M  V30 22 1 22 23
M  V30 23 2 14 24
M  V30 24 1 24 25
M  V30 25 2 25 26
M  V30 26 1 26 27
M  V30 27 2 8 28
M  V30 28 1 28 29
M  V30 29 1 28 5
M  V30 30 1 26 12
M  V30 31 1 22 18
M  V30 32 1 1 30
M  V30 33 1 1 31
M  V30 34 1 1 32
M  V30 35 1 2 33
M  V30 36 1 2 34
M  V30 37 1 3 35
M  V30 38 1 3 36
M  V30 39 1 4 37
M  V30 40 1 4 38
M  V30 41 1 7 39
M  V30 42 1 11 40
M  V30 43 1 13 41
M  V30 44 1 17 42
M  V30 45 1 19 43
M  V30 46 1 20 44
M  V30 47 1 23 45
M  V30 48 1 23 46
M  V30 49 1 23 47
M  V30 50 1 24 48
M  V30 51 1 25 49
M  V30 52 1 27 50
M  V30 53 1 27 51
M  V30 54 1 27 52
M  V30 55 1 29 53
M  V30 56 1 29 54
M  V30 END BOND
M  V30 END CTAB
M  END
>  <Dataset>  (223) 
ChEMBL_Kinases

>  <Ligand_Instance>  (223) 
nan

>  <PDB_ID>  (223) 
nan

>  <Standardized_SMILES>  (223) 
CCCCn1ncc(C(=O)Nc2cc(C(=O)Nc3ccnn3C)ccc2C)c1N

>  <Name>  (223) 
nan

>  <Pocket>  (223) 
nan

>  <ATP_Site>  (223) 
nan

>  <Peripheral>  (223) 
nan

>  <Num_H_Atoms_ProtBoundConf>  (223) 
nan

>  <Num_Resolved_Atoms>  (223) 
nan

>  <Num_Not_Resolved_Atoms>  (223) 
nan

$$$$
CHEMBL1287920
     RDKit          3D

  0  0  0  0  0  0  0  0  0  0999 V3000
M  V30 BEGIN CTAB
M  V30 COUNTS 45 48 0 0 0
M  V30 BEGIN ATOM
M  V30 1 N 0.087501 -5.249108 3.375733 0
M  V30 2 C 1.270909 -4.584688 3.791756 0
M  V30 3 O 2.077349 -5.032682 4.647455 0
M  V30 4 C 1.631271 -3.306217 3.234849 0
M  V30 5 C 2.753293 -2.603813 3.583475 0
M  V30 6 N 2.899629 -1.454884 2.957946 0
M  V30 7 C 2.153686 -0.859696 2.052204 0
M  V30 8 N 2.593410 0.414904 1.538226 0
M  V30 9 C 2.129743 1.405372 0.647819 0 CFG=1
M  V30 10 C 0.907092 2.141780 1.224395 0
M  V30 11 C 0.280959 2.886495 0.091436 0
M  V30 12 C 1.364458 3.703079 -0.574792 0
M  V30 13 N 2.560826 3.777003 0.247519 0
M  V30 14 C 3.165049 2.502773 0.508745 0
M  V30 15 C 0.998911 -1.473260 1.622847 0
M  V30 16 C 0.040211 -1.160529 0.733328 0
M  V30 17 C -1.008564 -1.990584 0.508130 0
M  V30 18 C -2.182596 -1.847041 -0.427765 0
M  V30 19 C -3.073243 -2.898295 -0.398439 0
M  V30 20 C -4.157487 -2.751951 -1.271497 0
M  V30 21 C -4.295176 -1.641564 -2.078097 0
M  V30 22 C -3.366357 -0.622010 -2.059765 0
M  V30 23 C -2.282545 -0.731457 -1.210528 0
M  V30 24 S -0.775027 -3.338944 1.535632 0
M  V30 25 C 0.814849 -2.715408 2.281154 0
M  V30 26 H -0.730685 -5.069051 3.995044 0
M  V30 27 H -0.074269 -5.881259 2.551044 0
M  V30 28 H 3.418996 -3.005576 4.309770 0
M  V30 29 H 3.540006 0.719426 1.928290 0
M  V30 30 H 1.908769 1.019861 -0.376660 0
M  V30 31 H 1.278829 2.929873 1.943056 0
M  V30 32 H 0.253689 1.505436 1.811168 0
M  V30 33 H -0.091170 2.115294 -0.634031 0
M  V30 34 H -0.591639 3.480730 0.407286 0
M  V30 35 H 0.992561 4.730259 -0.677974 0
M  V30 36 H 1.584679 3.313365 -1.590125 0
M  V30 37 H 3.250443 4.352675 -0.290220 0
M  V30 38 H 3.968275 2.238925 -0.197507 0
M  V30 39 H 3.660177 2.589677 1.515339 0
M  V30 40 H 0.018409 -0.266631 0.136368 0
M  V30 41 H -3.006540 -3.770536 0.205361 0
M  V30 42 H -4.884319 -3.564662 -1.276328 0
M  V30 43 H -5.187819 -1.661319 -2.707517 0
M  V30 44 H -3.524014 0.222091 -2.711047 0
M  V30 45 H -1.543698 0.059146 -1.182936 0
M  V30 END ATOM
M  V30 BEGIN BOND
M  V30 1 1 1 2
M  V30 2 2 2 3
M  V30 3 1 2 4
M  V30 4 2 4 5
M  V30 5 1 5 6
M  V30 6 2 6 7
M  V30 7 1 7 8
M  V30 8 1 8 9
M  V30 9 1 9 10
M  V30 10 1 10 11
M  V30 11 1 11 12
M  V30 12 1 12 13
M  V30 13 1 13 14
M  V30 14 1 7 15
M  V30 15 1 15 16
M  V30 16 2 16 17
M  V30 17 1 17 18
M  V30 18 2 18 19
M  V30 19 1 19 20
M  V30 20 2 20 21
M  V30 21 1 21 22
M  V30 22 2 22 23
M  V30 23 1 17 24
M  V30 24 1 24 25
M  V30 25 1 25 4
M  V30 26 1 14 9
M  V30 27 2 25 15
M  V30 28 1 23 18
M  V30 29 1 1 26
M  V30 30 1 1 27
M  V30 31 1 5 28
M  V30 32 1 8 29
M  V30 33 1 9 30 CFG=3
M  V30 34 1 10 31
M  V30 35 1 10 32
M  V30 36 1 11 33
M  V30 37 1 11 34
M  V30 38 1 12 35
M  V30 39 1 12 36
M  V30 40 1 13 37
M  V30 41 1 14 38
M  V30 42 1 14 39
M  V30 43 1 16 40
M  V30 44 1 19 41
M  V30 45 1 20 42
M  V30 46 1 21 43
M  V30 47 1 22 44
M  V30 48 1 23 45
M  V30 END BOND
M  V30 END CTAB
M  END
>  <Dataset>  (224) 
ChEMBL_Kinases

>  <Ligand_Instance>  (224) 
nan

>  <PDB_ID>  (224) 
nan

>  <Standardized_SMILES>  (224) 
NC(=O)c1cnc(N[C@H]2CCCNC2)c2cc(-c3ccccc3)sc12

>  <Name>  (224) 
nan

>  <Pocket>  (224) 
nan

>  <ATP_Site>  (224) 
nan

>  <Peripheral>  (224) 
nan

>  <Num_H_Atoms_ProtBoundConf>  (224) 
nan

>  <Num_Resolved_Atoms>  (224) 
nan

>  <Num_Not_Resolved_Atoms>  (224) 
nan

$$$$
CHEMBL1289077
     RDKit          3D

  0  0  0  0  0  0  0  0  0  0999 V3000
M  V30 BEGIN CTAB
M  V30 COUNTS 55 58 0 0 0
M  V30 BEGIN ATOM
M  V30 1 C 3.271399 -0.218103 5.214693 0
M  V30 2 C 4.063571 -0.327544 3.949969 0
M  V30 3 N 4.730605 0.926235 3.587629 0
M  V30 4 N 5.933535 1.286478 3.960086 0
M  V30 5 C 6.243296 2.497724 3.452358 0
M  V30 6 C 5.113907 2.862129 2.723467 0
M  V30 7 C 4.168411 1.869821 2.813447 0
M  V30 8 N 2.870497 1.796060 2.241595 0
M  V30 9 C 2.293789 2.795690 1.430188 0
M  V30 10 O 2.943389 3.841172 1.171942 0
M  V30 11 C 0.956217 2.703934 0.849379 0
M  V30 12 C 0.508977 3.752590 0.072379 0
M  V30 13 C -0.757686 3.751707 -0.524028 0
M  V30 14 C -1.606201 2.679025 -0.344644 0
M  V30 15 C -2.961605 2.623774 -0.953468 0
M  V30 16 C -1.162150 1.628471 0.431877 0
M  V30 17 N -1.982170 0.465323 0.673531 0
M  V30 18 C -1.755914 -0.512085 -0.318249 0
M  V30 19 O -0.921499 -0.257259 -1.225883 0
M  V30 20 C -2.451523 -1.798200 -0.326629 0
M  V30 21 C -3.388335 -2.218640 0.596583 0
M  V30 22 N -3.742232 -3.465440 0.170154 0
M  V30 23 N -3.070257 -3.770649 -0.924409 0
M  V30 24 C -3.126054 -4.971938 -1.707519 0
M  V30 25 C -3.789029 -5.137390 -2.907268 0
M  V30 26 C -3.715924 -6.395096 -3.508021 0
M  V30 27 C -3.016825 -7.426407 -2.935629 0
M  V30 28 F -2.979484 -8.625289 -3.562176 0
M  V30 29 C -2.355786 -7.252386 -1.734181 0
M  V30 30 C -2.414382 -6.011992 -1.119201 0
M  V30 31 C -2.236384 -2.761277 -1.293638 0
M  V30 32 N -1.351855 -2.699979 -2.404488 0
M  V30 33 C 0.096355 1.669411 1.002808 0
M  V30 34 H 2.338837 -0.792735 5.101852 0
M  V30 35 H 3.873738 -0.536960 6.093251 0
M  V30 36 H 2.980170 0.828266 5.418785 0
M  V30 37 H 3.393331 -0.628134 3.115857 0
M  V30 38 H 4.834348 -1.130394 4.103710 0
M  V30 39 H 7.186204 3.044321 3.601704 0
M  V30 40 H 5.034438 3.777787 2.191846 0
M  V30 41 H 2.270604 0.964930 2.407542 0
M  V30 42 H 1.102650 4.650479 -0.132708 0
M  V30 43 H -1.103475 4.586212 -1.137586 0
M  V30 44 H -2.942805 1.858374 -1.740331 0
M  V30 45 H -3.269512 3.625283 -1.317730 0
M  V30 46 H -3.641290 2.245665 -0.154369 0
M  V30 47 H -2.669031 0.291267 1.446116 0
M  V30 48 H -3.761573 -1.684266 1.464494 0
M  V30 49 H -4.309673 -4.272123 -3.277697 0
M  V30 50 H -4.249852 -6.489527 -4.451948 0
M  V30 51 H -1.804241 -8.075139 -1.287851 0
M  V30 52 H -1.873695 -5.945895 -0.180300 0
M  V30 53 H -1.821303 -2.339666 -3.274795 0
M  V30 54 H -0.436710 -3.044110 -2.039280 0
M  V30 55 H 0.405271 0.825559 1.604036 0
M  V30 END ATOM
M  V30 BEGIN BOND
M  V30 1 1 1 2
M  V30 2 1 2 3
M  V30 3 1 3 4
M  V30 4 2 4 5
M  V30 5 1 5 6
M  V30 6 2 6 7
M  V30 7 1 7 8
M  V30 8 1 8 9
M  V30 9 2 9 10
M  V30 10 1 9 11
M  V30 11 2 11 12
M  V30 12 1 12 13
M  V30 13 2 13 14
M  V30 14 1 14 15
M  V30 15 1 14 16
M  V30 16 1 16 17
M  V30 17 1 17 18
M  V30 18 2 18 19
M  V30 19 1 18 20
M  V30 20 1 20 21
M  V30 21 2 21 22
M  V30 22 1 22 23
M  V30 23 1 23 24
M  V30 24 2 24 25
M  V30 25 1 25 26
M  V30 26 2 26 27
M  V30 27 1 27 28
M  V30 28 1 27 29
M  V30 29 2 29 30
M  V30 30 1 23 31
M  V30 31 1 31 32
M  V30 32 2 16 33
M  V30 33 1 7 3
M  V30 34 1 33 11
M  V30 35 2 31 20
M  V30 36 1 30 24
M  V30 37 1 1 34
M  V30 38 1 1 35
M  V30 39 1 1 36
M  V30 40 1 2 37
M  V30 41 1 2 38
M  V30 42 1 5 39
M  V30 43 1 6 40
M  V30 44 1 8 41
M  V30 45 1 12 42
M  V30 46 1 13 43
M  V30 47 1 15 44
M  V30 48 1 15 45
M  V30 49 1 15 46
M  V30 50 1 17 47
M  V30 51 1 21 48
M  V30 52 1 25 49
M  V30 53 1 26 50
M  V30 54 1 29 51
M  V30 55 1 30 52
M  V30 56 1 32 53
M  V30 57 1 32 54
M  V30 58 1 33 55
M  V30 END BOND
M  V30 END CTAB
M  END
>  <Dataset>  (225) 
ChEMBL_Kinases

>  <Ligand_Instance>  (225) 
nan

>  <PDB_ID>  (225) 
nan

>  <Standardized_SMILES>  (225) 
CCn1nccc1NC(=O)c1ccc(C)c(NC(=O)c2cnn(-c3ccc(F)cc3)c2N)c1

>  <Name>  (225) 
nan

>  <Pocket>  (225) 
nan

>  <ATP_Site>  (225) 
nan

>  <Peripheral>  (225) 
nan

>  <Num_H_Atoms_ProtBoundConf>  (225) 
nan

>  <Num_Resolved_Atoms>  (225) 
nan

>  <Num_Not_Resolved_Atoms>  (225) 
nan

$$$$
CHEMBL1289078
     RDKit          3D

  0  0  0  0  0  0  0  0  0  0999 V3000
M  V30 BEGIN CTAB
M  V30 COUNTS 48 51 0 0 0
M  V30 BEGIN ATOM
M  V30 1 C 1.250489 0.665353 4.310906 0
M  V30 2 C 1.765936 1.308188 3.065822 0
M  V30 3 C 2.529247 2.451946 3.166746 0
M  V30 4 C 3.021731 3.069566 2.011649 0
M  V30 5 C 2.756465 2.551454 0.753275 0
M  V30 6 C 3.307747 3.256817 -0.397328 0
M  V30 7 O 3.979962 4.276465 -0.180347 0
M  V30 8 N 3.101076 2.818781 -1.728570 0
M  V30 9 C 3.705709 3.616791 -2.742695 0
M  V30 10 C 3.367088 4.707214 -3.519424 0
M  V30 11 C 4.477217 4.942670 -4.305889 0
M  V30 12 O 5.412439 4.063448 -4.025875 0
M  V30 13 N 4.968805 3.252801 -3.084808 0
M  V30 14 C 1.991536 1.408335 0.683195 0
M  V30 15 C 1.498784 0.787806 1.812831 0
M  V30 16 N 0.728842 -0.370899 1.660095 0
M  V30 17 C -0.647112 -0.657242 1.495342 0
M  V30 18 O -1.564190 0.203555 1.449309 0
M  V30 19 C -1.029287 -2.060535 1.369307 0
M  V30 20 C -0.226430 -3.182539 1.387153 0
M  V30 21 N -1.040964 -4.248447 1.235312 0
M  V30 22 N -2.304669 -3.832815 1.125290 0
M  V30 23 C -3.374928 -4.758324 0.954614 0
M  V30 24 C -3.423813 -5.744029 1.942130 0
M  V30 25 C -4.397621 -6.747239 1.956807 0
M  V30 26 C -5.319522 -6.723699 0.943903 0
M  V30 27 F -6.286580 -7.650976 0.885708 0
M  V30 28 C -5.276953 -5.764242 -0.022693 0
M  V30 29 C -4.322307 -4.770878 -0.047518 0
M  V30 30 C -2.336229 -2.470133 1.204590 0
M  V30 31 N -3.516270 -1.689632 1.125657 0
M  V30 32 H 0.447202 1.335837 4.687898 0
M  V30 33 H 0.905018 -0.367019 4.121427 0
M  V30 34 H 2.070925 0.662139 5.041317 0
M  V30 35 H 2.722882 2.838041 4.165371 0
M  V30 36 H 3.618246 3.971476 2.172540 0
M  V30 37 H 2.536204 1.960099 -1.930014 0
M  V30 38 H 2.381435 5.127990 -3.372057 0
M  V30 39 H 4.439510 5.774265 -5.013566 0
M  V30 40 H 1.780598 0.998317 -0.297379 0
M  V30 41 H 1.459237 -1.127653 1.692436 0
M  V30 42 H 0.846354 -3.190883 1.501452 0
M  V30 43 H -2.707957 -5.803626 2.772239 0
M  V30 44 H -4.408833 -7.497919 2.736755 0
M  V30 45 H -6.001217 -5.750938 -0.812982 0
M  V30 46 H -4.218013 -3.972242 -0.778299 0
M  V30 47 H -3.885988 -1.170545 0.297068 0
M  V30 48 H -4.037774 -1.664111 2.026027 0
M  V30 END ATOM
M  V30 BEGIN BOND
M  V30 1 1 1 2
M  V30 2 2 2 3
M  V30 3 1 3 4
M  V30 4 2 4 5
M  V30 5 1 5 6
M  V30 6 2 6 7
M  V30 7 1 6 8
M  V30 8 1 8 9
M  V30 9 1 9 10
M  V30 10 2 10 11
M  V30 11 1 11 12
M  V30 12 1 12 13
M  V30 13 1 5 14
M  V30 14 2 14 15
M  V30 15 1 15 16
M  V30 16 1 16 17
M  V30 17 2 17 18
M  V30 18 1 17 19
M  V30 19 1 19 20
M  V30 20 2 20 21
M  V30 21 1 21 22
M  V30 22 1 22 23
M  V30 23 2 23 24
M  V30 24 1 24 25
M  V30 25 2 25 26
M  V30 26 1 26 27
M  V30 27 1 26 28
M  V30 28 2 28 29
M  V30 29 1 22 30
M  V30 30 1 30 31
M  V30 31 1 15 2
M  V30 32 2 30 19
M  V30 33 2 13 9
M  V30 34 1 29 23
M  V30 35 1 1 32
M  V30 36 1 1 33
M  V30 37 1 1 34
M  V30 38 1 3 35
M  V30 39 1 4 36
M  V30 40 1 8 37
M  V30 41 1 10 38
M  V30 42 1 11 39
M  V30 43 1 14 40
M  V30 44 1 16 41
M  V30 45 1 20 42
M  V30 46 1 24 43
M  V30 47 1 25 44
M  V30 48 1 28 45
M  V30 49 1 29 46
M  V30 50 1 31 47
M  V30 51 1 31 48
M  V30 END BOND
M  V30 END CTAB
M  END
>  <Dataset>  (226) 
ChEMBL_Kinases

>  <Ligand_Instance>  (226) 
nan

>  <PDB_ID>  (226) 
nan

>  <Standardized_SMILES>  (226) 
Cc1ccc(C(=O)Nc2ccon2)cc1NC(=O)c1cnn(-c2ccc(F)cc2)c1N

>  <Name>  (226) 
nan

>  <Pocket>  (226) 
nan

>  <ATP_Site>  (226) 
nan

>  <Peripheral>  (226) 
nan

>  <Num_H_Atoms_ProtBoundConf>  (226) 
nan

>  <Num_Resolved_Atoms>  (226) 
nan

>  <Num_Not_Resolved_Atoms>  (226) 
nan

$$$$
CHEMBL1289197
     RDKit          3D

  0  0  0  0  0  0  0  0  0  0999 V3000
M  V30 BEGIN CTAB
M  V30 COUNTS 50 52 0 0 0
M  V30 BEGIN ATOM
M  V30 1 C -7.303794 -0.974658 1.765553 0
M  V30 2 C -6.581730 -0.903681 0.438648 0
M  V30 3 C -6.283087 -2.305499 -0.044297 0
M  V30 4 C -5.549199 -2.264600 -1.391287 0
M  V30 5 N -4.301131 -1.540632 -1.232793 0
M  V30 6 N -4.236765 -0.216404 -1.417373 0
M  V30 7 C -2.982412 0.216519 -1.213554 0
M  V30 8 C -2.225827 -0.896374 -0.884794 0
M  V30 9 C -0.799523 -0.952088 -0.570761 0
M  V30 10 O -0.328393 -2.093573 -0.299600 0
M  V30 11 N -0.065492 0.255148 -0.593360 0
M  V30 12 C 1.315016 0.487933 -0.332070 0
M  V30 13 C 2.261242 0.436663 -1.334148 0
M  V30 14 C 3.591987 0.652746 -1.128625 0
M  V30 15 C 4.636157 0.611768 -2.146483 0
M  V30 16 O 5.844205 0.835705 -1.806741 0
M  V30 17 N 4.384753 0.332974 -3.515535 0
M  V30 18 C 5.365112 0.281819 -4.542070 0
M  V30 19 C 6.718422 0.478292 -4.466798 0
M  V30 20 C 7.247070 0.324177 -5.727132 0
M  V30 21 O 6.228122 0.048342 -6.498225 0
M  V30 22 N 5.118283 0.018773 -5.825042 0
M  V30 23 C 3.931056 0.931865 0.179153 0
M  V30 24 C 3.026607 0.995381 1.218225 0
M  V30 25 C 1.689179 0.769900 0.965146 0
M  V30 26 C 0.654268 0.820064 2.028452 0
M  V30 27 C -3.069400 -1.990501 -0.901598 0
M  V30 28 N -2.774641 -3.359372 -0.633496 0
M  V30 29 H -8.329708 -0.555925 1.615112 0
M  V30 30 H -6.768696 -0.413089 2.559027 0
M  V30 31 H -7.449387 -2.018252 2.110178 0
M  V30 32 H -7.191438 -0.382170 -0.326947 0
M  V30 33 H -5.653154 -0.332057 0.600083 0
M  V30 34 H -5.624001 -2.789015 0.705180 0
M  V30 35 H -7.194173 -2.913699 -0.127831 0
M  V30 36 H -5.387975 -3.289006 -1.742987 0
M  V30 37 H -6.203624 -1.760638 -2.121428 0
M  V30 38 H -2.572252 1.206429 -1.274018 0
M  V30 39 H -0.552824 1.154045 -0.831883 0
M  V30 40 H 1.926331 0.212472 -2.337480 0
M  V30 41 H 3.389880 0.159912 -3.731520 0
M  V30 42 H 7.300110 0.710229 -3.610336 0
M  V30 43 H 8.254110 0.393470 -6.100954 0
M  V30 44 H 4.976872 1.119524 0.440820 0
M  V30 45 H 3.352124 1.220421 2.233107 0
M  V30 46 H 0.250886 -0.187762 2.233638 0
M  V30 47 H -0.189476 1.491951 1.703616 0
M  V30 48 H 1.115398 1.291932 2.912122 0
M  V30 49 H -1.972738 -3.720056 -1.214347 0
M  V30 50 H -3.301658 -3.945658 0.068940 0
M  V30 END ATOM
M  V30 BEGIN BOND
M  V30 1 1 1 2
M  V30 2 1 2 3
M  V30 3 1 3 4
M  V30 4 1 4 5
M  V30 5 1 5 6
M  V30 6 2 6 7
M  V30 7 1 7 8
M  V30 8 1 8 9
M  V30 9 2 9 10
M  V30 10 1 9 11
M  V30 11 1 11 12
M  V30 12 2 12 13
M  V30 13 1 13 14
M  V30 14 1 14 15
M  V30 15 2 15 16
M  V30 16 1 15 17
M  V30 17 1 17 18
M  V30 18 1 18 19
M  V30 19 2 19 20
M  V30 20 1 20 21
M  V30 21 1 21 22
M  V30 22 2 14 23
M  V30 23 1 23 24
M  V30 24 2 24 25
M  V30 25 1 25 26
M  V30 26 2 8 27
M  V30 27 1 27 28
M  V30 28 1 27 5
M  V30 29 1 25 12
M  V30 30 2 22 18
M  V30 31 1 1 29
M  V30 32 1 1 30
M  V30 33 1 1 31
M  V30 34 1 2 32
M  V30 35 1 2 33
M  V30 36 1 3 34
M  V30 37 1 3 35
M  V30 38 1 4 36
M  V30 39 1 4 37
M  V30 40 1 7 38
M  V30 41 1 11 39
M  V30 42 1 13 40
M  V30 43 1 17 41
M  V30 44 1 19 42
M  V30 45 1 20 43
M  V30 46 1 23 44
M  V30 47 1 24 45
M  V30 48 1 26 46
M  V30 49 1 26 47
M  V30 50 1 26 48
M  V30 51 1 28 49
M  V30 52 1 28 50
M  V30 END BOND
M  V30 END CTAB
M  END
>  <Dataset>  (227) 
ChEMBL_Kinases

>  <Ligand_Instance>  (227) 
nan

>  <PDB_ID>  (227) 
nan

>  <Standardized_SMILES>  (227) 
CCCCn1ncc(C(=O)Nc2cc(C(=O)Nc3ccon3)ccc2C)c1N

>  <Name>  (227) 
nan

>  <Pocket>  (227) 
nan

>  <ATP_Site>  (227) 
nan

>  <Peripheral>  (227) 
nan

>  <Num_H_Atoms_ProtBoundConf>  (227) 
nan

>  <Num_Resolved_Atoms>  (227) 
nan

>  <Num_Not_Resolved_Atoms>  (227) 
nan

$$$$
CHEMBL1278121
     RDKit          3D

  0  0  0  0  0  0  0  0  0  0999 V3000
M  V30 BEGIN CTAB
M  V30 COUNTS 56 60 0 0 0
M  V30 BEGIN ATOM
M  V30 1 N 4.662614 -2.307132 6.548537 0
M  V30 2 C 4.179591 -1.262752 5.655522 0
M  V30 3 C 3.101986 -1.775195 4.723757 0
M  V30 4 N 2.650528 -0.718757 3.862923 0
M  V30 5 C 3.443702 0.012269 2.941132 0
M  V30 6 O 4.680253 -0.263601 2.835666 0
M  V30 7 C 2.957306 1.080443 2.079974 0
M  V30 8 C 3.849071 1.709332 1.239859 0
M  V30 9 C 3.419982 2.734907 0.398517 0
M  V30 10 C 2.107363 3.156242 0.371546 0
M  V30 11 C 1.207477 2.513343 1.226683 0
M  V30 12 C -0.185654 3.018665 1.142107 0
M  V30 13 N -0.893813 2.263148 0.127137 0
M  V30 14 C -1.408210 0.949859 0.231176 0
M  V30 15 O -1.290710 0.287537 1.272094 0
M  V30 16 C -2.105647 0.278701 -0.856482 0
M  V30 17 C -2.811605 1.047240 -1.752613 0
M  V30 18 C -3.478172 0.396443 -2.794225 0
M  V30 19 C -3.425833 -0.969646 -2.913572 0
M  V30 20 C -2.726608 -1.706501 -2.022594 0
M  V30 21 C -2.069814 -1.090452 -0.999980 0
M  V30 22 N -1.455081 -2.059345 -0.262467 0
M  V30 23 C -1.747689 -3.249761 -0.848155 0
M  V30 24 C -1.325671 -4.498120 -0.424891 0
M  V30 25 C -1.701282 -5.641506 -1.122209 0
M  V30 26 C -2.503522 -5.455723 -2.237930 0
M  V30 27 O -2.877837 -6.605719 -2.934256 0
M  V30 28 C -2.886041 -4.186335 -2.601969 0
M  V30 29 C -2.541225 -3.054395 -1.950139 0
M  V30 30 C -4.217148 -1.255275 -4.081266 0
M  V30 31 O -4.530338 -2.295765 -4.675102 0
M  V30 32 N -4.724311 -0.053002 -4.633101 0
M  V30 33 C -4.274310 1.041270 -3.836789 0
M  V30 34 O -4.502205 2.268671 -3.987218 0
M  V30 35 C 1.666271 1.506242 2.042793 0
M  V30 36 H 4.614555 -3.247267 6.100734 0
M  V30 37 H 4.120315 -2.329361 7.439010 0
M  V30 38 H 3.816275 -0.384636 6.220963 0
M  V30 39 H 5.035387 -0.935853 5.034119 0
M  V30 40 H 2.251325 -2.128010 5.325566 0
M  V30 41 H 3.504872 -2.578511 4.056181 0
M  V30 42 H 1.653099 -0.408237 3.865253 0
M  V30 43 H 4.911415 1.447346 1.187181 0
M  V30 44 H 4.158715 3.217024 -0.260707 0
M  V30 45 H 1.860390 3.958561 -0.311170 0
M  V30 46 H -0.234615 4.080752 0.911162 0
M  V30 47 H -0.721378 2.868382 2.107329 0
M  V30 48 H -1.061571 2.714539 -0.807449 0
M  V30 49 H -2.832228 2.120495 -1.629121 0
M  V30 50 H -0.873092 -1.902170 0.588359 0
M  V30 51 H -0.703092 -4.628444 0.443163 0
M  V30 52 H -1.376657 -6.611406 -0.797846 0
M  V30 53 H -3.847451 -6.917006 -2.840423 0
M  V30 54 H -3.494204 -4.166853 -3.465190 0
M  V30 55 H -5.336279 0.148000 -5.476564 0
M  V30 56 H 0.934306 1.061458 2.667828 0
M  V30 END ATOM
M  V30 BEGIN BOND
M  V30 1 1 1 2
M  V30 2 1 2 3
M  V30 3 1 3 4
M  V30 4 1 4 5
M  V30 5 2 5 6
M  V30 6 1 5 7
M  V30 7 2 7 8
M  V30 8 1 8 9
M  V30 9 2 9 10
M  V30 10 1 10 11
M  V30 11 1 11 12
M  V30 12 1 12 13
M  V30 13 1 13 14
M  V30 14 2 14 15
M  V30 15 1 14 16
M  V30 16 2 16 17
M  V30 17 1 17 18
M  V30 18 2 18 19
M  V30 19 1 19 20
M  V30 20 2 20 21
M  V30 21 1 21 22
M  V30 22 1 22 23
M  V30 23 2 23 24
M  V30 24 1 24 25
M  V30 25 2 25 26
M  V30 26 1 26 27
M  V30 27 1 26 28
M  V30 28 2 28 29
M  V30 29 1 19 30
M  V30 30 2 30 31
M  V30 31 1 30 32
M  V30 32 1 32 33
M  V30 33 2 33 34
M  V30 34 2 11 35
M  V30 35 1 35 7
M  V30 36 1 21 16
M  V30 37 1 29 23
M  V30 38 1 33 18
M  V30 39 1 29 20
M  V30 40 1 1 36
M  V30 41 1 1 37
M  V30 42 1 2 38
M  V30 43 1 2 39
M  V30 44 1 3 40
M  V30 45 1 3 41
M  V30 46 1 4 42
M  V30 47 1 8 43
M  V30 48 1 9 44
M  V30 49 1 10 45
M  V30 50 1 12 46
M  V30 51 1 12 47
M  V30 52 1 13 48
M  V30 53 1 17 49
M  V30 54 1 22 50
M  V30 55 1 24 51
M  V30 56 1 25 52
M  V30 57 1 27 53
M  V30 58 1 28 54
M  V30 59 1 32 55
M  V30 60 1 35 56
M  V30 END BOND
M  V30 END CTAB
M  END
>  <Dataset>  (228) 
ChEMBL_Kinases

>  <Ligand_Instance>  (228) 
nan

>  <PDB_ID>  (228) 
nan

>  <Standardized_SMILES>  (228) 
NCCNC(=O)c1cccc(CNC(=O)c2cc3c(c4c2[nH]c2ccc(O)cc24)C(=O)NC3=O)c1

>  <Name>  (228) 
nan

>  <Pocket>  (228) 
nan

>  <ATP_Site>  (228) 
nan

>  <Peripheral>  (228) 
nan

>  <Num_H_Atoms_ProtBoundConf>  (228) 
nan

>  <Num_Resolved_Atoms>  (228) 
nan

>  <Num_Not_Resolved_Atoms>  (228) 
nan

$$$$
CHEMBL1554579
     RDKit          3D

  0  0  0  0  0  0  0  0  0  0999 V3000
M  V30 BEGIN CTAB
M  V30 COUNTS 30 33 0 0 0
M  V30 BEGIN ATOM
M  V30 1 C -3.481569 -3.813161 3.480492 0
M  V30 2 C -2.228435 -3.217441 3.303914 0
M  V30 3 N -1.840487 -3.539159 2.034821 0
M  V30 4 C -0.577542 -3.052718 1.583461 0
M  V30 5 C -0.399650 -1.765539 1.105059 0
M  V30 6 C 0.796924 -1.257000 0.661205 0
M  V30 7 C 0.948141 0.105888 0.163067 0
M  V30 8 C -0.067311 1.033604 0.077049 0
M  V30 9 C 0.152217 2.307662 -0.406316 0
M  V30 10 C 1.408854 2.702550 -0.825088 0
M  V30 11 C 2.441503 1.791536 -0.748648 0
M  V30 12 C 2.180681 0.526590 -0.259040 0
M  V30 13 O 3.588866 2.440862 -1.229305 0
M  V30 14 C 3.334643 3.850307 -1.150394 0
M  V30 15 O 1.914522 3.906036 -1.349176 0
M  V30 16 N 1.845149 -2.098852 0.710585 0
M  V30 17 C 1.728328 -3.359115 1.166009 0
M  V30 18 N 0.531344 -3.849329 1.603717 0
M  V30 19 C -2.805517 -4.292194 1.464720 0
M  V30 20 N -3.811608 -4.462368 2.345752 0
M  V30 21 H -4.164550 -3.817127 4.346243 0
M  V30 22 H -1.797226 -2.649765 4.113386 0
M  V30 23 H -1.279474 -1.165781 1.099978 0
M  V30 24 H -1.053826 0.735295 0.401825 0
M  V30 25 H -0.683360 3.021511 -0.460238 0
M  V30 26 H 3.023828 -0.129430 -0.226523 0
M  V30 27 H 3.595460 4.208788 -0.120198 0
M  V30 28 H 3.878207 4.413770 -1.924663 0
M  V30 29 H 2.613179 -3.989588 1.180401 0
M  V30 30 H -2.588416 -4.602972 0.440811 0
M  V30 END ATOM
M  V30 BEGIN BOND
M  V30 1 2 1 2
M  V30 2 1 2 3
M  V30 3 1 3 4
M  V30 4 2 4 5
M  V30 5 1 5 6
M  V30 6 1 6 7
M  V30 7 2 7 8
M  V30 8 1 8 9
M  V30 9 2 9 10
M  V30 10 1 10 11
M  V30 11 2 11 12
M  V30 12 1 11 13
M  V30 13 1 13 14
M  V30 14 1 14 15
M  V30 15 2 6 16
M  V30 16 1 16 17
M  V30 17 2 17 18
M  V30 18 1 3 19
M  V30 19 2 19 20
M  V30 20 1 20 1
M  V30 21 1 18 4
M  V30 22 1 12 7
M  V30 23 1 15 10
M  V30 24 1 1 21
M  V30 25 1 2 22
M  V30 26 1 5 23
M  V30 27 1 8 24
M  V30 28 1 9 25
M  V30 29 1 12 26
M  V30 30 1 14 27
M  V30 31 1 14 28
M  V30 32 1 17 29
M  V30 33 1 19 30
M  V30 END BOND
M  V30 END CTAB
M  END
>  <Dataset>  (229) 
ChEMBL_Kinases

>  <Ligand_Instance>  (229) 
nan

>  <PDB_ID>  (229) 
nan

>  <Standardized_SMILES>  (229) 
c1cn(-c2cc(-c3ccc4c(c3)OCO4)ncn2)cn1

>  <Name>  (229) 
nan

>  <Pocket>  (229) 
nan

>  <ATP_Site>  (229) 
nan

>  <Peripheral>  (229) 
nan

>  <Num_H_Atoms_ProtBoundConf>  (229) 
nan

>  <Num_Resolved_Atoms>  (229) 
nan

>  <Num_Not_Resolved_Atoms>  (229) 
nan

$$$$
CHEMBL1554567
     RDKit          3D

  0  0  0  0  0  0  0  0  0  0999 V3000
M  V30 BEGIN CTAB
M  V30 COUNTS 35 36 0 0 0
M  V30 BEGIN ATOM
M  V30 1 C -1.933937 -1.617876 2.275946 0
M  V30 2 O -0.679502 -2.148231 2.435884 0
M  V30 3 C -0.617353 -3.520064 2.175242 0
M  V30 4 C 0.812233 -3.964771 2.408387 0
M  V30 5 N 1.717759 -3.252598 1.524568 0
M  V30 6 C 1.677823 -1.818641 1.540919 0
M  V30 7 C 1.043552 -1.137139 0.509142 0
M  V30 8 C 0.919398 0.229714 0.401746 0
M  V30 9 C 0.247884 0.883031 -0.715924 0
M  V30 10 C -0.266980 0.155261 -1.771061 0
M  V30 11 C -0.903425 0.718513 -2.856189 0
M  V30 12 C -1.035726 2.088297 -2.893814 0
M  V30 13 C -0.536931 2.886799 -1.857130 0
M  V30 14 C 0.098988 2.249176 -0.782951 0
M  V30 15 C 0.607046 3.117730 0.304059 0
M  V30 16 N 1.474095 0.900317 1.403188 0
M  V30 17 C 2.100644 0.309683 2.429072 0
M  V30 18 N 2.211671 -1.050537 2.512203 0
M  V30 19 H -2.308452 -1.752244 1.244858 0
M  V30 20 H -2.645521 -1.990099 3.047805 0
M  V30 21 H -1.856257 -0.525355 2.463397 0
M  V30 22 H -1.286621 -4.088873 2.845681 0
M  V30 23 H -0.868111 -3.761798 1.122946 0
M  V30 24 H 1.140181 -3.846256 3.450991 0
M  V30 25 H 0.839232 -5.046029 2.165385 0
M  V30 26 H 2.365605 -3.784188 0.906510 0
M  V30 27 H 0.626186 -1.788740 -0.255254 0
M  V30 28 H -0.215865 -0.919978 -1.839551 0
M  V30 29 H -1.309886 0.141315 -3.690921 0
M  V30 30 H -1.512688 2.652098 -3.684570 0
M  V30 31 H -0.633036 3.962507 -1.874134 0
M  V30 32 H 0.056188 2.779501 1.230351 0
M  V30 33 H 0.317951 4.192595 0.095792 0
M  V30 34 H 1.677074 3.063664 0.484686 0
M  V30 35 H 2.570945 0.811761 3.272030 0
M  V30 END ATOM
M  V30 BEGIN BOND
M  V30 1 1 1 2
M  V30 2 1 2 3
M  V30 3 1 3 4
M  V30 4 1 4 5
M  V30 5 1 5 6
M  V30 6 2 6 7
M  V30 7 1 7 8
M  V30 8 1 8 9
M  V30 9 2 9 10
M  V30 10 1 10 11
M  V30 11 2 11 12
M  V30 12 1 12 13
M  V30 13 2 13 14
M  V30 14 1 14 15
M  V30 15 2 8 16
M  V30 16 1 16 17
M  V30 17 2 17 18
M  V30 18 1 18 6
M  V30 19 1 14 9
M  V30 20 1 1 19
M  V30 21 1 1 20
M  V30 22 1 1 21
M  V30 23 1 3 22
M  V30 24 1 3 23
M  V30 25 1 4 24
M  V30 26 1 4 25
M  V30 27 1 5 26
M  V30 28 1 7 27
M  V30 29 1 10 28
M  V30 30 1 11 29
M  V30 31 1 12 30
M  V30 32 1 13 31
M  V30 33 1 15 32
M  V30 34 1 15 33
M  V30 35 1 15 34
M  V30 36 1 17 35
M  V30 END BOND
M  V30 END CTAB
M  END
>  <Dataset>  (230) 
ChEMBL_Kinases

>  <Ligand_Instance>  (230) 
nan

>  <PDB_ID>  (230) 
nan

>  <Standardized_SMILES>  (230) 
COCCNc1cc(-c2ccccc2C)ncn1

>  <Name>  (230) 
nan

>  <Pocket>  (230) 
nan

>  <ATP_Site>  (230) 
nan

>  <Peripheral>  (230) 
nan

>  <Num_H_Atoms_ProtBoundConf>  (230) 
nan

>  <Num_Resolved_Atoms>  (230) 
nan

>  <Num_Not_Resolved_Atoms>  (230) 
nan

$$$$
CHEMBL1554348
     RDKit          3D

  0  0  0  0  0  0  0  0  0  0999 V3000
M  V30 BEGIN CTAB
M  V30 COUNTS 41 43 0 0 0
M  V30 BEGIN ATOM
M  V30 1 C -0.548597 -6.737441 1.356539 0
M  V30 2 O 0.256595 -6.073219 2.323478 0
M  V30 3 C 0.688542 -4.791497 2.011962 0
M  V30 4 C 1.472145 -4.122211 2.933393 0
M  V30 5 C 1.913304 -2.848428 2.648010 0
M  V30 6 C 1.563300 -2.252850 1.434542 0
M  V30 7 C 0.783852 -2.891372 0.493373 0
M  V30 8 N 0.422774 -2.285562 -0.743538 0
M  V30 9 C 0.761728 -0.942482 -1.057519 0
M  V30 10 N 1.371509 -0.437310 -2.172773 0
M  V30 11 C 1.580538 0.911461 -2.230671 0
M  V30 12 C 1.194621 1.749110 -1.206314 0
M  V30 13 N 1.398403 3.076950 -1.249440 0
M  V30 14 C 1.028529 3.915850 -0.250196 0
M  V30 15 C 1.225985 5.378404 -0.230595 0
M  V30 16 C 0.407485 3.370286 0.873733 0
M  V30 17 O 0.008864 4.042942 1.885136 0
M  V30 18 N 0.203159 2.044127 0.918710 0
M  V30 19 C -0.442846 1.321136 2.026589 0
M  V30 20 C -1.917515 1.313181 1.674317 0
M  V30 21 C -2.673447 0.612471 2.707276 0
M  V30 22 N -3.265753 0.064544 3.539216 0
M  V30 23 C 0.577847 1.228278 -0.082949 0
M  V30 24 N 0.396703 -0.102980 -0.077333 0
M  V30 25 C 0.357129 -4.163000 0.805384 0
M  V30 26 H -0.772499 -7.785753 1.635986 0
M  V30 27 H -0.016720 -6.751256 0.374289 0
M  V30 28 H -1.521559 -6.191069 1.243163 0
M  V30 29 H 1.778872 -4.527397 3.891591 0
M  V30 30 H 2.530286 -2.303158 3.359066 0
M  V30 31 H 1.943459 -1.254909 1.273432 0
M  V30 32 H -0.108305 -2.847737 -1.440734 0
M  V30 33 H 2.058245 1.287324 -3.109785 0
M  V30 34 H 0.325799 5.843609 0.249321 0
M  V30 35 H 1.410974 5.799261 -1.245214 0
M  V30 36 H 2.092064 5.557727 0.470454 0
M  V30 37 H -0.280581 1.927893 2.940910 0
M  V30 38 H -0.034828 0.321885 2.163190 0
M  V30 39 H -2.019034 0.848334 0.682642 0
M  V30 40 H -2.334749 2.330523 1.626424 0
M  V30 41 H -0.263443 -4.731717 0.110018 0
M  V30 END ATOM
M  V30 BEGIN BOND
M  V30 1 1 1 2
M  V30 2 1 2 3
M  V30 3 2 3 4
M  V30 4 1 4 5
M  V30 5 2 5 6
M  V30 6 1 6 7
M  V30 7 1 7 8
M  V30 8 1 8 9
M  V30 9 2 9 10
M  V30 10 1 10 11
M  V30 11 2 11 12
M  V30 12 1 12 13
M  V30 13 2 13 14
M  V30 14 1 14 15
M  V30 15 1 14 16
M  V30 16 2 16 17
M  V30 17 1 16 18
M  V30 18 1 18 19
M  V30 19 1 19 20
M  V30 20 1 20 21
M  V30 21 3 21 22
M  V30 22 1 18 23
M  V30 23 2 23 24
M  V30 24 2 7 25
M  V30 25 1 25 3
M  V30 26 1 24 9
M  V30 27 1 23 12
M  V30 28 1 1 26
M  V30 29 1 1 27
M  V30 30 1 1 28
M  V30 31 1 4 29
M  V30 32 1 5 30
M  V30 33 1 6 31
M  V30 34 1 8 32
M  V30 35 1 11 33
M  V30 36 1 15 34
M  V30 37 1 15 35
M  V30 38 1 15 36
M  V30 39 1 19 37
M  V30 40 1 19 38
M  V30 41 1 20 39
M  V30 42 1 20 40
M  V30 43 1 25 41
M  V30 END BOND
M  V30 END CTAB
M  END
>  <Dataset>  (231) 
ChEMBL_Kinases

>  <Ligand_Instance>  (231) 
nan

>  <PDB_ID>  (231) 
nan

>  <Standardized_SMILES>  (231) 
COc1cccc(Nc2ncc3nc(C)c(=O)n(CCC#N)c3n2)c1

>  <Name>  (231) 
nan

>  <Pocket>  (231) 
nan

>  <ATP_Site>  (231) 
nan

>  <Peripheral>  (231) 
nan

>  <Num_H_Atoms_ProtBoundConf>  (231) 
nan

>  <Num_Resolved_Atoms>  (231) 
nan

>  <Num_Not_Resolved_Atoms>  (231) 
nan

$$$$
CHEMBL1554158
     RDKit          3D

  0  0  0  0  0  0  0  0  0  0999 V3000
M  V30 BEGIN CTAB
M  V30 COUNTS 36 38 0 0 0
M  V30 BEGIN ATOM
M  V30 1 C 0.062561 -1.655468 4.036371 0
M  V30 2 C 0.271356 -2.670189 2.963863 0
M  V30 3 N -0.019348 -3.981991 3.065132 0
M  V30 4 O 0.292655 -4.575257 1.934047 0
M  V30 5 C 0.776967 -3.734076 1.078558 0
M  V30 6 C 1.254404 -3.980420 -0.314330 0
M  V30 7 C 0.789360 -2.501753 1.675265 0
M  V30 8 C 1.235134 -1.210307 1.152107 0
M  V30 9 C 2.559278 -0.830037 1.332308 0
M  V30 10 C 2.921132 0.413460 0.809715 0
M  V30 11 C 2.035619 1.242303 0.145687 0
M  V30 12 N 2.410904 2.433505 -0.346893 0
M  V30 13 C 1.489228 3.185746 -0.982594 0
M  V30 14 N 0.204714 2.773283 -1.135530 0
M  V30 15 C -0.213439 1.579922 -0.653885 0
M  V30 16 N -1.580858 1.196124 -0.844449 0
M  V30 17 C -2.629365 0.881750 0.099477 0
M  V30 18 C -1.928196 1.123657 -2.250748 0
M  V30 19 C 0.732183 0.811907 -0.003555 0
M  V30 20 C 0.314828 -0.407269 0.491281 0
M  V30 21 H 0.764418 -0.800652 3.932224 0
M  V30 22 H 0.126017 -2.141347 5.024416 0
M  V30 23 H -0.964270 -1.225292 3.946691 0
M  V30 24 H 1.332804 -3.057280 -0.886073 0
M  V30 25 H 0.420491 -4.568239 -0.796351 0
M  V30 26 H 2.128508 -4.649735 -0.349270 0
M  V30 27 H 3.276850 -1.446387 1.842634 0
M  V30 28 H 3.951631 0.738273 0.935481 0
M  V30 29 H 1.749758 4.167852 -1.402395 0
M  V30 30 H -2.345319 0.939477 1.148719 0
M  V30 31 H -3.516934 1.503310 -0.163447 0
M  V30 32 H -2.964174 -0.170161 -0.125593 0
M  V30 33 H -2.759476 0.394779 -2.405240 0
M  V30 34 H -2.177146 2.121132 -2.667146 0
M  V30 35 H -1.096275 0.734623 -2.878626 0
M  V30 36 H -0.692334 -0.762113 0.387135 0
M  V30 END ATOM
M  V30 BEGIN BOND
M  V30 1 1 1 2
M  V30 2 2 2 3
M  V30 3 1 3 4
M  V30 4 1 4 5
M  V30 5 1 5 6
M  V30 6 2 5 7
M  V30 7 1 7 8
M  V30 8 2 8 9
M  V30 9 1 9 10
M  V30 10 2 10 11
M  V30 11 1 11 12
M  V30 12 2 12 13
M  V30 13 1 13 14
M  V30 14 2 14 15
M  V30 15 1 15 16
M  V30 16 1 16 17
M  V30 17 1 16 18
M  V30 18 1 15 19
M  V30 19 2 19 20
M  V30 20 1 7 2
M  V30 21 1 20 8
M  V30 22 1 19 11
M  V30 23 1 1 21
M  V30 24 1 1 22
M  V30 25 1 1 23
M  V30 26 1 6 24
M  V30 27 1 6 25
M  V30 28 1 6 26
M  V30 29 1 9 27
M  V30 30 1 10 28
M  V30 31 1 13 29
M  V30 32 1 17 30
M  V30 33 1 17 31
M  V30 34 1 17 32
M  V30 35 1 18 33
M  V30 36 1 18 34
M  V30 37 1 18 35
M  V30 38 1 20 36
M  V30 END BOND
M  V30 END CTAB
M  END
>  <Dataset>  (232) 
ChEMBL_Kinases

>  <Ligand_Instance>  (232) 
nan

>  <PDB_ID>  (232) 
nan

>  <Standardized_SMILES>  (232) 
Cc1noc(C)c1-c1ccc2ncnc(N(C)C)c2c1

>  <Name>  (232) 
nan

>  <Pocket>  (232) 
nan

>  <ATP_Site>  (232) 
nan

>  <Peripheral>  (232) 
nan

>  <Num_H_Atoms_ProtBoundConf>  (232) 
nan

>  <Num_Resolved_Atoms>  (232) 
nan

>  <Num_Not_Resolved_Atoms>  (232) 
nan

$$$$
CHEMBL1553694
     RDKit          3D

  0  0  0  0  0  0  0  0  0  0999 V3000
M  V30 BEGIN CTAB
M  V30 COUNTS 51 55 0 0 0
M  V30 BEGIN ATOM
M  V30 1 C -1.182370 -3.579416 1.242171 0
M  V30 2 O -0.113877 -4.147893 1.968443 0
M  V30 3 C 0.938436 -3.335554 2.342008 0
M  V30 4 C 1.909905 -4.046220 3.051939 0
M  V30 5 C 3.063473 -3.401484 3.524674 0
M  V30 6 C 3.238141 -2.056680 3.285117 0
M  V30 7 N 4.158577 -1.121019 3.570959 0
M  V30 8 C 3.792120 0.094302 3.074384 0
M  V30 9 C 2.553531 -0.041408 2.417543 0
M  V30 10 C 1.985991 1.151144 1.760225 0
M  V30 11 C 2.321767 1.237978 0.316531 0
M  V30 12 N 1.821919 0.154948 -0.484380 0
M  V30 13 C 0.442536 0.030573 -0.734682 0
M  V30 14 N -0.409263 0.930408 -0.223322 0
M  V30 15 C -1.734708 0.877999 -0.420804 0
M  V30 16 C -2.621682 1.878159 0.154070 0
M  V30 17 C -3.986257 1.832506 -0.039879 0
M  V30 18 C -4.879713 2.746818 0.476887 0
M  V30 19 C -4.405288 3.790178 1.244605 0
M  V30 20 N -3.075712 3.837922 1.435559 0
M  V30 21 C -2.210844 2.942634 0.928446 0
M  V30 22 N -2.275029 -0.105600 -1.159120 0
M  V30 23 C -1.496279 -1.061997 -1.717975 0
M  V30 24 C -2.057107 -2.075244 -2.478790 0
M  V30 25 C -1.172331 -3.018037 -3.014651 0
M  V30 26 C 0.192126 -2.977795 -2.820602 0
M  V30 27 C 0.674736 -1.922372 -2.040704 0
M  V30 28 C -0.146555 -0.964467 -1.486549 0
M  V30 29 C 2.274518 -1.371722 2.584782 0
M  V30 30 C 1.158379 -1.997690 2.129080 0
M  V30 31 H -1.362112 -2.536943 1.537298 0
M  V30 32 H -0.977512 -3.611655 0.147343 0
M  V30 33 H -2.080297 -4.221579 1.492843 0
M  V30 34 H 1.894027 -5.100624 3.305923 0
M  V30 35 H 3.835253 -3.921361 4.077661 0
M  V30 36 H 5.035029 -1.315777 4.105433 0
M  V30 37 H 4.428133 0.975107 3.215935 0
M  V30 38 H 0.872112 1.073376 1.887510 0
M  V30 39 H 2.304163 2.094591 2.260628 0
M  V30 40 H 3.422368 1.406199 0.212096 0
M  V30 41 H 1.869614 2.176615 -0.126399 0
M  V30 42 H 2.579200 -0.475004 -0.823709 0
M  V30 43 H -4.398635 1.015215 -0.646376 0
M  V30 44 H -5.956964 2.642062 0.277288 0
M  V30 45 H -5.134441 4.486762 1.633205 0
M  V30 46 H -1.136001 3.045542 1.126960 0
M  V30 47 H -3.120893 -2.135243 -2.650097 0
M  V30 48 H -1.572267 -3.842685 -3.626884 0
M  V30 49 H 0.864609 -3.719915 -3.245853 0
M  V30 50 H 1.747695 -1.929226 -1.915127 0
M  V30 51 H 0.375484 -1.513134 1.593017 0
M  V30 END ATOM
M  V30 BEGIN BOND
M  V30 1 1 1 2
M  V30 2 1 2 3
M  V30 3 2 3 4
M  V30 4 1 4 5
M  V30 5 2 5 6
M  V30 6 1 6 7
M  V30 7 1 7 8
M  V30 8 2 8 9
M  V30 9 1 9 10
M  V30 10 1 10 11
M  V30 11 1 11 12
M  V30 12 1 12 13
M  V30 13 2 13 14
M  V30 14 1 14 15
M  V30 15 1 15 16
M  V30 16 2 16 17
M  V30 17 1 17 18
M  V30 18 2 18 19
M  V30 19 1 19 20
M  V30 20 2 20 21
M  V30 21 2 15 22
M  V30 22 1 22 23
M  V30 23 2 23 24
M  V30 24 1 24 25
M  V30 25 2 25 26
M  V30 26 1 26 27
M  V30 27 2 27 28
M  V30 28 1 9 29
M  V30 29 2 29 30
M  V30 30 1 30 3
M  V30 31 1 29 6
M  V30 32 1 28 13
M  V30 33 1 21 16
M  V30 34 1 28 23
M  V30 35 1 1 31
M  V30 36 1 1 32
M  V30 37 1 1 33
M  V30 38 1 4 34
M  V30 39 1 5 35
M  V30 40 1 7 36
M  V30 41 1 8 37
M  V30 42 1 10 38
M  V30 43 1 10 39
M  V30 44 1 11 40
M  V30 45 1 11 41
M  V30 46 1 12 42
M  V30 47 1 17 43
M  V30 48 1 18 44
M  V30 49 1 19 45
M  V30 50 1 21 46
M  V30 51 1 24 47
M  V30 52 1 25 48
M  V30 53 1 26 49
M  V30 54 1 27 50
M  V30 55 1 30 51
M  V30 END BOND
M  V30 END CTAB
M  END
>  <Dataset>  (233) 
ChEMBL_Kinases

>  <Ligand_Instance>  (233) 
nan

>  <PDB_ID>  (233) 
nan

>  <Standardized_SMILES>  (233) 
COc1ccc2[nH]cc(CCNc3nc(-c4cccnc4)nc4ccccc34)c2c1

>  <Name>  (233) 
nan

>  <Pocket>  (233) 
nan

>  <ATP_Site>  (233) 
nan

>  <Peripheral>  (233) 
nan

>  <Num_H_Atoms_ProtBoundConf>  (233) 
nan

>  <Num_Resolved_Atoms>  (233) 
nan

>  <Num_Not_Resolved_Atoms>  (233) 
nan

$$$$
CHEMBL155333
     RDKit          3D

  0  0  0  0  0  0  0  0  0  0999 V3000
M  V30 BEGIN CTAB
M  V30 COUNTS 63 65 0 0 0
M  V30 BEGIN ATOM
M  V30 1 C 4.073748 0.853866 6.584472 0
M  V30 2 O 2.703810 0.818314 6.275700 0
M  V30 3 C 2.207385 1.072166 5.007768 0
M  V30 4 C 3.019442 1.385182 3.931653 0
M  V30 5 C 2.536089 1.642985 2.653372 0
M  V30 6 C 1.176306 1.583574 2.448392 0
M  V30 7 S 0.366460 1.869549 0.891718 0
M  V30 8 O 1.228931 2.812694 0.153279 0
M  V30 9 O -0.962133 2.422216 1.228829 0
M  V30 10 N 0.174447 0.322570 0.080080 0
M  V30 11 C 1.407325 -0.318547 -0.204094 0
M  V30 12 C 2.093670 0.055023 -1.485477 0
M  V30 13 O 2.409199 1.392640 -1.534098 0
M  V30 14 C -1.243111 0.103470 -0.023418 0
M  V30 15 C -1.718185 -0.424419 1.157748 0
M  V30 16 C -3.100444 -0.575558 1.346497 0
M  V30 17 C -3.918044 -0.173203 0.307514 0
M  V30 18 C -3.370497 0.354183 -0.869533 0
M  V30 19 C -2.006189 0.505214 -1.069486 0
M  V30 20 C -1.749710 0.933733 -2.427123 0
M  V30 21 N -1.908806 0.028202 -3.492084 0
M  V30 22 C -3.299679 -0.348242 -3.745005 0
M  V30 23 C -1.143674 -1.132193 -3.687102 0
M  V30 24 C -1.396892 -2.190254 -2.638166 0
M  V30 25 C -0.506074 -2.721836 -1.853233 0
M  V30 26 C -0.666502 -3.735025 -0.823254 0
M  V30 27 C 0.430791 -4.181427 -0.121833 0
M  V30 28 C 0.367840 -5.133978 0.868301 0
M  V30 29 C -0.870393 -5.656605 1.157585 0
M  V30 30 Cl -0.986898 -6.874381 2.412099 0
M  V30 31 C -1.986394 -5.232391 0.475464 0
M  V30 32 C -1.917456 -4.261290 -0.532363 0
M  V30 33 C 0.380088 1.265630 3.549847 0
M  V30 34 C 0.829699 1.004064 4.832458 0
M  V30 35 H 4.460903 1.864457 6.325767 0
M  V30 36 H 4.673196 0.115763 6.033860 0
M  V30 37 H 4.200867 0.717101 7.671367 0
M  V30 38 H 4.099860 1.435525 4.078682 0
M  V30 39 H 3.142242 1.886354 1.809193 0
M  V30 40 H 1.363911 -1.429892 -0.064179 0
M  V30 41 H 2.146261 -0.024343 0.609976 0
M  V30 42 H 1.342349 -0.111993 -2.290304 0
M  V30 43 H 2.975434 -0.596209 -1.691389 0
M  V30 44 H 2.164578 1.864688 -2.366733 0
M  V30 45 H -1.128447 -0.745310 1.982851 0
M  V30 46 H -3.505501 -0.984511 2.253832 0
M  V30 47 H -4.990996 -0.307122 0.494651 0
M  V30 48 H -4.182403 0.611941 -1.539430 0
M  V30 49 H -0.687701 1.324097 -2.507206 0
M  V30 50 H -2.333134 1.895431 -2.653948 0
M  V30 51 H -3.668403 -1.115587 -3.063807 0
M  V30 52 H -3.304157 -0.857582 -4.762050 0
M  V30 53 H -3.965530 0.518139 -3.913709 0
M  V30 54 H -0.053695 -1.011345 -3.790927 0
M  V30 55 H -1.466727 -1.626512 -4.692669 0
M  V30 56 H -2.417747 -2.581558 -2.487859 0
M  V30 57 H 0.473789 -2.315435 -2.059783 0
M  V30 58 H 1.434969 -3.801312 -0.315739 0
M  V30 59 H 1.245631 -5.467003 1.401209 0
M  V30 60 H -2.933378 -5.684811 0.751017 0
M  V30 61 H -2.800557 -3.959904 -1.034980 0
M  V30 62 H -0.702912 1.218094 3.385913 0
M  V30 63 H 0.107684 0.770348 5.600181 0
M  V30 END ATOM
M  V30 BEGIN BOND
M  V30 1 1 1 2
M  V30 2 1 2 3
M  V30 3 2 3 4
M  V30 4 1 4 5
M  V30 5 2 5 6
M  V30 6 1 6 7
M  V30 7 2 7 8
M  V30 8 2 7 9
M  V30 9 1 7 10
M  V30 10 1 10 11
M  V30 11 1 11 12
M  V30 12 1 12 13
M  V30 13 1 10 14
M  V30 14 2 14 15
M  V30 15 1 15 16
M  V30 16 2 16 17
M  V30 17 1 17 18
M  V30 18 2 18 19
M  V30 19 1 19 20
M  V30 20 1 20 21
M  V30 21 1 21 22
M  V30 22 1 21 23
M  V30 23 1 23 24
M  V30 24 2 24 25
M  V30 25 1 25 26
M  V30 26 2 26 27
M  V30 27 1 27 28
M  V30 28 2 28 29
M  V30 29 1 29 30
M  V30 30 1 29 31
M  V30 31 2 31 32
M  V30 32 1 6 33
M  V30 33 2 33 34
M  V30 34 1 34 3
M  V30 35 1 19 14
M  V30 36 1 32 26
M  V30 37 1 1 35
M  V30 38 1 1 36
M  V30 39 1 1 37
M  V30 40 1 4 38
M  V30 41 1 5 39
M  V30 42 1 11 40
M  V30 43 1 11 41
M  V30 44 1 12 42
M  V30 45 1 12 43
M  V30 46 1 13 44
M  V30 47 1 15 45
M  V30 48 1 16 46
M  V30 49 1 17 47
M  V30 50 1 18 48
M  V30 51 1 20 49
M  V30 52 1 20 50
M  V30 53 1 22 51
M  V30 54 1 22 52
M  V30 55 1 22 53
M  V30 56 1 23 54
M  V30 57 1 23 55
M  V30 58 1 24 56
M  V30 59 1 25 57
M  V30 60 1 27 58
M  V30 61 1 28 59
M  V30 62 1 31 60
M  V30 63 1 32 61
M  V30 64 1 33 62
M  V30 65 1 34 63
M  V30 END BOND
M  V30 END CTAB
M  END
>  <Dataset>  (234) 
ChEMBL_Kinases

>  <Ligand_Instance>  (234) 
nan

>  <PDB_ID>  (234) 
nan

>  <Standardized_SMILES>  (234) 
COc1ccc(S(=O)(=O)N(CCO)c2ccccc2CN(C)C/C=C/c2ccc(Cl)cc2)cc1

>  <Name>  (234) 
nan

>  <Pocket>  (234) 
nan

>  <ATP_Site>  (234) 
nan

>  <Peripheral>  (234) 
nan

>  <Num_H_Atoms_ProtBoundConf>  (234) 
nan

>  <Num_Resolved_Atoms>  (234) 
nan

>  <Num_Not_Resolved_Atoms>  (234) 
nan

$$$$
CHEMBL1553322
     RDKit          3D

  0  0  0  0  0  0  0  0  0  0999 V3000
M  V30 BEGIN CTAB
M  V30 COUNTS 42 45 0 0 0
M  V30 BEGIN ATOM
M  V30 1 C 0.358962 -4.623361 1.913164 0
M  V30 2 C 0.911241 -3.724806 2.930532 0
M  V30 3 C 1.406715 -4.183802 4.156522 0
M  V30 4 C 1.937749 -3.374636 5.148355 0
M  V30 5 C 1.984322 -2.015526 4.916405 0
M  V30 6 C 1.515911 -1.487203 3.733997 0
M  V30 7 C 0.998013 -2.355805 2.786378 0
M  V30 8 C 0.517372 -1.737987 1.554394 0
M  V30 9 N 0.585350 -0.407192 1.377077 0
M  V30 10 C 0.153827 0.207346 0.256226 0
M  V30 11 N 0.328233 1.638488 0.297940 0
M  V30 12 C -0.634282 2.709762 0.222360 0
M  V30 13 C -0.140777 3.766564 -0.729732 0
M  V30 14 O 1.195280 4.049319 -0.647216 0
M  V30 15 C 2.014476 2.932647 -0.763725 0
M  V30 16 C 1.708897 2.062726 0.443105 0
M  V30 17 C -0.381728 -0.562832 -0.755010 0
M  V30 18 C -0.792365 0.148383 -1.854208 0
M  V30 19 C -1.340265 -0.572229 -2.906377 0
M  V30 20 C -1.437321 -1.961765 -2.779576 0
M  V30 21 C -1.004162 -2.617508 -1.643693 0
M  V30 22 C -0.455952 -1.927851 -0.583172 0
M  V30 23 N -0.010076 -2.485277 0.555820 0
M  V30 24 H 0.405677 -5.664670 2.337650 0
M  V30 25 H -0.732969 -4.410912 1.752753 0
M  V30 26 H 0.936609 -4.629596 0.966906 0
M  V30 27 H 1.382566 -5.242409 4.364420 0
M  V30 28 H 2.297862 -3.814326 6.065639 0
M  V30 29 H 2.401145 -1.413783 5.703162 0
M  V30 30 H 1.560574 -0.418870 3.569706 0
M  V30 31 H -1.644579 2.400998 -0.082341 0
M  V30 32 H -0.637326 3.190086 1.241088 0
M  V30 33 H -0.496276 3.587909 -1.771840 0
M  V30 34 H -0.673504 4.715803 -0.431630 0
M  V30 35 H 3.056955 3.278955 -0.690704 0
M  V30 36 H 1.814314 2.340052 -1.661590 0
M  V30 37 H 2.428120 1.260614 0.582886 0
M  V30 38 H 1.704014 2.723404 1.359720 0
M  V30 39 H -0.711857 1.203269 -1.936635 0
M  V30 40 H -1.698982 -0.135706 -3.820675 0
M  V30 41 H -1.861189 -2.547903 -3.586380 0
M  V30 42 H -1.085681 -3.692915 -1.559985 0
M  V30 END ATOM
M  V30 BEGIN BOND
M  V30 1 1 1 2
M  V30 2 2 2 3
M  V30 3 1 3 4
M  V30 4 2 4 5
M  V30 5 1 5 6
M  V30 6 2 6 7
M  V30 7 1 7 8
M  V30 8 2 8 9
M  V30 9 1 9 10
M  V30 10 1 10 11
M  V30 11 1 11 12
M  V30 12 1 12 13
M  V30 13 1 13 14
M  V30 14 1 14 15
M  V30 15 1 15 16
M  V30 16 2 10 17
M  V30 17 1 17 18
M  V30 18 2 18 19
M  V30 19 1 19 20
M  V30 20 2 20 21
M  V30 21 1 21 22
M  V30 22 2 22 23
M  V30 23 1 7 2
M  V30 24 1 23 8
M  V30 25 1 16 11
M  V30 26 1 22 17
M  V30 27 1 1 24
M  V30 28 1 1 25
M  V30 29 1 1 26
M  V30 30 1 3 27
M  V30 31 1 4 28
M  V30 32 1 5 29
M  V30 33 1 6 30
M  V30 34 1 12 31
M  V30 35 1 12 32
M  V30 36 1 13 33
M  V30 37 1 13 34
M  V30 38 1 15 35
M  V30 39 1 15 36
M  V30 40 1 16 37
M  V30 41 1 16 38
M  V30 42 1 18 39
M  V30 43 1 19 40
M  V30 44 1 20 41
M  V30 45 1 21 42
M  V30 END BOND
M  V30 END CTAB
M  END
>  <Dataset>  (235) 
ChEMBL_Kinases

>  <Ligand_Instance>  (235) 
nan

>  <PDB_ID>  (235) 
nan

>  <Standardized_SMILES>  (235) 
Cc1ccccc1-c1nc(N2CCOCC2)c2ccccc2n1

>  <Name>  (235) 
nan

>  <Pocket>  (235) 
nan

>  <ATP_Site>  (235) 
nan

>  <Peripheral>  (235) 
nan

>  <Num_H_Atoms_ProtBoundConf>  (235) 
nan

>  <Num_Resolved_Atoms>  (235) 
nan

>  <Num_Not_Resolved_Atoms>  (235) 
nan

$$$$
CHEMBL1552997
     RDKit          3D

  0  0  0  0  0  0  0  0  0  0999 V3000
M  V30 BEGIN CTAB
M  V30 COUNTS 59 61 0 0 0
M  V30 BEGIN ATOM
M  V30 1 C 2.481063 -1.432334 3.990196 0
M  V30 2 C 3.821110 -1.914019 3.549291 0
M  V30 3 C 4.620536 -0.904724 2.798226 0
M  V30 4 C 4.849177 0.297208 3.663926 0
M  V30 5 C 4.081982 -0.552223 1.461982 0
M  V30 6 O 4.583874 -0.647875 0.298721 0
M  V30 7 C 2.775866 0.018128 1.165693 0
M  V30 8 C 2.826754 1.417052 1.183621 0
M  V30 9 O 3.933317 2.201958 1.441385 0
M  V30 10 C 1.683114 2.163607 0.924154 0
M  V30 11 C 1.643834 3.648346 0.921710 0
M  V30 12 C 0.493269 1.507324 0.647808 0
M  V30 13 O -0.714349 1.952428 0.372328 0
M  V30 14 C -1.524955 0.938815 0.181533 0
M  V30 15 C -2.860097 0.868124 -0.125544 0
M  V30 16 C -3.604008 2.135516 -0.290765 0
M  V30 17 C -3.473685 -0.374145 -0.272113 0
M  V30 18 O -4.804208 -0.330190 -0.577530 0
M  V30 19 C -2.773475 -1.576007 -0.116660 0
M  V30 20 C -3.468167 -2.846510 -0.282415 0
M  V30 21 O -4.000845 -3.371988 0.724534 0
M  V30 22 C -3.523265 -3.474636 -1.627957 0
M  V30 23 C -4.224310 -2.531680 -2.615101 0
M  V30 24 C -2.155743 -3.754932 -2.207939 0
M  V30 25 C -2.412854 -4.391047 -3.574031 0
M  V30 26 C -1.412635 -1.481547 0.196455 0
M  V30 27 O -0.786348 -2.686000 0.334972 0
M  V30 28 C -0.824387 -0.243952 0.337189 0
M  V30 29 C 0.450848 0.114499 0.631811 0
M  V30 30 C 1.572306 -0.614323 0.886232 0
M  V30 31 O 1.656895 -1.972383 0.899330 0
M  V30 32 H 2.367846 -1.441554 5.114008 0
M  V30 33 H 1.670569 -2.118510 3.645186 0
M  V30 34 H 2.228970 -0.397747 3.702492 0
M  V30 35 H 4.397111 -2.175510 4.461524 0
M  V30 36 H 3.735446 -2.893524 2.999273 0
M  V30 37 H 5.646309 -1.344379 2.621956 0
M  V30 38 H 5.635083 0.977558 3.245878 0
M  V30 39 H 5.234151 -0.027239 4.651965 0
M  V30 40 H 3.916587 0.871726 3.847837 0
M  V30 41 H 4.875721 2.026549 1.166450 0
M  V30 42 H 1.494868 3.931912 -0.161219 0
M  V30 43 H 2.564838 4.121292 1.261818 0
M  V30 44 H 0.729980 3.987241 1.433095 0
M  V30 45 H -4.620237 1.970664 -0.721420 0
M  V30 46 H -3.739268 2.573658 0.729343 0
M  V30 47 H -3.005022 2.884189 -0.859298 0
M  V30 48 H -5.243674 -0.010058 -1.407204 0
M  V30 49 H -4.062496 -4.428984 -1.620053 0
M  V30 50 H -3.644131 -1.595645 -2.724216 0
M  V30 51 H -5.271640 -2.356188 -2.375524 0
M  V30 52 H -4.204603 -3.006495 -3.618369 0
M  V30 53 H -1.579394 -4.474574 -1.596469 0
M  V30 54 H -1.550306 -2.856221 -2.392272 0
M  V30 55 H -2.301081 -3.608605 -4.381031 0
M  V30 56 H -3.404216 -4.890602 -3.623012 0
M  V30 57 H -1.579235 -5.098189 -3.762560 0
M  V30 58 H -0.914550 -3.340186 1.078241 0
M  V30 59 H 2.380626 -2.458006 0.372086 0
M  V30 END ATOM
M  V30 BEGIN BOND
M  V30 1 1 1 2
M  V30 2 1 2 3
M  V30 3 1 3 4
M  V30 4 1 3 5
M  V30 5 2 5 6
M  V30 6 1 5 7
M  V30 7 2 7 8
M  V30 8 1 8 9
M  V30 9 1 8 10
M  V30 10 1 10 11
M  V30 11 2 10 12
M  V30 12 1 12 13
M  V30 13 1 13 14
M  V30 14 2 14 15
M  V30 15 1 15 16
M  V30 16 1 15 17
M  V30 17 1 17 18
M  V30 18 2 17 19
M  V30 19 1 19 20
M  V30 20 2 20 21
M  V30 21 1 20 22
M  V30 22 1 22 23
M  V30 23 1 22 24
M  V30 24 1 24 25
M  V30 25 1 19 26
M  V30 26 1 26 27
M  V30 27 2 26 28
M  V30 28 1 28 29
M  V30 29 2 29 30
M  V30 30 1 30 31
M  V30 31 1 30 7
M  V30 32 1 29 12
M  V30 33 1 28 14
M  V30 34 1 1 32
M  V30 35 1 1 33
M  V30 36 1 1 34
M  V30 37 1 2 35
M  V30 38 1 2 36
M  V30 39 1 3 37
M  V30 40 1 4 38
M  V30 41 1 4 39
M  V30 42 1 4 40
M  V30 43 1 9 41
M  V30 44 1 11 42
M  V30 45 1 11 43
M  V30 46 1 11 44
M  V30 47 1 16 45
M  V30 48 1 16 46
M  V30 49 1 16 47
M  V30 50 1 18 48
M  V30 51 1 22 49
M  V30 52 1 23 50
M  V30 53 1 23 51
M  V30 54 1 23 52
M  V30 55 1 24 53
M  V30 56 1 24 54
M  V30 57 1 25 55
M  V30 58 1 25 56
M  V30 59 1 25 57
M  V30 60 1 27 58
M  V30 61 1 31 59
M  V30 END BOND
M  V30 END CTAB
M  END
>  <Dataset>  (236) 
ChEMBL_Kinases

>  <Ligand_Instance>  (236) 
nan

>  <PDB_ID>  (236) 
nan

>  <Standardized_SMILES>  (236) 
CCC(C)C(=O)c1c(O)c(C)c2oc3c(C)c(O)c(C(=O)C(C)CC)c(O)c3c2c1O

>  <Name>  (236) 
RHODOMYRTOXIN B

>  <Pocket>  (236) 
nan

>  <ATP_Site>  (236) 
nan

>  <Peripheral>  (236) 
nan

>  <Num_H_Atoms_ProtBoundConf>  (236) 
nan

>  <Num_Resolved_Atoms>  (236) 
nan

>  <Num_Not_Resolved_Atoms>  (236) 
nan

$$$$
CHEMBL1552922
     RDKit          3D

  0  0  0  0  0  0  0  0  0  0999 V3000
M  V30 BEGIN CTAB
M  V30 COUNTS 34 37 0 0 0
M  V30 BEGIN ATOM
M  V30 1 O -2.675758 -3.450546 2.784230 0
M  V30 2 C -1.464398 -3.222083 2.537011 0
M  V30 3 C -0.433970 -3.728491 3.331879 0
M  V30 4 N 0.867349 -3.503310 3.093778 0
M  V30 5 C 1.246370 -2.741577 2.024926 0
M  V30 6 C 2.567706 -2.511034 1.784837 0
M  V30 7 N 2.890880 -1.746725 0.716323 0
M  V30 8 C 1.902498 -1.239289 -0.075983 0
M  V30 9 N 1.909107 -0.387366 -1.227358 0
M  V30 10 C 1.386180 0.932361 -0.954601 0
M  V30 11 C 1.160790 1.883595 -1.925825 0
M  V30 12 C 0.654957 3.124086 -1.631770 0
M  V30 13 C 0.345430 3.469979 -0.313440 0
M  V30 14 C 0.547860 2.567101 0.699502 0
M  V30 15 C 1.056323 1.339036 0.346428 0
M  V30 16 N 0.602500 -1.505540 0.213013 0
M  V30 17 C 0.207383 -2.253913 1.255303 0
M  V30 18 N -1.105364 -2.458556 1.463734 0
M  V30 19 C -2.161124 -1.922782 0.658923 0
M  V30 20 C -2.045406 -0.927708 -0.391541 0
M  V30 21 C -2.709217 -0.554987 0.950953 0
M  V30 22 H -0.808377 -4.330649 4.175841 0
M  V30 23 H 3.374927 -2.889034 2.380002 0
M  V30 24 H 2.218278 -0.525228 -2.219845 0
M  V30 25 H 1.403804 1.592263 -2.927532 0
M  V30 26 H 0.468833 3.872031 -2.370380 0
M  V30 27 H -0.065661 4.428061 0.001463 0
M  V30 28 H 0.327053 2.774819 1.752102 0
M  V30 29 H 1.215425 0.627186 1.155405 0
M  V30 30 H -2.983298 -2.683551 0.511818 0
M  V30 31 H -2.756649 -0.991558 -1.267361 0
M  V30 32 H -1.201613 -0.272005 -0.616226 0
M  V30 33 H -3.811427 -0.374605 0.898958 0
M  V30 34 H -2.132997 0.066535 1.643672 0
M  V30 END ATOM
M  V30 BEGIN BOND
M  V30 1 2 1 2
M  V30 2 1 2 3
M  V30 3 2 3 4
M  V30 4 1 4 5
M  V30 5 2 5 6
M  V30 6 1 6 7
M  V30 7 2 7 8
M  V30 8 1 8 9
M  V30 9 1 9 10
M  V30 10 2 10 11
M  V30 11 1 11 12
M  V30 12 2 12 13
M  V30 13 1 13 14
M  V30 14 2 14 15
M  V30 15 1 8 16
M  V30 16 2 16 17
M  V30 17 1 17 18
M  V30 18 1 18 19
M  V30 19 1 19 20
M  V30 20 1 20 21
M  V30 21 1 18 2
M  V30 22 1 21 19
M  V30 23 1 17 5
M  V30 24 1 15 10
M  V30 25 1 3 22
M  V30 26 1 6 23
M  V30 27 1 9 24
M  V30 28 1 11 25
M  V30 29 1 12 26
M  V30 30 1 13 27
M  V30 31 1 14 28
M  V30 32 1 15 29
M  V30 33 1 19 30
M  V30 34 1 20 31
M  V30 35 1 20 32
M  V30 36 1 21 33
M  V30 37 1 21 34
M  V30 END BOND
M  V30 END CTAB
M  END
>  <Dataset>  (237) 
ChEMBL_Kinases

>  <Ligand_Instance>  (237) 
nan

>  <PDB_ID>  (237) 
nan

>  <Standardized_SMILES>  (237) 
O=c1cnc2cnc(Nc3ccccc3)nc2n1C1CC1

>  <Name>  (237) 
nan

>  <Pocket>  (237) 
nan

>  <ATP_Site>  (237) 
nan

>  <Peripheral>  (237) 
nan

>  <Num_H_Atoms_ProtBoundConf>  (237) 
nan

>  <Num_Resolved_Atoms>  (237) 
nan

>  <Num_Not_Resolved_Atoms>  (237) 
nan

$$$$
CHEMBL1552839
     RDKit          3D

  0  0  0  0  0  0  0  0  0  0999 V3000
M  V30 BEGIN CTAB
M  V30 COUNTS 47 50 0 0 0
M  V30 BEGIN ATOM
M  V30 1 C 1.061159 -5.064518 1.957810 0
M  V30 2 C 0.003662 -5.339599 0.943664 0
M  V30 3 N 0.334179 -4.992255 -0.408903 0
M  V30 4 C 0.632997 -3.603491 -0.341157 0
M  V30 5 N 1.953863 -3.380759 -0.337006 0
M  V30 6 C 2.477652 -2.147515 -0.266691 0
M  V30 7 C 1.583065 -1.104270 -0.198125 0
M  V30 8 N 2.074787 0.155915 -0.124974 0
M  V30 9 C 1.220594 1.198815 -0.055798 0
M  V30 10 C 1.692692 2.590985 0.013360 0
M  V30 11 C 2.678456 3.061751 -0.842297 0
M  V30 12 C 3.092068 4.367636 -0.760184 0
M  V30 13 C 2.471000 5.130231 0.200463 0
M  V30 14 Cl 2.969508 6.817508 0.342768 0
M  V30 15 C 1.492496 4.743091 1.082033 0
M  V30 16 C 1.085047 3.397957 0.978299 0
M  V30 17 C -0.147741 0.902388 -0.064637 0
M  V30 18 O -0.876036 1.920644 0.002838 0
M  V30 19 N -0.711222 -0.319487 -0.134342 0
M  V30 20 C -2.119173 -0.466198 -0.155234 0
M  V30 21 C -2.840354 -0.517759 1.139295 0 CFG=1
M  V30 22 C -2.500152 -1.596184 2.093774 0
M  V30 23 C -1.571241 -0.814041 3.036862 0
M  V30 24 C -2.368252 0.487973 3.109133 0
M  V30 25 O -2.797885 0.686505 1.826926 0
M  V30 26 C 0.222867 -1.313847 -0.200948 0
M  V30 27 N -0.221254 -2.570828 -0.273056 0
M  V30 28 H 1.980384 -5.670222 1.869735 0
M  V30 29 H 1.275655 -3.962183 1.914279 0
M  V30 30 H 0.599719 -5.184209 2.984242 0
M  V30 31 H -0.954608 -4.839801 1.249571 0
M  V30 32 H -0.203297 -6.434978 0.954171 0
M  V30 33 H 0.386511 -5.511040 -1.311432 0
M  V30 34 H 3.537465 -1.939224 -0.263557 0
M  V30 35 H 3.085862 2.349573 -1.550490 0
M  V30 36 H 3.856967 4.736799 -1.425273 0
M  V30 37 H 1.054020 5.412444 1.815474 0
M  V30 38 H 0.330503 3.059849 1.643852 0
M  V30 39 H -2.527958 0.442946 -0.699002 0
M  V30 40 H -2.406288 -1.332742 -0.799403 0
M  V30 41 H -3.934706 -0.656846 0.882155 0
M  V30 42 H -2.090919 -2.517504 1.729452 0
M  V30 43 H -3.392753 -1.831000 2.752639 0
M  V30 44 H -1.424395 -1.297663 3.998951 0
M  V30 45 H -0.604293 -0.610726 2.531259 0
M  V30 46 H -3.175409 0.297520 3.848912 0
M  V30 47 H -1.695158 1.314086 3.432185 0
M  V30 END ATOM
M  V30 BEGIN BOND
M  V30 1 1 1 2
M  V30 2 1 2 3
M  V30 3 1 3 4
M  V30 4 2 4 5
M  V30 5 1 5 6
M  V30 6 2 6 7
M  V30 7 1 7 8
M  V30 8 2 8 9
M  V30 9 1 9 10
M  V30 10 2 10 11
M  V30 11 1 11 12
M  V30 12 2 12 13
M  V30 13 1 13 14
M  V30 14 1 13 15
M  V30 15 2 15 16
M  V30 16 1 9 17
M  V30 17 2 17 18
M  V30 18 1 17 19
M  V30 19 1 19 20
M  V30 20 1 20 21
M  V30 21 1 21 22
M  V30 22 1 22 23
M  V30 23 1 23 24
M  V30 24 1 24 25
M  V30 25 1 19 26
M  V30 26 2 26 27
M  V30 27 1 27 4
M  V30 28 1 26 7
M  V30 29 1 16 10
M  V30 30 1 25 21
M  V30 31 1 1 28
M  V30 32 1 1 29
M  V30 33 1 1 30
M  V30 34 1 2 31
M  V30 35 1 2 32
M  V30 36 1 3 33
M  V30 37 1 6 34
M  V30 38 1 11 35
M  V30 39 1 12 36
M  V30 40 1 15 37
M  V30 41 1 16 38
M  V30 42 1 20 39
M  V30 43 1 20 40
M  V30 44 1 21 41 CFG=3
M  V30 45 1 22 42
M  V30 46 1 22 43
M  V30 47 1 23 44
M  V30 48 1 23 45
M  V30 49 1 24 46
M  V30 50 1 24 47
M  V30 END BOND
M  V30 END CTAB
M  END
>  <Dataset>  (238) 
ChEMBL_Kinases

>  <Ligand_Instance>  (238) 
nan

>  <PDB_ID>  (238) 
nan

>  <Standardized_SMILES>  (238) 
CCNc1ncc2nc(-c3ccc(Cl)cc3)c(=O)n(C[C@H]3CCCO3)c2n1

>  <Name>  (238) 
nan

>  <Pocket>  (238) 
nan

>  <ATP_Site>  (238) 
nan

>  <Peripheral>  (238) 
nan

>  <Num_H_Atoms_ProtBoundConf>  (238) 
nan

>  <Num_Resolved_Atoms>  (238) 
nan

>  <Num_Not_Resolved_Atoms>  (238) 
nan

$$$$
CHEMBL1552708
     RDKit          3D

  0  0  0  0  0  0  0  0  0  0999 V3000
M  V30 BEGIN CTAB
M  V30 COUNTS 39 42 0 0 0
M  V30 BEGIN ATOM
M  V30 1 C -0.690942 -3.648945 5.049411 0
M  V30 2 N 0.059228 -2.963528 4.013214 0
M  V30 3 N 1.437881 -2.749744 4.125224 0
M  V30 4 C 2.208091 -2.082146 3.130938 0
M  V30 5 N 3.454134 -1.852526 3.161917 0
M  V30 6 C 1.467512 -1.619329 1.957051 0
M  V30 7 C 1.779210 -0.952327 0.789577 0
M  V30 8 N 0.655375 -0.797407 0.063584 0
M  V30 9 C 0.474284 -0.153665 -1.246412 0 CFG=1
M  V30 10 O -0.801661 0.315318 -1.407787 0
M  V30 11 C -0.795189 1.506132 -2.083352 0 CFG=1
M  V30 12 C -1.525563 2.518302 -1.208961 0
M  V30 13 O -0.827064 2.602151 -0.008704 0
M  V30 14 C 0.614233 1.957064 -2.257229 0 CFG=1
M  V30 15 O 0.823611 3.274468 -1.832897 0
M  V30 16 C 1.392732 1.012906 -1.392238 0 CFG=2
M  V30 17 O 2.560454 0.567272 -2.009052 0
M  V30 18 C -0.389071 -1.342317 0.717060 0
M  V30 19 N -1.717667 -1.526640 0.567271 0
M  V30 20 C -2.461938 -2.158002 1.501555 0
M  V30 21 N -1.952206 -2.660517 2.664221 0
M  V30 22 C -0.629805 -2.499640 2.856856 0
M  V30 23 C 0.120829 -1.853384 1.896276 0
M  V30 24 H -0.089536 -4.490227 5.421321 0
M  V30 25 H -0.985189 -2.944350 5.866852 0
M  V30 26 H -1.626892 -4.084527 4.639197 0
M  V30 27 H 1.943154 -3.086458 4.966528 0
M  V30 28 H 4.013610 -2.176033 3.998285 0
M  V30 29 H 2.747926 -0.613183 0.504046 0
M  V30 30 H 0.667556 -0.868967 -2.075475 0
M  V30 31 H -1.366771 1.451140 -3.052655 0
M  V30 32 H -1.639876 3.482734 -1.704891 0
M  V30 33 H -2.523669 2.096105 -0.996191 0
M  V30 34 H -1.208186 1.936159 0.643541 0
M  V30 35 H 0.899801 1.903295 -3.344732 0
M  V30 36 H 1.741186 3.517814 -2.138518 0
M  V30 37 H 1.624047 1.516783 -0.438834 0
M  V30 38 H 2.661325 1.076539 -2.865677 0
M  V30 39 H -3.527989 -2.251124 1.275797 0
M  V30 END ATOM
M  V30 BEGIN BOND
M  V30 1 1 1 2
M  V30 2 1 2 3
M  V30 3 1 3 4
M  V30 4 2 4 5 CFG=2
M  V30 5 1 4 6
M  V30 6 2 6 7
M  V30 7 1 7 8
M  V30 8 1 8 9
M  V30 9 1 9 10
M  V30 10 1 10 11
M  V30 11 1 11 12
M  V30 12 1 12 13
M  V30 13 1 11 14
M  V30 14 1 14 15
M  V30 15 1 14 16
M  V30 16 1 16 17
M  V30 17 1 8 18
M  V30 18 1 18 19
M  V30 19 2 19 20
M  V30 20 1 20 21
M  V30 21 2 21 22
M  V30 22 1 22 23
M  V30 23 1 22 2
M  V30 24 1 23 6
M  V30 25 1 16 9
M  V30 26 2 23 18
M  V30 27 1 1 24
M  V30 28 1 1 25
M  V30 29 1 1 26
M  V30 30 1 3 27
M  V30 31 1 5 28
M  V30 32 1 7 29
M  V30 33 1 9 30 CFG=3
M  V30 34 1 11 31 CFG=3
M  V30 35 1 12 32
M  V30 36 1 12 33
M  V30 37 1 13 34
M  V30 38 1 14 35 CFG=3
M  V30 39 1 15 36
M  V30 40 1 16 37 CFG=1
M  V30 41 1 17 38
M  V30 42 1 20 39
M  V30 END BOND
M  V30 END CTAB
M  END
>  <Dataset>  (239) 
ChEMBL_Kinases

>  <Ligand_Instance>  (239) 
nan

>  <PDB_ID>  (239) 
nan

>  <Standardized_SMILES>  (239) 
CN1NC(=N)c2cn([C@H]3O[C@@H](CO)[C@@H](O)[C@@H]3O)c3ncnc1c23

>  <Name>  (239) 
nan

>  <Pocket>  (239) 
nan

>  <ATP_Site>  (239) 
nan

>  <Peripheral>  (239) 
nan

>  <Num_H_Atoms_ProtBoundConf>  (239) 
nan

>  <Num_Resolved_Atoms>  (239) 
nan

>  <Num_Not_Resolved_Atoms>  (239) 
nan

$$$$
CHEMBL1552697
     RDKit          3D

  0  0  0  0  0  0  0  0  0  0999 V3000
M  V30 BEGIN CTAB
M  V30 COUNTS 43 44 0 0 0
M  V30 BEGIN ATOM
M  V30 1 C -2.217805 -2.111313 2.369228 0
M  V30 2 C -0.947675 -2.066535 1.547811 0
M  V30 3 C -0.876160 -3.332790 0.734053 0
M  V30 4 C 0.389791 -3.411246 -0.032295 0
M  V30 5 C 1.475874 -4.075019 0.819064 0
M  V30 6 C 0.913226 -2.076689 -0.510251 0
M  V30 7 O 2.104781 -1.983585 -0.775470 0
M  V30 8 C -0.155584 -1.021799 -0.590348 0 CFG=2
M  V30 9 C 0.245152 0.264573 -1.168320 0
M  V30 10 O 0.636630 -0.077024 -2.537137 0
M  V30 11 C 1.334479 1.082054 -0.666908 0
M  V30 12 C 1.398144 1.658697 0.687439 0
M  V30 13 C 0.330443 2.600235 1.115439 0
M  V30 14 C 0.907122 3.385810 2.277103 0
M  V30 15 O 0.623911 4.581484 2.437085 0
M  V30 16 N 1.788445 2.666505 3.165671 0
M  V30 17 C 2.493782 1.448349 2.859918 0
M  V30 18 O 3.525690 1.244865 3.543319 0
M  V30 19 C 1.816712 0.683300 1.767821 0
M  V30 20 C -1.078962 -0.937663 0.552810 0
M  V30 21 H -2.226067 -1.249473 3.075228 0
M  V30 22 H -2.215684 -3.014325 3.036188 0
M  V30 23 H -3.124384 -2.058724 1.765216 0
M  V30 24 H -0.120181 -1.991647 2.243059 0
M  V30 25 H -1.760840 -3.412232 0.084057 0
M  V30 26 H -0.916092 -4.175924 1.459123 0
M  V30 27 H 0.218925 -4.114628 -0.884384 0
M  V30 28 H 1.060320 -5.064315 1.124626 0
M  V30 29 H 1.653777 -3.449110 1.716834 0
M  V30 30 H 2.356082 -4.257953 0.199133 0
M  V30 31 H -0.821298 -1.547438 -1.407295 0
M  V30 32 H -0.638344 0.899927 -1.379606 0
M  V30 33 H -0.181509 -0.319983 -3.038784 0
M  V30 34 H 1.399727 1.993394 -1.365306 0
M  V30 35 H 2.366548 0.652525 -0.837310 0
M  V30 36 H 2.341262 2.363398 0.681555 0
M  V30 37 H -0.593279 2.204668 1.502952 0
M  V30 38 H 0.209748 3.358720 0.313588 0
M  V30 39 H 1.860266 3.156976 4.106855 0
M  V30 40 H 1.026072 0.097463 2.212319 0
M  V30 41 H 2.598144 0.027827 1.298850 0
M  V30 42 H -1.048617 -0.010090 1.143216 0
M  V30 43 H -2.177604 -0.990640 0.242643 0
M  V30 END ATOM
M  V30 BEGIN BOND
M  V30 1 1 1 2
M  V30 2 1 2 3
M  V30 3 1 3 4
M  V30 4 1 4 5
M  V30 5 1 4 6
M  V30 6 2 6 7
M  V30 7 1 6 8
M  V30 8 1 8 9
M  V30 9 1 9 10
M  V30 10 1 9 11
M  V30 11 1 11 12
M  V30 12 1 12 13
M  V30 13 1 13 14
M  V30 14 2 14 15
M  V30 15 1 14 16
M  V30 16 1 16 17
M  V30 17 2 17 18
M  V30 18 1 17 19
M  V30 19 1 8 20
M  V30 20 1 20 2
M  V30 21 1 19 12
M  V30 22 1 1 21
M  V30 23 1 1 22
M  V30 24 1 1 23
M  V30 25 1 2 24
M  V30 26 1 3 25
M  V30 27 1 3 26
M  V30 28 1 4 27
M  V30 29 1 5 28
M  V30 30 1 5 29
M  V30 31 1 5 30
M  V30 32 1 8 31 CFG=3
M  V30 33 1 9 32
M  V30 34 1 10 33
M  V30 35 1 11 34
M  V30 36 1 11 35
M  V30 37 1 12 36
M  V30 38 1 13 37
M  V30 39 1 13 38
M  V30 40 1 16 39
M  V30 41 1 19 40
M  V30 42 1 19 41
M  V30 43 1 20 42
M  V30 44 1 20 43
M  V30 END BOND
M  V30 END CTAB
M  END
>  <Dataset>  (240) 
ChEMBL_Kinases

>  <Ligand_Instance>  (240) 
nan

>  <PDB_ID>  (240) 
nan

>  <Standardized_SMILES>  (240) 
CC1CC(C)C(=O)[C@H](C(O)CC2CC(=O)NC(=O)C2)C1

>  <Name>  (240) 
nan

>  <Pocket>  (240) 
nan

>  <ATP_Site>  (240) 
nan

>  <Peripheral>  (240) 
nan

>  <Num_H_Atoms_ProtBoundConf>  (240) 
nan

>  <Num_Resolved_Atoms>  (240) 
nan

>  <Num_Not_Resolved_Atoms>  (240) 
nan

$$$$
CHEMBL1552588
     RDKit          3D

  0  0  0  0  0  0  0  0  0  0999 V3000
M  V30 BEGIN CTAB
M  V30 COUNTS 46 49 0 0 0
M  V30 BEGIN ATOM
M  V30 1 C 1.662294 -5.168124 3.765844 0
M  V30 2 C 1.524621 -3.767334 3.265660 0
M  V30 3 N 2.590045 -2.936379 3.368781 0
M  V30 4 C 2.427094 -1.665456 2.902184 0
M  V30 5 C 3.483848 -0.800459 2.992389 0
M  V30 6 N 3.286465 0.445230 2.522717 0
M  V30 7 C 2.110604 0.806257 1.996425 0
M  V30 8 N 1.784724 2.099185 1.468385 0
M  V30 9 C 2.043325 2.369649 0.094641 0
M  V30 10 C 1.753627 3.588636 -0.482090 0
M  V30 11 C 2.001978 3.862752 -1.813690 0
M  V30 12 C 2.568974 2.864194 -2.605223 0
M  V30 13 C 2.869542 1.637349 -2.059623 0
M  V30 14 C 2.605618 1.405133 -0.726400 0
M  V30 15 N 1.068121 -0.038910 1.904840 0
M  V30 16 C 1.197821 -1.312363 2.359818 0
M  V30 17 N 0.152254 -2.186661 2.277525 0
M  V30 18 C -1.052779 -1.662571 1.689644 0
M  V30 19 C -1.162690 -1.827264 0.212623 0
M  V30 20 C -2.479253 -1.212139 -0.177476 0
M  V30 21 C -2.397735 0.148671 -0.496529 0
M  V30 22 C -3.541662 0.810708 -0.866594 0
M  V30 23 C -4.722054 0.100044 -0.906562 0
M  V30 24 C -4.849913 -1.246558 -0.599407 0
M  V30 25 C -3.682584 -1.879427 -0.232297 0
M  V30 26 C 0.314406 -3.440640 2.738547 0
M  V30 27 O -0.660410 -4.206040 2.645641 0
M  V30 28 H 2.663650 -5.335508 4.171171 0
M  V30 29 H 0.849934 -5.268663 4.544194 0
M  V30 30 H 1.392518 -5.920498 2.978550 0
M  V30 31 H 4.433334 -1.087285 3.415679 0
M  V30 32 H 1.364627 2.852955 2.048979 0
M  V30 33 H 1.306143 4.383692 0.132252 0
M  V30 34 H 1.794496 4.791298 -2.303211 0
M  V30 35 H 2.819556 2.931764 -3.658336 0
M  V30 36 H 3.305761 0.809877 -2.586193 0
M  V30 37 H 2.833480 0.437697 -0.261805 0
M  V30 38 H -1.150653 -0.561578 1.911173 0
M  V30 39 H -1.971196 -2.123920 2.133100 0
M  V30 40 H -0.358510 -1.379563 -0.378860 0
M  V30 41 H -1.241756 -2.891530 -0.096876 0
M  V30 42 H -1.465523 0.702072 -0.462873 0
M  V30 43 H -3.516166 1.864269 -1.120103 0
M  V30 44 H -5.613057 0.667764 -1.207457 0
M  V30 45 H -5.783549 -1.777073 -0.638881 0
M  V30 46 H -3.671073 -2.929724 0.027623 0
M  V30 END ATOM
M  V30 BEGIN BOND
M  V30 1 1 1 2
M  V30 2 2 2 3
M  V30 3 1 3 4
M  V30 4 2 4 5
M  V30 5 1 5 6
M  V30 6 2 6 7
M  V30 7 1 7 8
M  V30 8 1 8 9
M  V30 9 2 9 10
M  V30 10 1 10 11
M  V30 11 2 11 12
M  V30 12 1 12 13
M  V30 13 2 13 14
M  V30 14 1 7 15
M  V30 15 2 15 16
M  V30 16 1 16 17
M  V30 17 1 17 18
M  V30 18 1 18 19
M  V30 19 1 19 20
M  V30 20 2 20 21
M  V30 21 1 21 22
M  V30 22 2 22 23
M  V30 23 1 23 24
M  V30 24 2 24 25
M  V30 25 1 17 26
M  V30 26 2 26 27
M  V30 27 1 26 2
M  V30 28 1 16 4
M  V30 29 1 25 20
M  V30 30 1 14 9
M  V30 31 1 1 28
M  V30 32 1 1 29
M  V30 33 1 1 30
M  V30 34 1 5 31
M  V30 35 1 8 32
M  V30 36 1 10 33
M  V30 37 1 11 34
M  V30 38 1 12 35
M  V30 39 1 13 36
M  V30 40 1 14 37
M  V30 41 1 18 38
M  V30 42 1 18 39
M  V30 43 1 19 40
M  V30 44 1 19 41
M  V30 45 1 21 42
M  V30 46 1 22 43
M  V30 47 1 23 44
M  V30 48 1 24 45
M  V30 49 1 25 46
M  V30 END BOND
M  V30 END CTAB
M  END
>  <Dataset>  (241) 
ChEMBL_Kinases

>  <Ligand_Instance>  (241) 
nan

>  <PDB_ID>  (241) 
nan

>  <Standardized_SMILES>  (241) 
Cc1nc2cnc(Nc3ccccc3)nc2n(CCc2ccccc2)c1=O

>  <Name>  (241) 
nan

>  <Pocket>  (241) 
nan

>  <ATP_Site>  (241) 
nan

>  <Peripheral>  (241) 
nan

>  <Num_H_Atoms_ProtBoundConf>  (241) 
nan

>  <Num_Resolved_Atoms>  (241) 
nan

>  <Num_Not_Resolved_Atoms>  (241) 
nan

$$$$
CHEMBL1552572
     RDKit          3D

  0  0  0  0  0  0  0  0  0  0999 V3000
M  V30 BEGIN CTAB
M  V30 COUNTS 43 46 0 0 0
M  V30 BEGIN ATOM
M  V30 1 Cl -0.616804 -5.426726 2.208561 0
M  V30 2 C 0.999178 -5.138634 1.629086 0
M  V30 3 C 1.935845 -6.178359 1.657631 0
M  V30 4 C 3.232376 -5.945780 1.192254 0
M  V30 5 C 3.616771 -4.695079 0.697378 0
M  V30 6 C 2.690553 -3.645723 0.662741 0
M  V30 7 C 1.426264 -3.925875 1.132662 0
M  V30 8 C 0.400672 -2.893147 1.133428 0
M  V30 9 N 0.777234 -1.713400 0.662698 0
M  V30 10 C -0.039657 -0.621803 0.582420 0
M  V30 11 N 0.379389 0.626529 0.071279 0
M  V30 12 C 0.231538 1.988816 -0.266368 0
M  V30 13 C 1.365202 2.569131 -1.110624 0
M  V30 14 C 1.606477 4.012179 -0.745218 0
M  V30 15 N 2.213592 4.008509 0.561976 0
M  V30 16 C 1.416974 3.323679 1.524330 0
M  V30 17 C 0.094361 2.807845 1.012239 0
M  V30 18 C -1.315606 -0.864999 1.043578 0
M  V30 19 C -2.279841 0.118827 1.027063 0
M  V30 20 C -3.577771 -0.041459 1.460372 0
M  V30 21 C -3.977759 -1.275225 1.956784 0
M  V30 22 C -3.055540 -2.292998 1.995048 0
M  V30 23 C -1.775517 -2.060537 1.544669 0
M  V30 24 N -0.853189 -3.026498 1.555691 0
M  V30 25 H 1.669525 -7.157829 2.034610 0
M  V30 26 H 3.971563 -6.761695 1.213394 0
M  V30 27 H 4.623069 -4.509721 0.334718 0
M  V30 28 H 2.953244 -2.664198 0.286236 0
M  V30 29 H 1.368363 0.493112 -0.239891 0
M  V30 30 H -0.691755 2.146118 -0.851293 0
M  V30 31 H 2.304160 2.006187 -0.909745 0
M  V30 32 H 1.145091 2.494324 -2.193735 0
M  V30 33 H 2.283505 4.459695 -1.482549 0
M  V30 34 H 0.627258 4.539564 -0.753528 0
M  V30 35 H 3.161826 3.547707 0.437683 0
M  V30 36 H 2.029818 2.530624 1.985708 0
M  V30 37 H 1.181126 4.049226 2.336344 0
M  V30 38 H -0.644943 3.624678 0.916227 0
M  V30 39 H -0.278209 2.116254 1.794374 0
M  V30 40 H -2.079544 1.085826 0.659348 0
M  V30 41 H -4.321960 0.737289 1.442091 0
M  V30 42 H -4.948942 -1.538946 2.325480 0
M  V30 43 H -3.272970 -3.286870 2.363643 0
M  V30 END ATOM
M  V30 BEGIN BOND
M  V30 1 1 1 2
M  V30 2 2 2 3
M  V30 3 1 3 4
M  V30 4 2 4 5
M  V30 5 1 5 6
M  V30 6 2 6 7
M  V30 7 1 7 8
M  V30 8 2 8 9
M  V30 9 1 9 10
M  V30 10 1 10 11
M  V30 11 1 11 12
M  V30 12 1 12 13
M  V30 13 1 13 14
M  V30 14 1 14 15
M  V30 15 1 15 16
M  V30 16 1 16 17
M  V30 17 2 10 18
M  V30 18 1 18 19
M  V30 19 2 19 20
M  V30 20 1 20 21
M  V30 21 2 21 22
M  V30 22 1 22 23
M  V30 23 2 23 24
M  V30 24 1 7 2
M  V30 25 1 24 8
M  V30 26 1 17 12
M  V30 27 1 23 18
M  V30 28 1 3 25
M  V30 29 1 4 26
M  V30 30 1 5 27
M  V30 31 1 6 28
M  V30 32 1 11 29
M  V30 33 1 12 30
M  V30 34 1 13 31
M  V30 35 1 13 32
M  V30 36 1 14 33
M  V30 37 1 14 34
M  V30 38 1 15 35
M  V30 39 1 16 36
M  V30 40 1 16 37
M  V30 41 1 17 38
M  V30 42 1 17 39
M  V30 43 1 19 40
M  V30 44 1 20 41
M  V30 45 1 21 42
M  V30 46 1 22 43
M  V30 END BOND
M  V30 END CTAB
M  END
>  <Dataset>  (242) 
ChEMBL_Kinases

>  <Ligand_Instance>  (242) 
nan

>  <PDB_ID>  (242) 
nan

>  <Standardized_SMILES>  (242) 
Clc1ccccc1-c1nc(NC2CCNCC2)c2ccccc2n1

>  <Name>  (242) 
nan

>  <Pocket>  (242) 
nan

>  <ATP_Site>  (242) 
nan

>  <Peripheral>  (242) 
nan

>  <Num_H_Atoms_ProtBoundConf>  (242) 
nan

>  <Num_Resolved_Atoms>  (242) 
nan

>  <Num_Not_Resolved_Atoms>  (242) 
nan

$$$$
CHEMBL1552332
     RDKit          3D

  0  0  0  0  0  0  0  0  0  0999 V3000
M  V30 BEGIN CTAB
M  V30 COUNTS 58 61 0 0 0
M  V30 BEGIN ATOM
M  V30 1 C 0.775622 -0.828675 5.638031 0
M  V30 2 O 2.102342 -1.153680 5.415939 0
M  V30 3 C 2.588883 -0.697298 4.210596 0
M  V30 4 C 2.554795 0.777324 4.054439 0
M  V30 5 O 2.183046 1.734827 4.814789 0
M  V30 6 N 3.052230 1.144162 2.768313 0
M  V30 7 C 3.548183 0.294088 1.679667 0
M  V30 8 C 2.661000 0.346877 0.488933 0
M  V30 9 C 1.688947 1.538860 0.506955 0
M  V30 10 C 2.494172 2.704977 1.032934 0
M  V30 11 C 3.137889 2.506335 2.349938 0
M  V30 12 C 0.585686 1.197328 1.405974 0
M  V30 13 C -0.811152 1.237185 0.869763 0
M  V30 14 N -0.805614 0.775929 -0.475826 0
M  V30 15 C -1.410003 -0.420912 -0.933839 0
M  V30 16 C -2.092648 -1.245998 -0.070962 0
M  V30 17 C -2.691110 -2.418905 -0.483347 0
M  V30 18 C -2.632114 -2.826120 -1.801492 0
M  V30 19 C -3.260647 -4.064895 -2.250515 0
M  V30 20 C -2.627582 -4.709717 -3.317041 0
M  V30 21 C -3.200793 -5.899988 -3.774666 0
M  V30 22 C -4.341920 -6.358761 -3.152839 0
M  V30 23 C -4.969869 -5.728390 -2.102351 0
M  V30 24 C -4.403947 -4.553540 -1.650688 0
M  V30 25 C -1.955036 -2.022369 -2.695052 0
M  V30 26 C -1.371769 -0.857916 -2.237763 0
M  V30 27 C -0.082111 1.729854 -1.281544 0
M  V30 28 C 1.368493 1.818445 -0.923042 0
M  V30 29 H 0.608960 0.264553 5.642782 0
M  V30 30 H 0.135645 -1.227119 4.795074 0
M  V30 31 H 0.407978 -1.229085 6.606539 0
M  V30 32 H 3.629794 -1.074157 4.027719 0
M  V30 33 H 1.982359 -1.217499 3.416890 0
M  V30 34 H 4.591682 0.620215 1.454594 0
M  V30 35 H 3.667910 -0.768029 2.021936 0
M  V30 36 H 3.281924 0.370497 -0.429337 0
M  V30 37 H 2.045500 -0.590506 0.383710 0
M  V30 38 H 3.219373 2.989030 0.227934 0
M  V30 39 H 1.764044 3.566819 1.065286 0
M  V30 40 H 4.240605 2.716754 2.218223 0
M  V30 41 H 2.827131 3.232075 3.128407 0
M  V30 42 H 0.712069 0.190426 1.902515 0
M  V30 43 H 0.576770 1.918496 2.276101 0
M  V30 44 H -1.451112 0.680241 1.576096 0
M  V30 45 H -1.186850 2.302998 0.892762 0
M  V30 46 H -2.220591 -1.064753 0.965701 0
M  V30 47 H -3.231587 -3.084857 0.166948 0
M  V30 48 H -1.747367 -4.369414 -3.807653 0
M  V30 49 H -2.726241 -6.415141 -4.599840 0
M  V30 50 H -4.773869 -7.290327 -3.525249 0
M  V30 51 H -5.861809 -6.145465 -1.662932 0
M  V30 52 H -4.853075 -4.015888 -0.829744 0
M  V30 53 H -1.905154 -2.336321 -3.729411 0
M  V30 54 H -0.865573 -0.297629 -3.004603 0
M  V30 55 H -0.555540 2.747760 -1.160925 0
M  V30 56 H -0.235920 1.483680 -2.347091 0
M  V30 57 H 1.891561 1.149181 -1.639715 0
M  V30 58 H 1.691017 2.836584 -1.230753 0
M  V30 END ATOM
M  V30 BEGIN BOND
M  V30 1 1 1 2
M  V30 2 1 2 3
M  V30 3 1 3 4
M  V30 4 2 4 5
M  V30 5 1 4 6
M  V30 6 1 6 7
M  V30 7 1 7 8
M  V30 8 1 8 9
M  V30 9 1 9 10
M  V30 10 1 10 11
M  V30 11 1 9 12
M  V30 12 1 12 13
M  V30 13 1 13 14
M  V30 14 1 14 15
M  V30 15 2 15 16
M  V30 16 1 16 17
M  V30 17 2 17 18
M  V30 18 1 18 19
M  V30 19 2 19 20
M  V30 20 1 20 21
M  V30 21 2 21 22
M  V30 22 1 22 23
M  V30 23 2 23 24
M  V30 24 1 18 25
M  V30 25 2 25 26
M  V30 26 1 14 27
M  V30 27 1 27 28
M  V30 28 1 11 6
M  V30 29 1 26 15
M  V30 30 1 28 9
M  V30 31 1 24 19
M  V30 32 1 1 29
M  V30 33 1 1 30
M  V30 34 1 1 31
M  V30 35 1 3 32
M  V30 36 1 3 33
M  V30 37 1 7 34
M  V30 38 1 7 35
M  V30 39 1 8 36
M  V30 40 1 8 37
M  V30 41 1 10 38
M  V30 42 1 10 39
M  V30 43 1 11 40
M  V30 44 1 11 41
M  V30 45 1 12 42
M  V30 46 1 12 43
M  V30 47 1 13 44
M  V30 48 1 13 45
M  V30 49 1 16 46
M  V30 50 1 17 47
M  V30 51 1 20 48
M  V30 52 1 21 49
M  V30 53 1 22 50
M  V30 54 1 23 51
M  V30 55 1 24 52
M  V30 56 1 25 53
M  V30 57 1 26 54
M  V30 58 1 27 55
M  V30 59 1 27 56
M  V30 60 1 28 57
M  V30 61 1 28 58
M  V30 END BOND
M  V30 END CTAB
M  END
>  <Dataset>  (243) 
ChEMBL_Kinases

>  <Ligand_Instance>  (243) 
nan

>  <PDB_ID>  (243) 
nan

>  <Standardized_SMILES>  (243) 
COCC(=O)N1CCC2(CC1)CCN(c1ccc(-c3ccccc3)cc1)CC2

>  <Name>  (243) 
nan

>  <Pocket>  (243) 
nan

>  <ATP_Site>  (243) 
nan

>  <Peripheral>  (243) 
nan

>  <Num_H_Atoms_ProtBoundConf>  (243) 
nan

>  <Num_Resolved_Atoms>  (243) 
nan

>  <Num_Not_Resolved_Atoms>  (243) 
nan

$$$$
CHEMBL1418570
     RDKit          3D

  0  0  0  0  0  0  0  0  0  0999 V3000
M  V30 BEGIN CTAB
M  V30 COUNTS 45 48 0 0 0
M  V30 BEGIN ATOM
M  V30 1 C 5.674739 -2.083370 2.616130 0
M  V30 2 C 5.060292 -1.784730 1.282995 0
M  V30 3 C 5.632152 -2.297884 0.155415 0
M  V30 4 C 5.107226 -2.053288 -1.091464 0
M  V30 5 C 3.979341 -1.269210 -1.165340 0
M  V30 6 C 3.442953 -0.778790 -0.015942 0
M  V30 7 C 3.915033 -0.984225 1.251966 0
M  V30 8 N 3.350122 -0.469558 2.445188 0
M  V30 9 C 2.199487 0.350928 2.576857 0
M  V30 10 N 1.809307 0.745159 3.789672 0
M  V30 11 C 0.748270 1.516260 4.057339 0
M  V30 12 N 0.434315 1.869844 5.399306 0
M  V30 13 N 0.034357 1.912637 3.004407 0
M  V30 14 C 0.334505 1.576138 1.736835 0
M  V30 15 C -0.456321 2.013690 0.555000 0
M  V30 16 S -1.738758 0.774938 0.250011 0
M  V30 17 C -2.744292 1.227070 -1.166754 0
M  V30 18 N -2.660450 2.306869 -1.973261 0
M  V30 19 N -3.643088 2.165204 -2.874958 0
M  V30 20 N -4.294615 1.055372 -2.632233 0
M  V30 21 N -3.754405 0.449902 -1.571110 0
M  V30 22 C -4.236182 -0.799760 -1.036697 0
M  V30 23 C -3.376107 -1.872100 -0.912489 0
M  V30 24 C -3.843771 -3.070035 -0.398660 0
M  V30 25 C -5.171199 -3.138278 -0.027839 0
M  V30 26 C -6.046200 -2.071139 -0.146427 0
M  V30 27 C -5.582016 -0.861029 -0.663318 0
M  V30 28 N 1.419820 0.801711 1.607177 0
M  V30 29 H 5.847284 -1.122099 3.182314 0
M  V30 30 H 6.623448 -2.633489 2.476331 0
M  V30 31 H 5.016284 -2.725928 3.231788 0
M  V30 32 H 6.530161 -2.916814 0.268403 0
M  V30 33 H 5.578934 -2.470895 -1.964249 0
M  V30 34 H 3.574623 -1.082902 -2.149874 0
M  V30 35 H 2.565670 -0.178375 -0.168701 0
M  V30 36 H 3.850365 -0.733509 3.324607 0
M  V30 37 H 1.011246 2.734451 5.581076 0
M  V30 38 H -0.209780 1.417267 6.092808 0
M  V30 39 H 0.228974 2.134490 -0.288724 0
M  V30 40 H -0.977894 2.972311 0.807760 0
M  V30 41 H -2.346992 -1.775931 -1.214099 0
M  V30 42 H -3.197031 -3.923774 -0.289795 0
M  V30 43 H -5.539906 -4.085170 0.378048 0
M  V30 44 H -7.087253 -2.188728 0.165312 0
M  V30 45 H -6.233814 -0.026237 -0.764666 0
M  V30 END ATOM
M  V30 BEGIN BOND
M  V30 1 1 1 2
M  V30 2 2 2 3
M  V30 3 1 3 4
M  V30 4 2 4 5
M  V30 5 1 5 6
M  V30 6 2 6 7
M  V30 7 1 7 8
M  V30 8 1 8 9
M  V30 9 2 9 10
M  V30 10 1 10 11
M  V30 11 1 11 12
M  V30 12 2 11 13
M  V30 13 1 13 14
M  V30 14 1 14 15
M  V30 15 1 15 16
M  V30 16 1 16 17
M  V30 17 2 17 18
M  V30 18 1 18 19
M  V30 19 2 19 20
M  V30 20 1 20 21
M  V30 21 1 21 22
M  V30 22 2 22 23
M  V30 23 1 23 24
M  V30 24 2 24 25
M  V30 25 1 25 26
M  V30 26 2 26 27
M  V30 27 2 14 28
M  V30 28 1 7 2
M  V30 29 1 28 9
M  V30 30 1 21 17
M  V30 31 1 27 22
M  V30 32 1 1 29
M  V30 33 1 1 30
M  V30 34 1 1 31
M  V30 35 1 3 32
M  V30 36 1 4 33
M  V30 37 1 5 34
M  V30 38 1 6 35
M  V30 39 1 8 36
M  V30 40 1 12 37
M  V30 41 1 12 38
M  V30 42 1 15 39
M  V30 43 1 15 40
M  V30 44 1 23 41
M  V30 45 1 24 42
M  V30 46 1 25 43
M  V30 47 1 26 44
M  V30 48 1 27 45
M  V30 END BOND
M  V30 END CTAB
M  END
>  <Dataset>  (244) 
ChEMBL_Kinases

>  <Ligand_Instance>  (244) 
nan

>  <PDB_ID>  (244) 
nan

>  <Standardized_SMILES>  (244) 
Cc1ccccc1Nc1nc(N)nc(CSc2nnnn2-c2ccccc2)n1

>  <Name>  (244) 
nan

>  <Pocket>  (244) 
nan

>  <ATP_Site>  (244) 
nan

>  <Peripheral>  (244) 
nan

>  <Num_H_Atoms_ProtBoundConf>  (244) 
nan

>  <Num_Resolved_Atoms>  (244) 
nan

>  <Num_Not_Resolved_Atoms>  (244) 
nan

$$$$
CHEMBL1552270
     RDKit          3D

  0  0  0  0  0  0  0  0  0  0999 V3000
M  V30 BEGIN CTAB
M  V30 COUNTS 41 45 0 0 0
M  V30 BEGIN ATOM
M  V30 1 C 0.420603 -4.455614 2.057413 0
M  V30 2 C 1.559929 -4.028827 2.702795 0
M  V30 3 C 2.384836 -3.180079 1.973784 0
M  V30 4 C 2.157667 -2.746538 0.696009 0
M  V30 5 N 3.043733 -1.859237 0.018277 0
M  V30 6 C 2.744937 -1.396565 -1.293126 0
M  V30 7 N 3.263561 -1.749149 -2.484394 0
M  V30 8 C 2.826315 -1.186742 -3.629337 0
M  V30 9 N 1.860084 -0.253280 -3.651028 0
M  V30 10 C 1.275964 0.166631 -2.499263 0
M  V30 11 C 0.280376 1.106561 -2.490939 0
M  V30 12 C -0.313583 1.509851 -1.300982 0
M  V30 13 C 0.100756 0.959695 -0.104633 0
M  V30 14 C -0.442367 1.267631 1.233910 0
M  V30 15 C 0.386575 1.191171 2.332315 0
M  V30 16 C -0.175815 1.465354 3.560120 0
M  V30 17 C -1.511753 1.792840 3.602213 0
M  V30 18 C -2.363898 1.874843 2.492340 0
M  V30 19 C -1.782075 1.595860 1.262692 0
M  V30 20 O -3.643550 2.236265 2.956622 0
M  V30 21 C -3.674753 1.933255 4.348236 0
M  V30 22 O -2.314379 2.110369 4.719620 0
M  V30 23 C 1.111242 0.019204 -0.196700 0
M  V30 24 C 1.752173 -0.436020 -1.332145 0
M  V30 25 C 1.007023 -3.203385 0.099193 0
M  V30 26 C 0.136598 -4.045311 0.750057 0
M  V30 27 H -0.266380 -5.116476 2.569520 0
M  V30 28 H 1.823375 -4.318504 3.712786 0
M  V30 29 H 3.276634 -2.847549 2.478562 0
M  V30 30 H 3.913891 -1.563293 0.512436 0
M  V30 31 H 3.291475 -1.520511 -4.545569 0
M  V30 32 H -0.061854 1.552373 -3.417264 0
M  V30 33 H -1.098772 2.242559 -1.237603 0
M  V30 34 H 1.434468 0.932921 2.278993 0
M  V30 35 H 0.427585 1.419541 4.453527 0
M  V30 36 H -2.393677 1.646921 0.383854 0
M  V30 37 H -4.354057 2.663606 4.829566 0
M  V30 38 H -3.910685 0.881831 4.560347 0
M  V30 39 H 1.432779 -0.406962 0.749346 0
M  V30 40 H 0.732406 -2.929664 -0.891064 0
M  V30 41 H -0.784553 -4.421627 0.294598 0
M  V30 END ATOM
M  V30 BEGIN BOND
M  V30 1 2 1 2
M  V30 2 1 2 3
M  V30 3 2 3 4
M  V30 4 1 4 5
M  V30 5 1 5 6
M  V30 6 2 6 7
M  V30 7 1 7 8
M  V30 8 2 8 9
M  V30 9 1 9 10
M  V30 10 2 10 11
M  V30 11 1 11 12
M  V30 12 2 12 13
M  V30 13 1 13 14
M  V30 14 2 14 15
M  V30 15 1 15 16
M  V30 16 2 16 17
M  V30 17 1 17 18
M  V30 18 2 18 19
M  V30 19 1 18 20
M  V30 20 1 20 21
M  V30 21 1 21 22
M  V30 22 1 13 23
M  V30 23 2 23 24
M  V30 24 1 4 25
M  V30 25 2 25 26
M  V30 26 1 26 1
M  V30 27 1 24 6
M  V30 28 1 24 10
M  V30 29 1 19 14
M  V30 30 1 22 17
M  V30 31 1 1 27
M  V30 32 1 2 28
M  V30 33 1 3 29
M  V30 34 1 5 30
M  V30 35 1 8 31
M  V30 36 1 11 32
M  V30 37 1 12 33
M  V30 38 1 15 34
M  V30 39 1 16 35
M  V30 40 1 19 36
M  V30 41 1 21 37
M  V30 42 1 21 38
M  V30 43 1 23 39
M  V30 44 1 25 40
M  V30 45 1 26 41
M  V30 END BOND
M  V30 END CTAB
M  END
>  <Dataset>  (245) 
ChEMBL_Kinases

>  <Ligand_Instance>  (245) 
nan

>  <PDB_ID>  (245) 
nan

>  <Standardized_SMILES>  (245) 
c1ccc(Nc2ncnc3ccc(-c4ccc5c(c4)OCO5)cc23)cc1

>  <Name>  (245) 
nan

>  <Pocket>  (245) 
nan

>  <ATP_Site>  (245) 
nan

>  <Peripheral>  (245) 
nan

>  <Num_H_Atoms_ProtBoundConf>  (245) 
nan

>  <Num_Resolved_Atoms>  (245) 
nan

>  <Num_Not_Resolved_Atoms>  (245) 
nan

$$$$
CHEMBL1552247
     RDKit          3D

  0  0  0  0  0  0  0  0  0  0999 V3000
M  V30 BEGIN CTAB
M  V30 COUNTS 23 22 0 0 0
M  V30 BEGIN ATOM
M  V30 1 C 0.258160 2.872633 -0.125710 0
M  V30 2 S -0.973716 1.606022 -0.117626 0 CFG=2 VAL=6
M  V30 3 N -1.842171 1.768595 -1.396582 0
M  V30 4 O -1.911367 1.700678 1.043409 0
M  V30 5 C -0.131299 0.018180 -0.122863 0
M  V30 6 C 0.717086 -0.028091 1.119592 0
M  V30 7 C 1.504755 -1.299353 1.286085 0 CFG=1
M  V30 8 N 2.255306 -1.169101 2.522899 0
M  V30 9 C 0.612541 -2.462930 1.425581 0
M  V30 10 O -0.193403 -2.892877 0.560309 0
M  V30 11 O 0.554531 -3.254343 2.576990 0
M  V30 12 H 0.913510 2.681415 -0.991104 0
M  V30 13 H -0.244861 3.866651 -0.176183 0
M  V30 14 H 0.813058 2.823804 0.852639 0
M  V30 15 H -2.785766 1.331506 -1.367529 0
M  V30 16 H 0.427597 -0.113380 -1.047927 0
M  V30 17 H -0.928556 -0.746447 -0.012207 0
M  V30 18 H 1.453544 0.809787 1.109590 0
M  V30 19 H 0.081214 0.070946 2.003181 0
M  V30 20 H 2.265636 -1.433554 0.487168 0
M  V30 21 H 3.281356 -1.051725 2.371835 0
M  V30 22 H 1.953921 -0.346659 3.092218 0
M  V30 23 H 0.433570 -4.274913 2.515350 0
M  V30 END ATOM
M  V30 BEGIN BOND
M  V30 1 1 2 1 CFG=1
M  V30 2 2 2 3
M  V30 3 2 2 4
M  V30 4 1 2 5
M  V30 5 1 5 6
M  V30 6 1 6 7
M  V30 7 1 7 8
M  V30 8 1 7 9
M  V30 9 2 9 10
M  V30 10 1 9 11
M  V30 11 1 1 12
M  V30 12 1 1 13
M  V30 13 1 1 14
M  V30 14 1 3 15
M  V30 15 1 5 16
M  V30 16 1 5 17
M  V30 17 1 6 18
M  V30 18 1 6 19
M  V30 19 1 7 20 CFG=3
M  V30 20 1 8 21
M  V30 21 1 8 22
M  V30 22 1 11 23
M  V30 END BOND
M  V30 END CTAB
M  END
>  <Dataset>  (246) 
ChEMBL_Kinases

>  <Ligand_Instance>  (246) 
nan

>  <PDB_ID>  (246) 
nan

>  <Standardized_SMILES>  (246) 
C[S@](=N)(=O)CC[C@@H](N)C(=O)O

>  <Name>  (246) 
nan

>  <Pocket>  (246) 
nan

>  <ATP_Site>  (246) 
nan

>  <Peripheral>  (246) 
nan

>  <Num_H_Atoms_ProtBoundConf>  (246) 
nan

>  <Num_Resolved_Atoms>  (246) 
nan

>  <Num_Not_Resolved_Atoms>  (246) 
nan

$$$$
CHEMBL1552194
     RDKit          3D

  0  0  0  0  0  0  0  0  0  0999 V3000
M  V30 BEGIN CTAB
M  V30 COUNTS 41 43 0 0 0
M  V30 BEGIN ATOM
M  V30 1 C -1.137084 -6.324286 2.500160 0
M  V30 2 C -0.011445 -5.538146 1.891395 0
M  V30 3 C 1.178484 -6.189307 1.574756 0
M  V30 4 C 2.212923 -5.441955 1.009814 0
M  V30 5 C 1.996363 -4.100013 0.797610 0
M  V30 6 C 0.825635 -3.433267 1.103386 0
M  V30 7 C 0.666170 -1.977748 0.844038 0
M  V30 8 N 0.133417 -1.797605 -0.485364 0
M  V30 9 C -0.099210 -0.472884 -0.942733 0
M  V30 10 C 0.156914 0.627394 -0.186841 0
M  V30 11 C -0.027269 1.940081 -0.519692 0
M  V30 12 C 0.262863 3.136940 0.228032 0
M  V30 13 C 0.350959 4.314908 -0.512048 0
M  V30 14 C 0.601803 5.556313 0.016439 0
M  V30 15 C 0.785130 5.691868 1.368126 0
M  V30 16 C 0.707405 4.563434 2.143019 0
M  V30 17 C 0.453019 3.340599 1.567816 0
M  V30 18 C 0.337807 2.204499 2.494872 0
M  V30 19 N -0.515498 2.078517 -1.742352 0
M  V30 20 C -0.803362 1.073540 -2.570350 0
M  V30 21 N -0.599665 -0.219572 -2.182691 0
M  V30 22 C -0.193240 -4.192616 1.664954 0
M  V30 23 H -2.030518 -6.102914 1.875606 0
M  V30 24 H -1.366342 -5.973091 3.519336 0
M  V30 25 H -0.938036 -7.405843 2.432037 0
M  V30 26 H 1.316926 -7.246721 1.754420 0
M  V30 27 H 3.159822 -5.894061 0.743274 0
M  V30 28 H 2.826969 -3.543365 0.353571 0
M  V30 29 H 1.667484 -1.524411 0.970475 0
M  V30 30 H -0.061426 -1.594740 1.606183 0
M  V30 31 H -0.096567 -2.571942 -1.143491 0
M  V30 32 H 0.578112 0.394566 0.768976 0
M  V30 33 H 0.223479 4.334100 -1.596752 0
M  V30 34 H 0.663977 6.446009 -0.588266 0
M  V30 35 H 0.985517 6.642144 1.834521 0
M  V30 36 H 0.850610 4.663843 3.207014 0
M  V30 37 H -0.544933 1.565741 2.298155 0
M  V30 38 H 0.091617 2.603716 3.547059 0
M  V30 39 H 1.261530 1.604903 2.560031 0
M  V30 40 H -1.202668 1.329336 -3.554250 0
M  V30 41 H -1.114839 -3.664013 1.904838 0
M  V30 END ATOM
M  V30 BEGIN BOND
M  V30 1 1 1 2
M  V30 2 2 2 3
M  V30 3 1 3 4
M  V30 4 2 4 5
M  V30 5 1 5 6
M  V30 6 1 6 7
M  V30 7 1 7 8
M  V30 8 1 8 9
M  V30 9 2 9 10
M  V30 10 1 10 11
M  V30 11 1 11 12
M  V30 12 2 12 13
M  V30 13 1 13 14
M  V30 14 2 14 15
M  V30 15 1 15 16
M  V30 16 2 16 17
M  V30 17 1 17 18
M  V30 18 2 11 19
M  V30 19 1 19 20
M  V30 20 2 20 21
M  V30 21 2 6 22
M  V30 22 1 22 2
M  V30 23 1 21 9
M  V30 24 1 17 12
M  V30 25 1 1 23
M  V30 26 1 1 24
M  V30 27 1 1 25
M  V30 28 1 3 26
M  V30 29 1 4 27
M  V30 30 1 5 28
M  V30 31 1 7 29
M  V30 32 1 7 30
M  V30 33 1 8 31
M  V30 34 1 10 32
M  V30 35 1 13 33
M  V30 36 1 14 34
M  V30 37 1 15 35
M  V30 38 1 16 36
M  V30 39 1 18 37
M  V30 40 1 18 38
M  V30 41 1 18 39
M  V30 42 1 20 40
M  V30 43 1 22 41
M  V30 END BOND
M  V30 END CTAB
M  END
>  <Dataset>  (247) 
ChEMBL_Kinases

>  <Ligand_Instance>  (247) 
nan

>  <PDB_ID>  (247) 
nan

>  <Standardized_SMILES>  (247) 
Cc1cccc(CNc2cc(-c3ccccc3C)ncn2)c1

>  <Name>  (247) 
nan

>  <Pocket>  (247) 
nan

>  <ATP_Site>  (247) 
nan

>  <Peripheral>  (247) 
nan

>  <Num_H_Atoms_ProtBoundConf>  (247) 
nan

>  <Num_Resolved_Atoms>  (247) 
nan

>  <Num_Not_Resolved_Atoms>  (247) 
nan

$$$$
CHEMBL1552172
     RDKit          3D

  0  0  0  0  0  0  0  0  0  0999 V3000
M  V30 BEGIN CTAB
M  V30 COUNTS 37 39 0 0 0
M  V30 BEGIN ATOM
M  V30 1 C 0.609024 -4.611963 1.271565 0
M  V30 2 N 2.070321 -4.630913 1.454475 0
M  V30 3 C 2.424352 -5.913757 2.082988 0
M  V30 4 C 3.022108 -3.629716 1.110909 0
M  V30 5 O 4.243535 -3.784604 1.327060 0
M  V30 6 C 2.340555 -2.480106 0.504917 0
M  V30 7 C 2.480879 -2.110876 -0.827894 0
M  V30 8 C 1.753334 -0.994056 -1.241826 0
M  V30 9 C 0.934985 -0.281713 -0.392664 0
M  V30 10 C 0.179308 0.891151 -0.854026 0
M  V30 11 N 0.197110 1.371582 -2.131463 0
M  V30 12 C -0.550904 2.472053 -2.426390 0
M  V30 13 C -1.325057 3.119929 -1.488943 0
M  V30 14 C -1.330214 2.617397 -0.198233 0
M  V30 15 N -2.056786 3.129253 0.932474 0
M  V30 16 C -2.135185 4.305274 1.569887 0
M  V30 17 C -3.030031 4.170215 2.618950 0
M  V30 18 N -3.506840 2.893270 2.624076 0
M  V30 19 C -2.892331 2.295917 1.586729 0
M  V30 20 N -0.585832 1.545584 0.037265 0
M  V30 21 C 0.825602 -0.691033 0.941464 0
M  V30 22 C 1.536544 -1.790674 1.366120 0
M  V30 23 H 0.326058 -3.784548 0.567709 0
M  V30 24 H 0.165675 -4.479811 2.272464 0
M  V30 25 H 0.239681 -5.570200 0.833108 0
M  V30 26 H 1.978336 -5.945100 3.107527 0
M  V30 27 H 1.966831 -6.759281 1.533780 0
M  V30 28 H 3.521842 -6.011334 2.195720 0
M  V30 29 H 3.130475 -2.691497 -1.462762 0
M  V30 30 H 1.831944 -0.676537 -2.260849 0
M  V30 31 H -0.552248 2.870954 -3.430164 0
M  V30 32 H -1.942326 3.992519 -1.645400 0
M  V30 33 H -1.527866 5.120272 1.189880 0
M  V30 34 H -3.207156 5.035671 3.237638 0
M  V30 35 H -3.130119 1.247380 1.399615 0
M  V30 36 H 0.187639 -0.143682 1.621121 0
M  V30 37 H 1.404402 -2.053445 2.416144 0
M  V30 END ATOM
M  V30 BEGIN BOND
M  V30 1 1 1 2
M  V30 2 1 2 3
M  V30 3 1 2 4
M  V30 4 2 4 5
M  V30 5 1 4 6
M  V30 6 2 6 7
M  V30 7 1 7 8
M  V30 8 2 8 9
M  V30 9 1 9 10
M  V30 10 2 10 11
M  V30 11 1 11 12
M  V30 12 2 12 13
M  V30 13 1 13 14
M  V30 14 1 14 15
M  V30 15 1 15 16
M  V30 16 2 16 17
M  V30 17 1 17 18
M  V30 18 2 18 19
M  V30 19 2 14 20
M  V30 20 1 9 21
M  V30 21 2 21 22
M  V30 22 1 22 6
M  V30 23 1 20 10
M  V30 24 1 19 15
M  V30 25 1 1 23
M  V30 26 1 1 24
M  V30 27 1 1 25
M  V30 28 1 3 26
M  V30 29 1 3 27
M  V30 30 1 3 28
M  V30 31 1 7 29
M  V30 32 1 8 30
M  V30 33 1 12 31
M  V30 34 1 13 32
M  V30 35 1 16 33
M  V30 36 1 17 34
M  V30 37 1 19 35
M  V30 38 1 21 36
M  V30 39 1 22 37
M  V30 END BOND
M  V30 END CTAB
M  END
>  <Dataset>  (248) 
ChEMBL_Kinases

>  <Ligand_Instance>  (248) 
nan

>  <PDB_ID>  (248) 
nan

>  <Standardized_SMILES>  (248) 
CN(C)C(=O)c1ccc(-c2nccc(-n3ccnc3)n2)cc1

>  <Name>  (248) 
nan

>  <Pocket>  (248) 
nan

>  <ATP_Site>  (248) 
nan

>  <Peripheral>  (248) 
nan

>  <Num_H_Atoms_ProtBoundConf>  (248) 
nan

>  <Num_Resolved_Atoms>  (248) 
nan

>  <Num_Not_Resolved_Atoms>  (248) 
nan

$$$$
CHEMBL1551979
     RDKit          3D

  0  0  0  0  0  0  0  0  0  0999 V3000
M  V30 BEGIN CTAB
M  V30 COUNTS 34 36 0 0 0
M  V30 BEGIN ATOM
M  V30 1 C -2.972128 -3.133848 2.978147 0
M  V30 2 N -1.962615 -2.330630 2.281972 0
M  V30 3 C -0.560987 -2.538055 2.377354 0
M  V30 4 N -0.190640 -3.556057 3.175983 0
M  V30 5 C 1.103975 -3.872180 3.364124 0
M  V30 6 N 2.057852 -3.146230 2.732798 0
M  V30 7 C 1.763930 -2.118212 1.922242 0
M  V30 8 C 2.681896 -1.343775 1.253775 0
M  V30 9 C 2.252423 -0.294083 0.432658 0
M  V30 10 C 0.896139 0.005408 0.260993 0
M  V30 11 C 0.583086 1.124921 -0.621555 0
M  V30 12 C 1.368579 2.263840 -0.418061 0
M  V30 13 C 1.158924 3.381653 -1.195991 0
M  V30 14 C 0.185007 3.399375 -2.176014 0
M  V30 15 C -0.590818 2.274577 -2.377050 0
M  V30 16 C -0.385802 1.151992 -1.601326 0
M  V30 17 C -1.187839 -0.081661 -1.773645 0
M  V30 18 C -0.004374 -0.787468 0.943400 0
M  V30 19 C 0.428691 -1.818707 1.749511 0
M  V30 20 H -3.702377 -3.565632 2.266096 0
M  V30 21 H -3.476086 -2.538621 3.778350 0
M  V30 22 H -2.469077 -3.993169 3.509213 0
M  V30 23 H -2.499899 -1.620950 1.739455 0
M  V30 24 H 1.459152 -4.671435 3.987885 0
M  V30 25 H 3.727552 -1.571253 1.383383 0
M  V30 26 H 3.062204 0.247434 -0.043267 0
M  V30 27 H 2.148280 2.340635 0.320193 0
M  V30 28 H 1.746994 4.301872 -1.077973 0
M  V30 29 H 0.042748 4.291181 -2.771746 0
M  V30 30 H -1.359999 2.226539 -3.119419 0
M  V30 31 H -0.636430 -0.996733 -1.518961 0
M  V30 32 H -2.146983 0.056966 -1.241175 0
M  V30 33 H -1.479946 -0.086023 -2.864993 0
M  V30 34 H -1.043040 -0.545157 0.801886 0
M  V30 END ATOM
M  V30 BEGIN BOND
M  V30 1 1 1 2
M  V30 2 1 2 3
M  V30 3 2 3 4
M  V30 4 1 4 5
M  V30 5 2 5 6
M  V30 6 1 6 7
M  V30 7 2 7 8
M  V30 8 1 8 9
M  V30 9 2 9 10
M  V30 10 1 10 11
M  V30 11 2 11 12
M  V30 12 1 12 13
M  V30 13 2 13 14
M  V30 14 1 14 15
M  V30 15 2 15 16
M  V30 16 1 16 17
M  V30 17 1 10 18
M  V30 18 2 18 19
M  V30 19 1 19 3
M  V30 20 1 19 7
M  V30 21 1 16 11
M  V30 22 1 1 20
M  V30 23 1 1 21
M  V30 24 1 1 22
M  V30 25 1 2 23
M  V30 26 1 5 24
M  V30 27 1 8 25
M  V30 28 1 9 26
M  V30 29 1 12 27
M  V30 30 1 13 28
M  V30 31 1 14 29
M  V30 32 1 15 30
M  V30 33 1 17 31
M  V30 34 1 17 32
M  V30 35 1 17 33
M  V30 36 1 18 34
M  V30 END BOND
M  V30 END CTAB
M  END
>  <Dataset>  (249) 
ChEMBL_Kinases

>  <Ligand_Instance>  (249) 
nan

>  <PDB_ID>  (249) 
nan

>  <Standardized_SMILES>  (249) 
CNc1ncnc2ccc(-c3ccccc3C)cc12

>  <Name>  (249) 
nan

>  <Pocket>  (249) 
nan

>  <ATP_Site>  (249) 
nan

>  <Peripheral>  (249) 
nan

>  <Num_H_Atoms_ProtBoundConf>  (249) 
nan

>  <Num_Resolved_Atoms>  (249) 
nan

>  <Num_Not_Resolved_Atoms>  (249) 
nan

$$$$
CHEMBL1551919
     RDKit          3D

  0  0  0  0  0  0  0  0  0  0999 V3000
M  V30 BEGIN CTAB
M  V30 COUNTS 32 34 0 0 0
M  V30 BEGIN ATOM
M  V30 1 C 0.270097 -1.805752 4.979421 0
M  V30 2 N 0.222874 -1.301479 3.638381 0
M  V30 3 C 0.176881 -0.808238 2.326053 0
M  V30 4 N 0.693985 -1.222131 1.196653 0
M  V30 5 C 0.382130 -0.681893 -0.004146 0
M  V30 6 C 1.015411 -1.263205 -1.134724 0
M  V30 7 C 2.194500 -2.145694 -0.973916 0
M  V30 8 C 2.780448 -2.644942 -2.112707 0
M  V30 9 C 2.359353 -2.390841 -3.399755 0
M  V30 10 C 1.284895 -1.587180 -3.621599 0
M  V30 11 C 0.654439 -1.194420 -4.872245 0
M  V30 12 N 0.182196 -0.890472 -5.854391 0
M  V30 13 C 0.788389 -1.153493 -2.444805 0
M  V30 14 N -0.479801 0.291436 0.117331 0
M  V30 15 C -1.082278 0.812530 1.229689 0
M  V30 16 C -1.878452 1.786564 0.707830 0
M  V30 17 C -2.565874 2.369304 1.882884 0
M  V30 18 C -2.304447 1.875380 3.130246 0
M  V30 19 C -1.443751 0.858909 3.451736 0
M  V30 20 C -0.726875 0.221559 2.403749 0
M  V30 21 H 1.062320 -1.352962 5.603272 0
M  V30 22 H 0.326278 -2.907702 5.033023 0
M  V30 23 H -0.728530 -1.546404 5.515882 0
M  V30 24 H 1.102324 -1.930835 3.460673 0
M  V30 25 H 2.560007 -2.374674 0.014040 0
M  V30 26 H 3.670230 -3.300711 -2.000587 0
M  V30 27 H 2.767711 -2.765200 -4.324724 0
M  V30 28 H -0.107658 -0.466388 -2.518066 0
M  V30 29 H -2.209433 2.292048 -0.149906 0
M  V30 30 H -3.278293 3.176195 1.758246 0
M  V30 31 H -2.813777 2.298364 3.988013 0
M  V30 32 H -1.177412 0.408028 4.381825 0
M  V30 END ATOM
M  V30 BEGIN BOND
M  V30 1 1 1 2
M  V30 2 1 2 3
M  V30 3 2 3 4
M  V30 4 1 4 5
M  V30 5 1 5 6
M  V30 6 2 6 7
M  V30 7 1 7 8
M  V30 8 2 8 9
M  V30 9 1 9 10
M  V30 10 1 10 11
M  V30 11 3 11 12
M  V30 12 2 10 13
M  V30 13 2 5 14
M  V30 14 1 14 15
M  V30 15 2 15 16
M  V30 16 1 16 17
M  V30 17 2 17 18
M  V30 18 1 18 19
M  V30 19 2 19 20
M  V30 20 1 20 3
M  V30 21 1 13 6
M  V30 22 1 20 15
M  V30 23 1 1 21
M  V30 24 1 1 22
M  V30 25 1 1 23
M  V30 26 1 2 24
M  V30 27 1 7 25
M  V30 28 1 8 26
M  V30 29 1 9 27
M  V30 30 1 13 28
M  V30 31 1 16 29
M  V30 32 1 17 30
M  V30 33 1 18 31
M  V30 34 1 19 32
M  V30 END BOND
M  V30 END CTAB
M  END
>  <Dataset>  (250) 
ChEMBL_Kinases

>  <Ligand_Instance>  (250) 
nan

>  <PDB_ID>  (250) 
nan

>  <Standardized_SMILES>  (250) 
CNc1nc(-c2cccc(C#N)c2)nc2ccccc12

>  <Name>  (250) 
nan

>  <Pocket>  (250) 
nan

>  <ATP_Site>  (250) 
nan

>  <Peripheral>  (250) 
nan

>  <Num_H_Atoms_ProtBoundConf>  (250) 
nan

>  <Num_Resolved_Atoms>  (250) 
nan

>  <Num_Not_Resolved_Atoms>  (250) 
nan

$$$$
CHEMBL1551841
     RDKit          3D

  0  0  0  0  0  0  0  0  0  0999 V3000
M  V30 BEGIN CTAB
M  V30 COUNTS 51 54 0 0 0
M  V30 BEGIN ATOM
M  V30 1 C 2.145124 -4.816592 3.498984 0
M  V30 2 O 1.581952 -3.618690 3.005368 0
M  V30 3 C 1.866692 -2.362760 3.471742 0
M  V30 4 C 2.738015 -2.045599 4.487762 0
M  V30 5 C 2.928796 -0.730429 4.855696 0
M  V30 6 C 2.248025 0.285715 4.209521 0
M  V30 7 C 1.361480 0.010474 3.181419 0
M  V30 8 C 0.674723 1.136339 2.545961 0
M  V30 9 N 1.371366 1.705976 1.410833 0
M  V30 10 C 2.260392 2.710812 1.527378 0
M  V30 11 O 2.520042 3.194032 2.657935 0
M  V30 12 C 2.944746 3.286347 0.472482 0
M  V30 13 C 3.912886 4.394200 0.682122 0
M  V30 14 N 2.714075 2.815359 -0.773931 0
M  V30 15 C 1.832436 1.806976 -0.958054 0
M  V30 16 C 1.597351 1.325379 -2.237700 0
M  V30 17 N 0.714569 0.321704 -2.385256 0
M  V30 18 C 0.061668 -0.217207 -1.316944 0
M  V30 19 N -0.863897 -1.263931 -1.435151 0
M  V30 20 C -2.263858 -1.411885 -1.610501 0
M  V30 21 C -3.024969 -0.265689 -1.682242 0
M  V30 22 C -4.385024 -0.465494 -1.853288 0
M  V30 23 C -4.900377 -1.760400 -1.941321 0
M  V30 24 C -4.073158 -2.878610 -1.860959 0
M  V30 25 O -4.558367 -4.180314 -1.945485 0
M  V30 26 C -5.896919 -4.531244 -2.117001 0
M  V30 27 C -2.711408 -2.696941 -1.690101 0
M  V30 28 N 0.330074 0.290626 -0.100999 0
M  V30 29 C 1.189587 1.285022 0.141524 0
M  V30 30 C 1.207317 -1.320410 2.852680 0
M  V30 31 H 2.513605 -4.715045 4.551292 0
M  V30 32 H 2.960662 -5.193652 2.841505 0
M  V30 33 H 1.350564 -5.603095 3.460786 0
M  V30 34 H 3.253532 -2.861986 4.971723 0
M  V30 35 H 3.637000 -0.593768 5.667412 0
M  V30 36 H 2.494832 1.250507 4.599849 0
M  V30 37 H -0.349564 0.800317 2.238852 0
M  V30 38 H 0.518055 1.975380 3.268692 0
M  V30 39 H 3.371888 5.359690 0.624564 0
M  V30 40 H 4.618563 4.380581 -0.196204 0
M  V30 41 H 4.501851 4.294072 1.619404 0
M  V30 42 H 2.142819 1.791315 -3.039111 0
M  V30 43 H -0.171079 -2.039109 -1.350649 0
M  V30 44 H -2.639011 0.732742 -1.615681 0
M  V30 45 H -5.113388 0.347990 -1.927114 0
M  V30 46 H -5.975120 -1.920846 -2.076269 0
M  V30 47 H -6.631378 -3.813581 -1.695085 0
M  V30 48 H -6.060767 -5.493710 -1.551355 0
M  V30 49 H -6.137061 -4.770840 -3.174712 0
M  V30 50 H -2.065460 -3.555357 -1.627086 0
M  V30 51 H 0.503818 -1.501078 2.041374 0
M  V30 END ATOM
M  V30 BEGIN BOND
M  V30 1 1 1 2
M  V30 2 1 2 3
M  V30 3 2 3 4
M  V30 4 1 4 5
M  V30 5 2 5 6
M  V30 6 1 6 7
M  V30 7 1 7 8
M  V30 8 1 8 9
M  V30 9 1 9 10
M  V30 10 2 10 11
M  V30 11 1 10 12
M  V30 12 1 12 13
M  V30 13 2 12 14
M  V30 14 1 14 15
M  V30 15 2 15 16
M  V30 16 1 16 17
M  V30 17 2 17 18
M  V30 18 1 18 19
M  V30 19 1 19 20
M  V30 20 2 20 21
M  V30 21 1 21 22
M  V30 22 2 22 23
M  V30 23 1 23 24
M  V30 24 1 24 25
M  V30 25 1 25 26
M  V30 26 2 24 27
M  V30 27 1 18 28
M  V30 28 2 28 29
M  V30 29 2 7 30
M  V30 30 1 30 3
M  V30 31 1 29 9
M  V30 32 1 29 15
M  V30 33 1 27 20
M  V30 34 1 1 31
M  V30 35 1 1 32
M  V30 36 1 1 33
M  V30 37 1 4 34
M  V30 38 1 5 35
M  V30 39 1 6 36
M  V30 40 1 8 37
M  V30 41 1 8 38
M  V30 42 1 13 39
M  V30 43 1 13 40
M  V30 44 1 13 41
M  V30 45 1 16 42
M  V30 46 1 19 43
M  V30 47 1 21 44
M  V30 48 1 22 45
M  V30 49 1 23 46
M  V30 50 1 26 47
M  V30 51 1 26 48
M  V30 52 1 26 49
M  V30 53 1 27 50
M  V30 54 1 30 51
M  V30 END BOND
M  V30 END CTAB
M  END
>  <Dataset>  (251) 
ChEMBL_Kinases

>  <Ligand_Instance>  (251) 
nan

>  <PDB_ID>  (251) 
nan

>  <Standardized_SMILES>  (251) 
COc1cccc(Cn2c(=O)c(C)nc3cnc(Nc4cccc(OC)c4)nc32)c1

>  <Name>  (251) 
nan

>  <Pocket>  (251) 
nan

>  <ATP_Site>  (251) 
nan

>  <Peripheral>  (251) 
nan

>  <Num_H_Atoms_ProtBoundConf>  (251) 
nan

>  <Num_Resolved_Atoms>  (251) 
nan

>  <Num_Not_Resolved_Atoms>  (251) 
nan

$$$$
CHEMBL1551610
     RDKit          3D

  0  0  0  0  0  0  0  0  0  0999 V3000
M  V30 BEGIN CTAB
M  V30 COUNTS 41 45 0 0 0
M  V30 BEGIN ATOM
M  V30 1 C -0.886681 -4.152644 1.113266 0
M  V30 2 O -0.422191 -2.843936 1.158288 0
M  V30 3 C 0.953341 -2.769416 0.921004 0
M  V30 4 C 1.704873 -2.339983 2.106896 0
M  V30 5 C 2.095329 -1.087595 2.296981 0
M  V30 6 C 1.689782 -0.184335 1.185861 0
M  V30 7 C 0.271325 0.179182 1.187160 0
M  V30 8 C -0.636153 0.217214 2.207721 0
M  V30 9 C -1.945563 0.594784 2.000610 0
M  V30 10 C -2.407506 0.953674 0.752807 0
M  V30 11 C -1.498408 0.922461 -0.305450 0
M  V30 12 C -0.179863 0.540465 -0.087629 0
M  V30 13 C 0.663717 0.556295 -1.305495 0
M  V30 14 N 2.040029 0.187291 -1.035577 0
M  V30 15 C 2.646748 1.318246 -0.362499 0
M  V30 16 C 2.588350 1.039037 1.114482 0
M  V30 17 O 3.858777 0.587667 1.523052 0
M  V30 18 C 2.131523 -0.883779 -0.074470 0
M  V30 19 C 1.270890 -2.046911 -0.353045 0
M  V30 20 O -3.738328 1.279253 0.845115 0
M  V30 21 C -4.088247 1.255181 2.204683 0
M  V30 22 O -3.002675 0.695946 2.893479 0
M  V30 23 H -0.687346 -4.574912 0.125777 0
M  V30 24 H -1.886813 -4.276814 1.519950 0
M  V30 25 H -0.210226 -4.719291 1.817171 0
M  V30 26 H 1.247466 -3.852300 0.763185 0
M  V30 27 H 1.977709 -3.061239 2.900511 0
M  V30 28 H 2.650997 -0.727915 3.157237 0
M  V30 29 H -0.213231 -0.075398 3.163100 0
M  V30 30 H -1.893440 1.207744 -1.259893 0
M  V30 31 H 0.180683 -0.056165 -2.069699 0
M  V30 32 H 0.679545 1.614596 -1.674941 0
M  V30 33 H 2.103666 2.262094 -0.583396 0
M  V30 34 H 3.701359 1.384529 -0.729751 0
M  V30 35 H 2.234972 1.874079 1.727283 0
M  V30 36 H 4.490655 0.574221 0.777704 0
M  V30 37 H 3.204375 -1.138452 0.013361 0
M  V30 38 H 1.821278 -2.757249 -1.026920 0
M  V30 39 H 0.358384 -1.714725 -0.897294 0
M  V30 40 H -4.999758 0.633537 2.302607 0
M  V30 41 H -4.316509 2.289513 2.541847 0
M  V30 END ATOM
M  V30 BEGIN BOND
M  V30 1 1 1 2
M  V30 2 1 2 3
M  V30 3 1 3 4
M  V30 4 2 4 5
M  V30 5 1 5 6
M  V30 6 1 6 7
M  V30 7 2 7 8
M  V30 8 1 8 9
M  V30 9 2 9 10
M  V30 10 1 10 11
M  V30 11 2 11 12
M  V30 12 1 12 13
M  V30 13 1 13 14
M  V30 14 1 14 15
M  V30 15 1 15 16
M  V30 16 1 16 17
M  V30 17 1 14 18
M  V30 18 1 18 19
M  V30 19 1 10 20
M  V30 20 1 20 21
M  V30 21 1 21 22
M  V30 22 1 19 3
M  V30 23 1 16 6
M  V30 24 1 18 6
M  V30 25 1 12 7
M  V30 26 1 22 9
M  V30 27 1 1 23
M  V30 28 1 1 24
M  V30 29 1 1 25
M  V30 30 1 3 26
M  V30 31 1 4 27
M  V30 32 1 5 28
M  V30 33 1 8 29
M  V30 34 1 11 30
M  V30 35 1 13 31
M  V30 36 1 13 32
M  V30 37 1 15 33
M  V30 38 1 15 34
M  V30 39 1 16 35
M  V30 40 1 17 36
M  V30 41 1 18 37
M  V30 42 1 19 38
M  V30 43 1 19 39
M  V30 44 1 21 40
M  V30 45 1 21 41
M  V30 END BOND
M  V30 END CTAB
M  END
>  <Dataset>  (252) 
ChEMBL_Kinases

>  <Ligand_Instance>  (252) 
nan

>  <PDB_ID>  (252) 
nan

>  <Standardized_SMILES>  (252) 
COC1C=CC23c4cc5c(cc4CN(CC2O)C3C1)OCO5

>  <Name>  (252) 
nan

>  <Pocket>  (252) 
nan

>  <ATP_Site>  (252) 
nan

>  <Peripheral>  (252) 
nan

>  <Num_H_Atoms_ProtBoundConf>  (252) 
nan

>  <Num_Resolved_Atoms>  (252) 
nan

>  <Num_Not_Resolved_Atoms>  (252) 
nan

$$$$
CHEMBL1551557
     RDKit          3D

  0  0  0  0  0  0  0  0  0  0999 V3000
M  V30 BEGIN CTAB
M  V30 COUNTS 43 45 0 0 0
M  V30 BEGIN ATOM
M  V30 1 C -3.424968 -2.290394 0.168987 0
M  V30 2 O -2.309955 -2.205867 -0.674726 0
M  V30 3 C -1.172610 -2.988862 -0.439194 0
M  V30 4 C -1.173681 -3.858787 0.658170 0
M  V30 5 C -0.071987 -4.646495 0.920756 0
M  V30 6 C 1.068604 -4.603534 0.108611 0
M  V30 7 C 1.076692 -3.746727 -0.976974 0
M  V30 8 C -0.017353 -2.954238 -1.249664 0
M  V30 9 C -0.206390 -1.971089 -2.346546 0
M  V30 10 N -0.036590 -0.607440 -1.932005 0
M  V30 11 C -0.470683 0.315127 -0.941306 0
M  V30 12 C 0.398523 0.658409 0.104543 0
M  V30 13 C 0.133298 1.509550 1.123877 0
M  V30 14 C 0.996054 1.914871 2.216019 0
M  V30 15 C 0.457840 2.850732 3.113042 0
M  V30 16 C 1.148039 3.354597 4.200135 0
M  V30 17 C 2.420762 2.909066 4.401440 0
M  V30 18 C 3.003843 1.997447 3.563682 0
M  V30 19 C 2.286163 1.524564 2.499382 0
M  V30 20 O 2.860215 0.620475 1.666896 0
M  V30 21 C 4.132275 0.062315 1.712447 0
M  V30 22 N -1.102527 2.033666 1.057609 0
M  V30 23 C -1.978127 1.750267 0.091763 0
M  V30 24 N -1.684142 0.898313 -0.911060 0
M  V30 25 H -3.228547 -1.794995 1.138893 0
M  V30 26 H -4.255850 -1.763003 -0.360442 0
M  V30 27 H -3.733563 -3.350414 0.359085 0
M  V30 28 H -2.026349 -3.961953 1.346903 0
M  V30 29 H 0.003269 -5.346109 1.752746 0
M  V30 30 H 1.963958 -5.208491 0.279626 0
M  V30 31 H 1.887151 -3.615743 -1.679427 0
M  V30 32 H 0.597325 -2.192199 -3.080429 0
M  V30 33 H -1.204560 -2.140345 -2.815708 0
M  V30 34 H 0.607403 0.051066 -2.471894 0
M  V30 35 H 1.361452 0.194342 0.080467 0
M  V30 36 H -0.563096 3.260941 3.023911 0
M  V30 37 H 0.707623 4.070319 4.868479 0
M  V30 38 H 2.973211 3.306680 5.263709 0
M  V30 39 H 4.012981 1.713273 3.811412 0
M  V30 40 H 4.001474 -1.047440 1.584525 0
M  V30 41 H 4.703936 0.243695 2.642858 0
M  V30 42 H 4.794101 0.444750 0.879842 0
M  V30 43 H -2.960248 2.230278 0.128348 0
M  V30 END ATOM
M  V30 BEGIN BOND
M  V30 1 1 1 2
M  V30 2 1 2 3
M  V30 3 2 3 4
M  V30 4 1 4 5
M  V30 5 2 5 6
M  V30 6 1 6 7
M  V30 7 2 7 8
M  V30 8 1 8 9
M  V30 9 1 9 10
M  V30 10 1 10 11
M  V30 11 2 11 12
M  V30 12 1 12 13
M  V30 13 1 13 14
M  V30 14 2 14 15
M  V30 15 1 15 16
M  V30 16 2 16 17
M  V30 17 1 17 18
M  V30 18 2 18 19
M  V30 19 1 19 20
M  V30 20 1 20 21
M  V30 21 2 13 22
M  V30 22 1 22 23
M  V30 23 2 23 24
M  V30 24 1 8 3
M  V30 25 1 24 11
M  V30 26 1 19 14
M  V30 27 1 1 25
M  V30 28 1 1 26
M  V30 29 1 1 27
M  V30 30 1 4 28
M  V30 31 1 5 29
M  V30 32 1 6 30
M  V30 33 1 7 31
M  V30 34 1 9 32
M  V30 35 1 9 33
M  V30 36 1 10 34
M  V30 37 1 12 35
M  V30 38 1 15 36
M  V30 39 1 16 37
M  V30 40 1 17 38
M  V30 41 1 18 39
M  V30 42 1 21 40
M  V30 43 1 21 41
M  V30 44 1 21 42
M  V30 45 1 23 43
M  V30 END BOND
M  V30 END CTAB
M  END
>  <Dataset>  (253) 
ChEMBL_Kinases

>  <Ligand_Instance>  (253) 
nan

>  <PDB_ID>  (253) 
nan

>  <Standardized_SMILES>  (253) 
COc1ccccc1CNc1cc(-c2ccccc2OC)ncn1

>  <Name>  (253) 
nan

>  <Pocket>  (253) 
nan

>  <ATP_Site>  (253) 
nan

>  <Peripheral>  (253) 
nan

>  <Num_H_Atoms_ProtBoundConf>  (253) 
nan

>  <Num_Resolved_Atoms>  (253) 
nan

>  <Num_Not_Resolved_Atoms>  (253) 
nan

$$$$
CHEMBL1551331
     RDKit          3D

  0  0  0  0  0  0  0  0  0  0999 V3000
M  V30 BEGIN CTAB
M  V30 COUNTS 57 60 0 0 0
M  V30 BEGIN ATOM
M  V30 1 C 0.467723 -3.049692 2.138448 0
M  V30 2 N 1.920026 -2.963133 2.259843 0
M  V30 3 C 2.460595 -3.240384 3.483508 0
M  V30 4 C 3.838060 -3.106848 3.403447 0
M  V30 5 C 4.127391 -2.741563 2.103287 0
M  V30 6 C 2.950603 -2.658506 1.420407 0
M  V30 7 C 2.592800 -2.324546 0.039552 0
M  V30 8 O 2.005150 -3.278087 -0.577832 0
M  V30 9 N 2.861945 -1.061565 -0.584157 0
M  V30 10 C 3.491479 0.166604 -0.150931 0
M  V30 11 C 2.748101 1.392418 -0.594074 0
M  V30 12 C 1.296948 1.100397 -0.941909 0
M  V30 13 C 0.651400 2.373457 -1.376318 0
M  V30 14 C -0.833981 2.442810 -1.168759 0
M  V30 15 N -1.302203 1.476158 -0.182330 0
M  V30 16 C -2.558951 0.822037 -0.297785 0
M  V30 17 O -3.242481 1.133183 -1.302743 0
M  V30 18 N -2.895323 -0.087150 0.707203 0
M  V30 19 C -4.047354 -0.878738 0.868918 0
M  V30 20 C -5.234440 -0.604429 1.523995 0
M  V30 21 C -6.243784 -1.524621 1.565431 0
M  V30 22 C -6.085316 -2.744084 0.949132 0
M  V30 23 C -4.926552 -3.078974 0.279559 0
M  V30 24 C -4.795643 -4.362121 -0.352440 0
M  V30 25 N -4.677423 -5.406175 -0.855719 0
M  V30 26 C -3.913372 -2.127758 0.250378 0
M  V30 27 C -0.322111 1.301831 0.873360 0
M  V30 28 C 0.705859 0.400723 0.220942 0
M  V30 29 C 1.375969 0.140135 -2.138700 0
M  V30 30 C 2.431200 -0.912725 -1.955104 0
M  V30 31 H -0.050153 -2.288368 2.762536 0
M  V30 32 H 0.151152 -2.881735 1.101765 0
M  V30 33 H 0.159207 -4.040861 2.519457 0
M  V30 34 H 2.049892 -3.529874 4.457836 0
M  V30 35 H 4.643454 -3.227741 4.115096 0
M  V30 36 H 5.016937 -2.518637 1.534862 0
M  V30 37 H 4.500521 0.193814 -0.611919 0
M  V30 38 H 3.643348 0.175079 0.947555 0
M  V30 39 H 2.818760 2.154926 0.199315 0
M  V30 40 H 3.216078 1.804968 -1.513363 0
M  V30 41 H 0.829597 2.524734 -2.463028 0
M  V30 42 H 1.102378 3.261584 -0.884373 0
M  V30 43 H -1.411804 2.259131 -2.097177 0
M  V30 44 H -1.159068 3.435704 -0.792917 0
M  V30 45 H -2.368516 -0.364406 1.537220 0
M  V30 46 H -5.219970 0.386750 1.960722 0
M  V30 47 H -7.139090 -1.241209 2.094250 0
M  V30 48 H -6.882424 -3.484322 0.976070 0
M  V30 49 H -3.029508 -2.465024 -0.297227 0
M  V30 50 H 0.108453 2.263971 1.155446 0
M  V30 51 H -0.758860 0.847172 1.781564 0
M  V30 52 H 0.182824 -0.526058 -0.142519 0
M  V30 53 H 1.429988 0.170289 1.024581 0
M  V30 54 H 1.623117 0.771288 -3.022084 0
M  V30 55 H 0.389028 -0.307493 -2.315014 0
M  V30 56 H 2.051831 -1.848949 -2.386575 0
M  V30 57 H 3.318525 -0.637139 -2.559600 0
M  V30 END ATOM
M  V30 BEGIN BOND
M  V30 1 1 1 2
M  V30 2 1 2 3
M  V30 3 2 3 4
M  V30 4 1 4 5
M  V30 5 2 5 6
M  V30 6 1 6 7
M  V30 7 2 7 8
M  V30 8 1 7 9
M  V30 9 1 9 10
M  V30 10 1 10 11
M  V30 11 1 11 12
M  V30 12 1 12 13
M  V30 13 1 13 14
M  V30 14 1 14 15
M  V30 15 1 15 16
M  V30 16 2 16 17
M  V30 17 1 16 18
M  V30 18 1 18 19
M  V30 19 2 19 20
M  V30 20 1 20 21
M  V30 21 2 21 22
M  V30 22 1 22 23
M  V30 23 1 23 24
M  V30 24 3 24 25
M  V30 25 2 23 26
M  V30 26 1 15 27
M  V30 27 1 27 28
M  V30 28 1 12 29
M  V30 29 1 29 30
M  V30 30 1 6 2
M  V30 31 1 30 9
M  V30 32 1 28 12
M  V30 33 1 26 19
M  V30 34 1 1 31
M  V30 35 1 1 32
M  V30 36 1 1 33
M  V30 37 1 3 34
M  V30 38 1 4 35
M  V30 39 1 5 36
M  V30 40 1 10 37
M  V30 41 1 10 38
M  V30 42 1 11 39
M  V30 43 1 11 40
M  V30 44 1 13 41
M  V30 45 1 13 42
M  V30 46 1 14 43
M  V30 47 1 14 44
M  V30 48 1 18 45
M  V30 49 1 20 46
M  V30 50 1 21 47
M  V30 51 1 22 48
M  V30 52 1 26 49
M  V30 53 1 27 50
M  V30 54 1 27 51
M  V30 55 1 28 52
M  V30 56 1 28 53
M  V30 57 1 29 54
M  V30 58 1 29 55
M  V30 59 1 30 56
M  V30 60 1 30 57
M  V30 END BOND
M  V30 END CTAB
M  END
>  <Dataset>  (254) 
ChEMBL_Kinases

>  <Ligand_Instance>  (254) 
nan

>  <PDB_ID>  (254) 
nan

>  <Standardized_SMILES>  (254) 
Cn1cccc1C(=O)N1CCC2(CCN(C(=O)Nc3cccc(C#N)c3)CC2)CC1

>  <Name>  (254) 
nan

>  <Pocket>  (254) 
nan

>  <ATP_Site>  (254) 
nan

>  <Peripheral>  (254) 
nan

>  <Num_H_Atoms_ProtBoundConf>  (254) 
nan

>  <Num_Resolved_Atoms>  (254) 
nan

>  <Num_Not_Resolved_Atoms>  (254) 
nan

$$$$
CHEMBL1551271
     RDKit          3D

  0  0  0  0  0  0  0  0  0  0999 V3000
M  V30 BEGIN CTAB
M  V30 COUNTS 134 142 0 0 0
M  V30 BEGIN ATOM
M  V30 1 C 4.781360 6.667222 0.736752 0
M  V30 2 C 3.522057 5.922049 0.359503 0 CFG=1
M  V30 3 C 2.990118 6.244437 -0.992196 0
M  V30 4 C 3.661246 5.562351 -2.134265 0
M  V30 5 C 4.350425 4.285979 -1.820270 0 CFG=2
M  V30 6 C 3.901819 3.244756 -2.857475 0 CFG=1
M  V30 7 C 5.057857 3.095897 -3.843654 0
M  V30 8 C 3.795536 1.974145 -2.094153 0 CFG=1
M  V30 9 C 3.326713 2.512055 -0.733851 0 CFG=2
M  V30 10 C 1.864484 2.805483 -1.105975 0
M  V30 11 C 1.535509 1.507785 -1.730397 0 CFG=1
M  V30 12 C 0.392400 1.492110 -2.699662 0 CFG=2
M  V30 13 C -0.815060 2.054504 -2.076709 0
M  V30 14 C -1.936473 1.087635 -1.926979 0
M  V30 15 C -2.077610 -0.059146 -2.606702 0
M  V30 16 C -3.224326 -1.026683 -2.438923 0
M  V30 17 C -2.485524 -2.305677 -2.088421 0 CFG=1
M  V30 18 O -3.215102 -3.230360 -1.417295 0
M  V30 19 C -2.599293 -3.625473 -0.199625 0 CFG=2
M  V30 20 O -3.527195 -4.566380 0.296263 0
M  V30 21 C -4.778868 -3.982530 0.492165 0 CFG=1
M  V30 22 O -5.679761 -4.507214 -0.434055 0
M  V30 23 C -5.954660 -5.843249 -0.199144 0 CFG=1
M  V30 24 C -4.729770 -6.722354 -0.154408 0
M  V30 25 C -6.779859 -5.914679 1.035885 0 CFG=1
M  V30 26 O -6.680964 -7.246760 1.502062 0
M  V30 27 C -6.463517 -4.933575 2.104724 0 CFG=1
M  V30 28 O -6.296209 -5.649005 3.310532 0
M  V30 29 C -5.257426 -4.077018 1.901101 0 CFG=2
M  V30 30 O -5.569408 -2.797587 2.420714 0
M  V30 31 C -2.434803 -2.493420 0.740123 0
M  V30 32 C -1.033837 -2.108957 1.113552 0 CFG=1
M  V30 33 O -0.913680 -1.753929 2.466312 0
M  V30 34 C -0.465442 -0.448628 2.616165 0 CFG=2
M  V30 35 O 0.729864 -0.460935 3.332218 0
M  V30 36 C 0.876934 0.653129 4.156543 0 CFG=2
M  V30 37 C 2.286655 0.577836 4.721007 0
M  V30 38 O 2.379400 -0.625290 5.435002 0
M  V30 39 C -0.074292 0.601052 5.346180 0 CFG=1
M  V30 40 O -0.171485 1.860433 5.916238 0
M  V30 41 C -1.407551 0.082878 4.855416 0 CFG=2
M  V30 42 O -1.403331 -1.298049 5.054417 0
M  V30 43 C -1.509976 0.354646 3.357600 0 CFG=2
M  V30 44 O -2.798599 0.057764 2.933467 0
M  V30 45 C -0.010429 -3.174123 0.852073 0 CFG=1
M  V30 46 O 0.824987 -3.416883 1.943115 0
M  V30 47 C -0.631570 -4.500555 0.471500 0 CFG=2
M  V30 48 C 0.543160 -5.344031 -0.046463 0
M  V30 49 O 1.234940 -4.642169 -1.032521 0
M  V30 50 O -1.441614 -4.255755 -0.605630 0
M  V30 51 C -1.961533 -2.762741 -3.441782 0
M  V30 52 C -0.945546 -1.822468 -3.996487 0
M  V30 53 C -1.033878 -0.395728 -3.587065 0 CFG=1
M  V30 54 C -1.415163 0.405558 -4.843758 0
M  V30 55 C 0.321690 0.073592 -3.153981 0 CFG=1
M  V30 56 C 1.360465 -0.036420 -4.249987 0
M  V30 57 C 2.527789 0.905806 -3.973626 0
M  V30 58 C 2.747751 1.016961 -2.486090 0 CFG=1
M  V30 59 C 3.127386 -0.357749 -1.975896 0
M  V30 60 N 4.090603 3.695732 -0.575663 0
M  V30 61 C 3.634222 4.453095 0.511877 0
M  V30 62 H 4.820405 6.712579 1.864645 0
M  V30 63 H 4.785142 7.676692 0.322344 0
M  V30 64 H 5.647146 6.039098 0.448805 0
M  V30 65 H 2.742630 6.286539 1.092176 0
M  V30 66 H 1.899913 5.976572 -0.977601 0
M  V30 67 H 3.003615 7.366080 -1.105805 0
M  V30 68 H 2.899891 5.459259 -2.944651 0
M  V30 69 H 4.378020 6.322931 -2.558083 0
M  V30 70 H 5.451767 4.458460 -1.883536 0
M  V30 71 H 2.988608 3.557607 -3.388654 0
M  V30 72 H 5.164266 3.986586 -4.472203 0
M  V30 73 H 5.050317 2.160891 -4.397353 0
M  V30 74 H 5.974863 3.059876 -3.198503 0
M  V30 75 H 4.812519 1.518713 -1.996904 0
M  V30 76 H 3.413076 1.769287 0.055869 0
M  V30 77 H 1.288240 2.907661 -0.157357 0
M  V30 78 H 1.811348 3.695218 -1.728679 0
M  V30 79 H 1.257647 0.782611 -0.913220 0
M  V30 80 H 0.687645 2.172947 -3.540616 0
M  V30 81 H -0.599818 2.418867 -1.044979 0
M  V30 82 H -1.216880 2.939887 -2.610537 0
M  V30 83 H -2.724998 1.303412 -1.211775 0
M  V30 84 H -3.917293 -0.695331 -1.647540 0
M  V30 85 H -3.782725 -1.132380 -3.371696 0
M  V30 86 H -1.580716 -2.111669 -1.478067 0
M  V30 87 H -4.698412 -2.909586 0.205122 0
M  V30 88 H -6.550921 -6.194797 -1.066333 0
M  V30 89 H -4.078589 -6.437997 -0.994934 0
M  V30 90 H -5.080763 -7.767159 -0.397870 0
M  V30 91 H -4.256768 -6.719820 0.836643 0
M  V30 92 H -7.862804 -5.836851 0.724559 0
M  V30 93 H -7.130733 -7.328505 2.381000 0
M  V30 94 H -7.374005 -4.310036 2.304464 0
M  V30 95 H -5.389273 -5.512791 3.684724 0
M  V30 96 H -4.421414 -4.446405 2.531031 0
M  V30 97 H -5.189732 -2.662189 3.324261 0
M  V30 98 H -2.919886 -2.770732 1.714731 0
M  V30 99 H -3.005760 -1.574224 0.447959 0
M  V30 100 H -0.720576 -1.200749 0.558536 0
M  V30 101 H -0.301143 0.026281 1.624328 0
M  V30 102 H 0.758570 1.582125 3.582525 0
M  V30 103 H 2.443251 1.434641 5.411956 0
M  V30 104 H 3.061966 0.625019 3.939735 0
M  V30 105 H 3.189734 -0.717446 5.964046 0
M  V30 106 H 0.382591 -0.072072 6.098753 0
M  V30 107 H 0.409837 2.527396 5.475071 0
M  V30 108 H -2.264843 0.521509 5.364198 0
M  V30 109 H -1.212031 -1.503319 5.997499 0
M  V30 110 H -1.370281 1.455088 3.192076 0
M  V30 111 H -3.405544 -0.225199 3.664596 0
M  V30 112 H 0.662360 -2.898988 0.005277 0
M  V30 113 H 1.670101 -3.820107 1.610240 0
M  V30 114 H -1.093550 -4.953265 1.344875 0
M  V30 115 H 0.105556 -6.235153 -0.550424 0
M  V30 116 H 1.232605 -5.637027 0.767830 0
M  V30 117 H 2.201278 -4.795452 -0.984034 0
M  V30 118 H -2.854423 -2.847134 -4.096180 0
M  V30 119 H -1.565937 -3.792298 -3.320141 0
M  V30 120 H 0.047170 -2.257999 -3.732334 0
M  V30 121 H -0.977450 -1.957791 -5.118865 0
M  V30 122 H -0.992045 -0.075574 -5.749261 0
M  V30 123 H -2.516003 0.279302 -4.949876 0
M  V30 124 H -1.208446 1.470093 -4.742457 0
M  V30 125 H 0.654840 -0.647356 -2.377583 0
M  V30 126 H 0.983597 0.231855 -5.244835 0
M  V30 127 H 1.730184 -1.094352 -4.344879 0
M  V30 128 H 2.459863 1.855985 -4.503682 0
M  V30 129 H 3.430507 0.388961 -4.374477 0
M  V30 130 H 2.625398 -0.549671 -1.011876 0
M  V30 131 H 2.975670 -1.155560 -2.731918 0
M  V30 132 H 4.229510 -0.395194 -1.736413 0
M  V30 133 H 2.647141 4.045657 0.878651 0
M  V30 134 H 4.321001 4.250429 1.385680 0
M  V30 END ATOM
M  V30 BEGIN BOND
M  V30 1 1 1 2
M  V30 2 1 2 3
M  V30 3 1 3 4
M  V30 4 1 4 5
M  V30 5 1 5 6
M  V30 6 1 6 7
M  V30 7 1 6 8
M  V30 8 1 8 9
M  V30 9 1 9 10
M  V30 10 1 10 11
M  V30 11 1 11 12
M  V30 12 1 12 13
M  V30 13 1 13 14
M  V30 14 2 14 15
M  V30 15 1 15 16
M  V30 16 1 16 17
M  V30 17 1 17 18
M  V30 18 1 19 18 CFG=3
M  V30 19 1 19 20
M  V30 20 1 20 21
M  V30 21 1 21 22
M  V30 22 1 22 23
M  V30 23 1 23 24
M  V30 24 1 23 25
M  V30 25 1 25 26
M  V30 26 1 25 27
M  V30 27 1 27 28
M  V30 28 1 27 29
M  V30 29 1 29 30
M  V30 30 1 19 31
M  V30 31 1 31 32
M  V30 32 1 32 33
M  V30 33 1 33 34
M  V30 34 1 34 35
M  V30 35 1 35 36
M  V30 36 1 36 37
M  V30 37 1 37 38
M  V30 38 1 36 39
M  V30 39 1 39 40
M  V30 40 1 39 41
M  V30 41 1 41 42
M  V30 42 1 41 43
M  V30 43 1 43 44
M  V30 44 1 32 45
M  V30 45 1 45 46
M  V30 46 1 45 47
M  V30 47 1 47 48
M  V30 48 1 48 49
M  V30 49 1 47 50
M  V30 50 1 17 51
M  V30 51 1 51 52
M  V30 52 1 52 53
M  V30 53 1 53 54 CFG=3
M  V30 54 1 53 55
M  V30 55 1 55 56
M  V30 56 1 56 57
M  V30 57 1 57 58
M  V30 58 1 58 59 CFG=1
M  V30 59 1 9 60
M  V30 60 1 60 61
M  V30 61 1 61 2
M  V30 62 1 60 5
M  V30 63 1 58 8
M  V30 64 1 58 11
M  V30 65 1 55 12
M  V30 66 1 53 15
M  V30 67 1 50 19
M  V30 68 1 29 21
M  V30 69 1 43 34
M  V30 70 1 1 62
M  V30 71 1 1 63
M  V30 72 1 1 64
M  V30 73 1 2 65 CFG=1
M  V30 74 1 3 66
M  V30 75 1 3 67
M  V30 76 1 4 68
M  V30 77 1 4 69
M  V30 78 1 5 70 CFG=1
M  V30 79 1 6 71 CFG=3
M  V30 80 1 7 72
M  V30 81 1 7 73
M  V30 82 1 7 74
M  V30 83 1 8 75 CFG=1
M  V30 84 1 9 76 CFG=1
M  V30 85 1 10 77
M  V30 86 1 10 78
M  V30 87 1 11 79 CFG=1
M  V30 88 1 12 80 CFG=3
M  V30 89 1 13 81
M  V30 90 1 13 82
M  V30 91 1 14 83
M  V30 92 1 16 84
M  V30 93 1 16 85
M  V30 94 1 17 86 CFG=1
M  V30 95 1 21 87 CFG=3
M  V30 96 1 23 88 CFG=3
M  V30 97 1 24 89
M  V30 98 1 24 90
M  V30 99 1 24 91
M  V30 100 1 25 92 CFG=3
M  V30 101 1 26 93
M  V30 102 1 27 94 CFG=1
M  V30 103 1 28 95
M  V30 104 1 29 96 CFG=1
M  V30 105 1 30 97
M  V30 106 1 31 98
M  V30 107 1 31 99
M  V30 108 1 32 100 CFG=3
M  V30 109 1 34 101 CFG=3
M  V30 110 1 36 102 CFG=3
M  V30 111 1 37 103
M  V30 112 1 37 104
M  V30 113 1 38 105
M  V30 114 1 39 106 CFG=1
M  V30 115 1 40 107
M  V30 116 1 41 108 CFG=1
M  V30 117 1 42 109
M  V30 118 1 43 110 CFG=1
M  V30 119 1 44 111
M  V30 120 1 45 112 CFG=3
M  V30 121 1 46 113
M  V30 122 1 47 114 CFG=1
M  V30 123 1 48 115
M  V30 124 1 48 116
M  V30 125 1 49 117
M  V30 126 1 51 118
M  V30 127 1 51 119
M  V30 128 1 52 120
M  V30 129 1 52 121
M  V30 130 1 54 122
M  V30 131 1 54 123
M  V30 132 1 54 124
M  V30 133 1 55 125 CFG=1
M  V30 134 1 56 126
M  V30 135 1 56 127
M  V30 136 1 57 128
M  V30 137 1 57 129
M  V30 138 1 59 130
M  V30 139 1 59 131
M  V30 140 1 59 132
M  V30 141 1 61 133
M  V30 142 1 61 134
M  V30 END BOND
M  V30 END CTAB
M  END
>  <Dataset>  (255) 
ChEMBL_Kinases

>  <Ligand_Instance>  (255) 
nan

>  <PDB_ID>  (255) 
nan

>  <Standardized_SMILES>  (255) 
C[C@H]1CC[C@@H]2[C@@H](C)[C@H]3[C@H](C[C@H]4[C@@H]5CC=C6C[C@@H](O[C@]7(O[C@H]8O[C@@H](C)[C@@H](O)[C@@H](O)[C@@H]8O)C[C@@H](O[C@@H]8O[C@H](CO)[C@@H](O)[C@H](O)[C@@H]8O)[C@@H](O)[C@H](CO)O7)CC[C@]6(C)[C@H]5CC[C@@]34C)N2C1

>  <Name>  (255) 
nan

>  <Pocket>  (255) 
nan

>  <ATP_Site>  (255) 
nan

>  <Peripheral>  (255) 
nan

>  <Num_H_Atoms_ProtBoundConf>  (255) 
nan

>  <Num_Resolved_Atoms>  (255) 
nan

>  <Num_Not_Resolved_Atoms>  (255) 
nan

$$$$
CHEMBL1551200
     RDKit          3D

  0  0  0  0  0  0  0  0  0  0999 V3000
M  V30 BEGIN CTAB
M  V30 COUNTS 40 42 0 0 0
M  V30 BEGIN ATOM
M  V30 1 C 1.626295 -4.874530 -1.620447 0
M  V30 2 O 0.728045 -3.784080 -1.546921 0
M  V30 3 C 0.254667 -3.420571 -0.294896 0
M  V30 4 C 0.593895 -4.041808 0.884399 0
M  V30 5 C 0.120550 -3.676628 2.125889 0
M  V30 6 C -0.749704 -2.616043 2.167372 0
M  V30 7 C -1.122259 -1.958694 1.015348 0
M  V30 8 C -0.634962 -2.341582 -0.220750 0
M  V30 9 C -1.021249 -1.655666 -1.469021 0
M  V30 10 N -0.007093 -0.789052 -2.015397 0
M  V30 11 C 0.559602 0.331884 -1.372437 0
M  V30 12 C 1.539177 1.108848 -1.994144 0
M  V30 13 C 2.132422 2.212109 -1.427362 0
M  V30 14 N 1.713500 2.529902 -0.192498 0
M  V30 15 C 0.774225 1.827741 0.467456 0
M  V30 16 C 0.389367 2.257533 1.807251 0
M  V30 17 C 0.984368 3.363506 2.373676 0
M  V30 18 C 0.701361 3.859273 3.627925 0
M  V30 19 C -0.247417 3.206964 4.381544 0
M  V30 20 C -0.877163 2.095305 3.870113 0
M  V30 21 C -1.880652 1.357615 4.597373 0
M  V30 22 N -2.696929 0.782255 5.182672 0
M  V30 23 C -0.554479 1.634343 2.595572 0
M  V30 24 N 0.229216 0.757618 -0.137421 0
M  V30 25 H 1.339948 -5.736702 -0.992009 0
M  V30 26 H 1.681428 -5.214727 -2.685100 0
M  V30 27 H 2.665428 -4.587665 -1.325214 0
M  V30 28 H 1.279006 -4.877262 0.852053 0
M  V30 29 H 0.425383 -4.208561 3.033834 0
M  V30 30 H -1.172727 -2.259492 3.102694 0
M  V30 31 H -1.802916 -1.121395 0.970235 0
M  V30 32 H -1.234940 -2.453177 -2.208438 0
M  V30 33 H -2.001333 -1.123626 -1.348097 0
M  V30 34 H 0.366728 -0.990428 -2.992304 0
M  V30 35 H 1.859833 0.827510 -2.997064 0
M  V30 36 H 2.886134 2.770914 -1.963378 0
M  V30 37 H 1.740678 3.920485 1.827394 0
M  V30 38 H 1.200277 4.739641 4.032705 0
M  V30 39 H -0.532547 3.532435 5.385623 0
M  V30 40 H -1.051684 0.767363 2.207598 0
M  V30 END ATOM
M  V30 BEGIN BOND
M  V30 1 1 1 2
M  V30 2 1 2 3
M  V30 3 2 3 4
M  V30 4 1 4 5
M  V30 5 2 5 6
M  V30 6 1 6 7
M  V30 7 2 7 8
M  V30 8 1 8 9
M  V30 9 1 9 10
M  V30 10 1 10 11
M  V30 11 2 11 12
M  V30 12 1 12 13
M  V30 13 2 13 14
M  V30 14 1 14 15
M  V30 15 1 15 16
M  V30 16 2 16 17
M  V30 17 1 17 18
M  V30 18 2 18 19
M  V30 19 1 19 20
M  V30 20 1 20 21
M  V30 21 3 21 22
M  V30 22 2 20 23
M  V30 23 2 15 24
M  V30 24 1 8 3
M  V30 25 1 24 11
M  V30 26 1 23 16
M  V30 27 1 1 25
M  V30 28 1 1 26
M  V30 29 1 1 27
M  V30 30 1 4 28
M  V30 31 1 5 29
M  V30 32 1 6 30
M  V30 33 1 7 31
M  V30 34 1 9 32
M  V30 35 1 9 33
M  V30 36 1 10 34
M  V30 37 1 12 35
M  V30 38 1 13 36
M  V30 39 1 17 37
M  V30 40 1 18 38
M  V30 41 1 19 39
M  V30 42 1 23 40
M  V30 END BOND
M  V30 END CTAB
M  END
>  <Dataset>  (256) 
ChEMBL_Kinases

>  <Ligand_Instance>  (256) 
nan

>  <PDB_ID>  (256) 
nan

>  <Standardized_SMILES>  (256) 
COc1ccccc1CNc1ccnc(-c2cccc(C#N)c2)n1

>  <Name>  (256) 
nan

>  <Pocket>  (256) 
nan

>  <ATP_Site>  (256) 
nan

>  <Peripheral>  (256) 
nan

>  <Num_H_Atoms_ProtBoundConf>  (256) 
nan

>  <Num_Resolved_Atoms>  (256) 
nan

>  <Num_Not_Resolved_Atoms>  (256) 
nan

$$$$
CHEMBL1551139
     RDKit          3D

  0  0  0  0  0  0  0  0  0  0999 V3000
M  V30 BEGIN CTAB
M  V30 COUNTS 47 49 0 0 0
M  V30 BEGIN ATOM
M  V30 1 C -0.224903 -4.186982 3.384599 0
M  V30 2 O -1.230750 -3.469238 2.725858 0
M  V30 3 C -1.157600 -2.899770 1.486350 0
M  V30 4 C -0.040877 -2.962551 0.690580 0
M  V30 5 C -0.103160 -2.348400 -0.540525 0
M  V30 6 C -1.246152 -1.671357 -1.003581 0
M  V30 7 C -1.223708 -1.047400 -2.372084 0
M  V30 8 N -1.218070 0.407171 -2.213003 0
M  V30 9 C -0.875563 1.081071 -1.025002 0
M  V30 10 C 0.276422 0.980682 -0.309381 0
M  V30 11 C 0.516311 1.672109 0.818506 0
M  V30 12 C 1.718660 1.647106 1.614343 0
M  V30 13 C 1.922722 2.611817 2.584048 0
M  V30 14 C 2.997119 2.732375 3.420972 0
M  V30 15 C 4.028056 1.792394 3.315491 0
M  V30 16 C 3.863279 0.817578 2.362146 0
M  V30 17 C 2.763255 0.753901 1.555839 0
M  V30 18 O 2.699458 -0.258664 0.643223 0
M  V30 19 C 3.662837 -1.244388 0.457310 0
M  V30 20 N -0.478544 2.498510 1.214223 0
M  V30 21 C -1.618672 2.622558 0.538176 0
M  V30 22 N -1.831767 1.911083 -0.594490 0
M  V30 23 C -2.359564 -1.619885 -0.183894 0
M  V30 24 O -3.464779 -0.937805 -0.682086 0
M  V30 25 C -4.597389 -0.874712 0.164559 0
M  V30 26 C -2.286726 -2.243098 1.053800 0
M  V30 27 H -0.271165 -5.258706 3.106454 0
M  V30 28 H 0.799306 -3.860349 3.195782 0
M  V30 29 H -0.386771 -4.180230 4.492311 0
M  V30 30 H 0.838433 -3.460955 1.001981 0
M  V30 31 H 0.746150 -2.365342 -1.203978 0
M  V30 32 H -2.101141 -1.370324 -2.980124 0
M  V30 33 H -0.265465 -1.318897 -2.846745 0
M  V30 34 H -1.477238 0.998126 -3.058774 0
M  V30 35 H 0.993991 0.315074 -0.704260 0
M  V30 36 H 1.146861 3.380904 2.719700 0
M  V30 37 H 3.036886 3.534968 4.143314 0
M  V30 38 H 4.897151 1.828364 3.937560 0
M  V30 39 H 4.666094 0.065856 2.265011 0
M  V30 40 H 4.579141 -0.893344 -0.030561 0
M  V30 41 H 3.210144 -2.047749 -0.199869 0
M  V30 42 H 3.962497 -1.717886 1.418763 0
M  V30 43 H -2.423442 3.296057 0.871507 0
M  V30 44 H -5.434790 -0.358893 -0.331481 0
M  V30 45 H -4.862797 -1.876908 0.521325 0
M  V30 46 H -4.366777 -0.254307 1.075301 0
M  V30 47 H -3.186875 -2.163834 1.622400 0
M  V30 END ATOM
M  V30 BEGIN BOND
M  V30 1 1 1 2
M  V30 2 1 2 3
M  V30 3 2 3 4
M  V30 4 1 4 5
M  V30 5 2 5 6
M  V30 6 1 6 7
M  V30 7 1 7 8
M  V30 8 1 8 9
M  V30 9 2 9 10
M  V30 10 1 10 11
M  V30 11 1 11 12
M  V30 12 2 12 13
M  V30 13 1 13 14
M  V30 14 2 14 15
M  V30 15 1 15 16
M  V30 16 2 16 17
M  V30 17 1 17 18
M  V30 18 1 18 19
M  V30 19 2 11 20
M  V30 20 1 20 21
M  V30 21 2 21 22
M  V30 22 1 6 23
M  V30 23 1 23 24
M  V30 24 1 24 25
M  V30 25 2 23 26
M  V30 26 1 26 3
M  V30 27 1 22 9
M  V30 28 1 17 12
M  V30 29 1 1 27
M  V30 30 1 1 28
M  V30 31 1 1 29
M  V30 32 1 4 30
M  V30 33 1 5 31
M  V30 34 1 7 32
M  V30 35 1 7 33
M  V30 36 1 8 34
M  V30 37 1 10 35
M  V30 38 1 13 36
M  V30 39 1 14 37
M  V30 40 1 15 38
M  V30 41 1 16 39
M  V30 42 1 19 40
M  V30 43 1 19 41
M  V30 44 1 19 42
M  V30 45 1 21 43
M  V30 46 1 25 44
M  V30 47 1 25 45
M  V30 48 1 25 46
M  V30 49 1 26 47
M  V30 END BOND
M  V30 END CTAB
M  END
>  <Dataset>  (257) 
ChEMBL_Kinases

>  <Ligand_Instance>  (257) 
nan

>  <PDB_ID>  (257) 
nan

>  <Standardized_SMILES>  (257) 
COc1ccc(CNc2cc(-c3ccccc3OC)ncn2)c(OC)c1

>  <Name>  (257) 
nan

>  <Pocket>  (257) 
nan

>  <ATP_Site>  (257) 
nan

>  <Peripheral>  (257) 
nan

>  <Num_H_Atoms_ProtBoundConf>  (257) 
nan

>  <Num_Resolved_Atoms>  (257) 
nan

>  <Num_Not_Resolved_Atoms>  (257) 
nan

$$$$
CHEMBL1550931
     RDKit          3D

  0  0  0  0  0  0  0  0  0  0999 V3000
M  V30 BEGIN CTAB
M  V30 COUNTS 27 29 0 0 0
M  V30 BEGIN ATOM
M  V30 1 O 3.029685 -0.883857 0.123838 0
M  V30 2 C 1.859395 -1.246353 0.470524 0
M  V30 3 C 1.616253 -2.615505 0.902073 0
M  V30 4 C 0.400020 -3.299465 0.829535 0
M  V30 5 C 0.426968 -4.602967 1.346421 0
M  V30 6 C 1.551704 -5.179088 1.884043 0
M  V30 7 N 2.721904 -4.490614 1.940957 0
M  V30 8 C 2.728186 -3.217467 1.446204 0
M  V30 9 C 0.895075 -0.158347 0.372568 0
M  V30 10 C 1.134019 1.051840 -0.230712 0
M  V30 11 C 0.007176 1.852066 -0.120783 0
M  V30 12 C -0.335827 3.123896 -0.522620 0
M  V30 13 C -1.589584 3.591663 -0.224822 0
M  V30 14 C -2.565659 2.897644 0.454720 0
M  V30 15 C -2.182455 1.632869 0.837471 0
M  V30 16 C -0.941392 1.092031 0.574948 0
M  V30 17 N -0.369813 -0.094823 0.847548 0
M  V30 18 H -0.446354 -2.821828 0.390708 0
M  V30 19 H -0.539908 -5.079626 1.262754 0
M  V30 20 H 1.501128 -6.187818 2.264236 0
M  V30 21 H 3.722651 -2.795561 1.561131 0
M  V30 22 H 2.028013 1.440274 -0.747502 0
M  V30 23 H 0.385484 3.719868 -1.057946 0
M  V30 24 H -1.792232 4.598157 -0.569366 0
M  V30 25 H -3.543531 3.282102 0.680529 0
M  V30 26 H -2.940043 1.047503 1.387466 0
M  V30 27 H -0.915203 -0.800956 1.374311 0
M  V30 END ATOM
M  V30 BEGIN BOND
M  V30 1 2 1 2
M  V30 2 1 2 3
M  V30 3 2 3 4
M  V30 4 1 4 5
M  V30 5 2 5 6
M  V30 6 1 6 7
M  V30 7 2 7 8
M  V30 8 1 2 9
M  V30 9 2 9 10
M  V30 10 1 10 11
M  V30 11 2 11 12
M  V30 12 1 12 13
M  V30 13 2 13 14
M  V30 14 1 14 15
M  V30 15 2 15 16
M  V30 16 1 16 17
M  V30 17 1 8 3
M  V30 18 1 17 9
M  V30 19 1 16 11
M  V30 20 1 4 18
M  V30 21 1 5 19
M  V30 22 1 6 20
M  V30 23 1 8 21
M  V30 24 1 10 22
M  V30 25 1 12 23
M  V30 26 1 13 24
M  V30 27 1 14 25
M  V30 28 1 15 26
M  V30 29 1 17 27
M  V30 END BOND
M  V30 END CTAB
M  END
>  <Dataset>  (258) 
ChEMBL_Kinases

>  <Ligand_Instance>  (258) 
nan

>  <PDB_ID>  (258) 
nan

>  <Standardized_SMILES>  (258) 
O=C(c1cccnc1)c1cc2ccccc2[nH]1

>  <Name>  (258) 
nan

>  <Pocket>  (258) 
nan

>  <ATP_Site>  (258) 
nan

>  <Peripheral>  (258) 
nan

>  <Num_H_Atoms_ProtBoundConf>  (258) 
nan

>  <Num_Resolved_Atoms>  (258) 
nan

>  <Num_Not_Resolved_Atoms>  (258) 
nan

$$$$
CHEMBL1550788
     RDKit          3D

  0  0  0  0  0  0  0  0  0  0999 V3000
M  V30 BEGIN CTAB
M  V30 COUNTS 37 39 0 0 0
M  V30 BEGIN ATOM
M  V30 1 C 0.721222 -4.252007 5.285280 0
M  V30 2 O 1.200609 -3.935555 3.992695 0
M  V30 3 C 0.716743 -2.817535 3.289217 0
M  V30 4 C 1.174800 -2.491026 2.020422 0
M  V30 5 C 0.686921 -1.389626 1.347278 0
M  V30 6 C 1.140640 -1.062533 0.085373 0
M  V30 7 C 2.125457 -1.835653 -0.581736 0
M  V30 8 N 2.933094 -2.444635 -1.123819 0
M  V30 9 C 0.568285 0.062498 -0.470899 0
M  V30 10 N 0.957055 0.498247 -1.769383 0
M  V30 11 C 0.809844 -0.321545 -2.985306 0
M  V30 12 C -0.144858 0.602274 -3.755304 0
M  V30 13 C 0.432243 1.986310 -3.425059 0
M  V30 14 C 1.552152 1.676706 -2.423181 0
M  V30 15 N -0.379243 0.806176 0.171187 0
M  V30 16 C -0.810680 0.473928 1.400767 0
M  V30 17 N -1.798239 1.258710 2.056456 0
M  V30 18 C -0.273000 -0.632942 1.993181 0
M  V30 19 C -0.717341 -0.961297 3.240223 0
M  V30 20 N -1.697483 -0.253896 3.990857 0
M  V30 21 N -0.227756 -2.046665 3.887941 0
M  V30 22 H 1.467015 -4.893817 5.798079 0
M  V30 23 H -0.231087 -4.815326 5.247159 0
M  V30 24 H 0.576811 -3.315946 5.897028 0
M  V30 25 H 1.936682 -3.116264 1.542221 0
M  V30 26 H 1.756210 -0.318648 -3.570331 0
M  V30 27 H 0.391444 -1.306348 -2.788038 0
M  V30 28 H -1.131913 0.468468 -3.243747 0
M  V30 29 H -0.159596 0.405697 -4.827454 0
M  V30 30 H 0.781904 2.503238 -4.317791 0
M  V30 31 H -0.340779 2.545348 -2.841192 0
M  V30 32 H 2.435207 1.394568 -3.023752 0
M  V30 33 H 1.720803 2.506418 -1.713994 0
M  V30 34 H -2.791422 1.108451 1.756622 0
M  V30 35 H -1.422084 1.920652 2.787763 0
M  V30 36 H -2.702177 -0.321303 3.682336 0
M  V30 37 H -1.659834 0.358453 4.831872 0
M  V30 END ATOM
M  V30 BEGIN BOND
M  V30 1 1 1 2
M  V30 2 1 2 3
M  V30 3 2 3 4
M  V30 4 1 4 5
M  V30 5 2 5 6
M  V30 6 1 6 7
M  V30 7 3 7 8
M  V30 8 1 6 9
M  V30 9 1 9 10
M  V30 10 1 10 11
M  V30 11 1 11 12
M  V30 12 1 12 13
M  V30 13 1 13 14
M  V30 14 2 9 15
M  V30 15 1 15 16
M  V30 16 1 16 17
M  V30 17 2 16 18
M  V30 18 1 18 19
M  V30 19 1 19 20
M  V30 20 2 19 21
M  V30 21 1 21 3
M  V30 22 1 18 5
M  V30 23 1 14 10
M  V30 24 1 1 22
M  V30 25 1 1 23
M  V30 26 1 1 24
M  V30 27 1 4 25
M  V30 28 1 11 26
M  V30 29 1 11 27
M  V30 30 1 12 28
M  V30 31 1 12 29
M  V30 32 1 13 30
M  V30 33 1 13 31
M  V30 34 1 14 32
M  V30 35 1 14 33
M  V30 36 1 17 34
M  V30 37 1 17 35
M  V30 38 1 20 36
M  V30 39 1 20 37
M  V30 END BOND
M  V30 END CTAB
M  END
>  <Dataset>  (259) 
ChEMBL_Kinases

>  <Ligand_Instance>  (259) 
nan

>  <PDB_ID>  (259) 
nan

>  <Standardized_SMILES>  (259) 
COc1cc2c(C#N)c(N3CCCC3)nc(N)c2c(N)n1

>  <Name>  (259) 
nan

>  <Pocket>  (259) 
nan

>  <ATP_Site>  (259) 
nan

>  <Peripheral>  (259) 
nan

>  <Num_H_Atoms_ProtBoundConf>  (259) 
nan

>  <Num_Resolved_Atoms>  (259) 
nan

>  <Num_Not_Resolved_Atoms>  (259) 
nan

$$$$
CHEMBL1552277
     RDKit          3D

  0  0  0  0  0  0  0  0  0  0999 V3000
M  V30 BEGIN CTAB
M  V30 COUNTS 45 49 0 0 0
M  V30 BEGIN ATOM
M  V30 1 C 3.633263 -6.227799 2.116923 0
M  V30 2 C 3.594962 -4.887340 1.481078 0
M  V30 3 C 4.020372 -3.786567 2.230820 0
M  V30 4 N 3.988649 -2.558820 1.657165 0
M  V30 5 C 3.558621 -2.382241 0.389813 0
M  V30 6 C 3.510027 -1.069634 -0.266190 0
M  V30 7 N 2.242347 -0.368843 -0.078730 0
M  V30 8 C 2.076739 0.913223 -0.667705 0
M  V30 9 N 3.071335 1.462829 -1.380696 0
M  V30 10 C 3.018495 2.661783 -1.974896 0
M  V30 11 N 1.881013 3.362463 -1.843534 0
M  V30 12 C 0.825178 2.901654 -1.149753 0
M  V30 13 C -0.308650 3.682705 -1.060634 0
M  V30 14 C -1.335515 3.123723 -0.328168 0
M  V30 15 C -1.309460 1.897783 0.291277 0
M  V30 16 C -2.446226 1.383504 1.048704 0
M  V30 17 C -3.228619 2.319288 1.692043 0
M  V30 18 C -4.302923 1.832820 2.406087 0
M  V30 19 C -4.623388 0.498183 2.505380 0
M  V30 20 C -3.794235 -0.375479 1.834974 0
M  V30 21 C -2.679673 0.009300 1.082703 0
M  V30 22 O -4.281089 -1.667971 2.056265 0
M  V30 23 C -5.344587 -1.614731 3.014811 0
M  V30 24 O -5.621556 -0.231677 3.142197 0
M  V30 25 C -0.138882 1.175649 0.156016 0
M  V30 26 C 0.929171 1.666814 -0.559264 0
M  V30 27 C 3.139214 -3.479068 -0.344614 0
M  V30 28 N 3.161451 -4.707310 0.202697 0
M  V30 29 H 4.648187 -6.416908 2.561284 0
M  V30 30 H 2.915951 -6.346273 2.950884 0
M  V30 31 H 3.482373 -6.980370 1.320049 0
M  V30 32 H 4.359014 -3.969475 3.246086 0
M  V30 33 H 4.346180 -0.444843 0.143588 0
M  V30 34 H 3.660425 -1.143522 -1.369283 0
M  V30 35 H 1.561054 -0.890286 0.484834 0
M  V30 36 H 3.844078 3.067674 -2.540804 0
M  V30 37 H -0.395485 4.657190 -1.524554 0
M  V30 38 H -2.249166 3.731359 -0.245009 0
M  V30 39 H -3.002590 3.360119 1.631590 0
M  V30 40 H -4.938405 2.555417 2.924952 0
M  V30 41 H -2.053529 -0.706248 0.571183 0
M  V30 42 H -4.991648 -2.042285 3.993439 0
M  V30 43 H -6.263733 -2.105246 2.644317 0
M  V30 44 H -0.107398 0.210266 0.639100 0
M  V30 45 H 2.777491 -3.443814 -1.366282 0
M  V30 END ATOM
M  V30 BEGIN BOND
M  V30 1 1 1 2
M  V30 2 2 2 3
M  V30 3 1 3 4
M  V30 4 2 4 5
M  V30 5 1 5 6
M  V30 6 1 6 7
M  V30 7 1 7 8
M  V30 8 2 8 9
M  V30 9 1 9 10
M  V30 10 2 10 11
M  V30 11 1 11 12
M  V30 12 2 12 13
M  V30 13 1 13 14
M  V30 14 2 14 15
M  V30 15 1 15 16
M  V30 16 2 16 17
M  V30 17 1 17 18
M  V30 18 2 18 19
M  V30 19 1 19 20
M  V30 20 2 20 21
M  V30 21 1 20 22
M  V30 22 1 22 23
M  V30 23 1 23 24
M  V30 24 1 15 25
M  V30 25 2 25 26
M  V30 26 1 5 27
M  V30 27 2 27 28
M  V30 28 1 28 2
M  V30 29 1 26 8
M  V30 30 1 26 12
M  V30 31 1 21 16
M  V30 32 1 24 19
M  V30 33 1 1 29
M  V30 34 1 1 30
M  V30 35 1 1 31
M  V30 36 1 3 32
M  V30 37 1 6 33
M  V30 38 1 6 34
M  V30 39 1 7 35
M  V30 40 1 10 36
M  V30 41 1 13 37
M  V30 42 1 14 38
M  V30 43 1 17 39
M  V30 44 1 18 40
M  V30 45 1 21 41
M  V30 46 1 23 42
M  V30 47 1 23 43
M  V30 48 1 25 44
M  V30 49 1 27 45
M  V30 END BOND
M  V30 END CTAB
M  END
>  <Dataset>  (260) 
ChEMBL_Kinases

>  <Ligand_Instance>  (260) 
nan

>  <PDB_ID>  (260) 
nan

>  <Standardized_SMILES>  (260) 
Cc1cnc(CNc2ncnc3ccc(-c4ccc5c(c4)OCO5)cc23)cn1

>  <Name>  (260) 
nan

>  <Pocket>  (260) 
nan

>  <ATP_Site>  (260) 
nan

>  <Peripheral>  (260) 
nan

>  <Num_H_Atoms_ProtBoundConf>  (260) 
nan

>  <Num_Resolved_Atoms>  (260) 
nan

>  <Num_Not_Resolved_Atoms>  (260) 
nan

$$$$
CHEMBL1557747
     RDKit          3D

  0  0  0  0  0  0  0  0  0  0999 V3000
M  V30 BEGIN CTAB
M  V30 COUNTS 54 57 0 0 0
M  V30 BEGIN ATOM
M  V30 1 O 1.587240 -3.010890 1.997980 0
M  V30 2 C 0.805464 -2.006899 1.854564 0
M  V30 3 C 1.223777 -0.694718 1.313504 0
M  V30 4 C 0.532407 -0.277978 0.087143 0
M  V30 5 C 1.355056 -0.150827 -1.158044 0
M  V30 6 C 2.803652 0.070007 -0.949463 0
M  V30 7 N 3.229327 0.229083 0.381443 0
M  V30 8 S 3.494961 1.774888 0.976645 0
M  V30 9 O 3.873002 1.647884 2.447356 0
M  V30 10 O 4.633723 2.499051 0.313753 0
M  V30 11 C 2.036105 2.726713 0.940001 0
M  V30 12 C 1.889437 3.390805 -0.281432 0
M  V30 13 C 0.797264 4.211801 -0.531793 0
M  V30 14 C -0.167428 4.382670 0.435858 0
M  V30 15 C -0.015947 3.724557 1.637717 0
M  V30 16 C 1.061496 2.909378 1.895970 0
M  V30 17 C 2.731727 -0.765987 1.238887 0
M  V30 18 N -0.578632 -2.152942 2.243785 0
M  V30 19 C -1.716821 -1.262899 2.225743 0
M  V30 20 C -2.775408 -1.633723 1.214299 0
M  V30 21 N -2.598138 -3.065070 0.957269 0
M  V30 22 C -2.748714 -3.615971 -0.365070 0
M  V30 23 N -2.577376 -4.939582 -0.564504 0
M  V30 24 C -2.719462 -5.465231 -1.816865 0
M  V30 25 C -3.043189 -4.603211 -2.871129 0
M  V30 26 C -3.206758 -3.248749 -2.601202 0
M  V30 27 N -3.055799 -2.778590 -1.347995 0
M  V30 28 C -2.258789 -3.946633 2.086709 0
M  V30 29 C -1.032640 -3.441705 2.790946 0
M  V30 30 H 0.988747 0.037945 2.141827 0
M  V30 31 H -0.275105 -1.041299 -0.118779 0
M  V30 32 H 0.070701 0.720400 0.231951 0
M  V30 33 H 0.965146 0.648503 -1.833949 0
M  V30 34 H 1.232056 -1.086137 -1.780227 0
M  V30 35 H 3.150461 0.987257 -1.517645 0
M  V30 36 H 3.412475 -0.748959 -1.414740 0
M  V30 37 H 2.568870 3.350477 -1.134291 0
M  V30 38 H 0.630196 4.746999 -1.448732 0
M  V30 39 H -1.060193 4.979093 0.391488 0
M  V30 40 H -0.709900 3.788493 2.460474 0
M  V30 41 H 1.284096 2.348481 2.791288 0
M  V30 42 H 3.013190 -1.763297 0.829719 0
M  V30 43 H 3.107749 -0.650691 2.291754 0
M  V30 44 H -1.393551 -0.222797 1.952987 0
M  V30 45 H -2.202351 -1.221106 3.244806 0
M  V30 46 H -3.797494 -1.493164 1.630355 0
M  V30 47 H -2.635719 -1.044206 0.295439 0
M  V30 48 H -2.588908 -6.524322 -2.013315 0
M  V30 49 H -3.163293 -4.993765 -3.882589 0
M  V30 50 H -3.458167 -2.544789 -3.389107 0
M  V30 51 H -3.117483 -3.862025 2.786261 0
M  V30 52 H -2.202703 -4.977799 1.738952 0
M  V30 53 H -1.229914 -3.258255 3.870585 0
M  V30 54 H -0.257485 -4.203720 2.732116 0
M  V30 END ATOM
M  V30 BEGIN BOND
M  V30 1 2 1 2
M  V30 2 1 2 3
M  V30 3 1 3 4
M  V30 4 1 4 5
M  V30 5 1 5 6
M  V30 6 1 6 7
M  V30 7 1 7 8
M  V30 8 2 8 9
M  V30 9 2 8 10
M  V30 10 1 8 11
M  V30 11 2 11 12
M  V30 12 1 12 13
M  V30 13 2 13 14
M  V30 14 1 14 15
M  V30 15 2 15 16
M  V30 16 1 7 17
M  V30 17 1 2 18
M  V30 18 1 18 19
M  V30 19 1 19 20
M  V30 20 1 20 21
M  V30 21 1 21 22
M  V30 22 2 22 23
M  V30 23 1 23 24
M  V30 24 2 24 25
M  V30 25 1 25 26
M  V30 26 2 26 27
M  V30 27 1 21 28
M  V30 28 1 28 29
M  V30 29 1 17 3
M  V30 30 1 29 18
M  V30 31 1 16 11
M  V30 32 1 27 22
M  V30 33 1 3 30
M  V30 34 1 4 31
M  V30 35 1 4 32
M  V30 36 1 5 33
M  V30 37 1 5 34
M  V30 38 1 6 35
M  V30 39 1 6 36
M  V30 40 1 12 37
M  V30 41 1 13 38
M  V30 42 1 14 39
M  V30 43 1 15 40
M  V30 44 1 16 41
M  V30 45 1 17 42
M  V30 46 1 17 43
M  V30 47 1 19 44
M  V30 48 1 19 45
M  V30 49 1 20 46
M  V30 50 1 20 47
M  V30 51 1 24 48
M  V30 52 1 25 49
M  V30 53 1 26 50
M  V30 54 1 28 51
M  V30 55 1 28 52
M  V30 56 1 29 53
M  V30 57 1 29 54
M  V30 END BOND
M  V30 END CTAB
M  END
>  <Dataset>  (261) 
ChEMBL_Kinases

>  <Ligand_Instance>  (261) 
nan

>  <PDB_ID>  (261) 
nan

>  <Standardized_SMILES>  (261) 
O=C(C1CCCN(S(=O)(=O)c2ccccc2)C1)N1CCN(c2ncccn2)CC1

>  <Name>  (261) 
nan

>  <Pocket>  (261) 
nan

>  <ATP_Site>  (261) 
nan

>  <Peripheral>  (261) 
nan

>  <Num_H_Atoms_ProtBoundConf>  (261) 
nan

>  <Num_Resolved_Atoms>  (261) 
nan

>  <Num_Not_Resolved_Atoms>  (261) 
nan

$$$$
CHEMBL1557669
     RDKit          3D

  0  0  0  0  0  0  0  0  0  0999 V3000
M  V30 BEGIN CTAB
M  V30 COUNTS 32 35 0 0 0
M  V30 BEGIN ATOM
M  V30 1 F -2.345972 -4.075426 4.221425 0
M  V30 2 C -1.390718 -3.380435 3.553449 0
M  V30 3 C -0.390395 -4.031376 2.875274 0
M  V30 4 C 0.556596 -3.244701 2.212419 0
M  V30 5 C 0.515679 -1.869965 2.220274 0
M  V30 6 N 1.481899 -1.059721 1.561771 0
M  V30 7 C 1.409134 0.352928 1.427441 0
M  V30 8 N 1.849462 1.061538 2.460178 0
M  V30 9 C 1.873289 2.382723 2.529848 0
M  V30 10 N 1.414644 3.022247 1.468096 0
M  V30 11 C 0.946562 2.354788 0.372391 0
M  V30 12 S 0.251205 2.901171 -1.248727 0
M  V30 13 C -0.003408 1.272790 -1.861337 0
M  V30 14 C 0.416999 0.457827 -0.887177 0
M  V30 15 C 0.918047 0.953547 0.290231 0
M  V30 16 C 0.181196 -0.900395 -1.474694 0
M  V30 17 C -0.929371 -0.737777 -2.486013 0
M  V30 18 C -0.518761 0.616923 -3.068645 0
M  V30 19 C -0.509803 -1.240387 2.916249 0
M  V30 20 C -1.473140 -1.985297 3.589170 0
M  V30 21 F -2.450635 -1.284434 4.251272 0
M  V30 22 H -0.334539 -5.101004 2.851002 0
M  V30 23 H 1.368115 -3.736149 1.660132 0
M  V30 24 H 2.295927 -1.556991 1.152169 0
M  V30 25 H 2.193564 3.087546 3.279976 0
M  V30 26 H 1.095599 -1.265439 -1.987852 0
M  V30 27 H -0.195701 -1.614441 -0.724313 0
M  V30 28 H -1.927875 -0.610391 -2.041945 0
M  V30 29 H -0.886969 -1.528635 -3.246274 0
M  V30 30 H 0.199092 0.410659 -3.859959 0
M  V30 31 H -1.386925 1.143617 -3.509242 0
M  V30 32 H -0.524912 -0.139638 2.910785 0
M  V30 END ATOM
M  V30 BEGIN BOND
M  V30 1 1 1 2
M  V30 2 2 2 3
M  V30 3 1 3 4
M  V30 4 2 4 5
M  V30 5 1 5 6
M  V30 6 1 6 7
M  V30 7 2 7 8
M  V30 8 1 8 9
M  V30 9 2 9 10
M  V30 10 1 10 11
M  V30 11 1 11 12
M  V30 12 1 12 13
M  V30 13 2 13 14
M  V30 14 1 14 15
M  V30 15 1 14 16
M  V30 16 1 16 17
M  V30 17 1 17 18
M  V30 18 1 5 19
M  V30 19 2 19 20
M  V30 20 1 20 21
M  V30 21 1 20 2
M  V30 22 1 15 7
M  V30 23 2 15 11
M  V30 24 1 18 13
M  V30 25 1 3 22
M  V30 26 1 4 23
M  V30 27 1 6 24
M  V30 28 1 9 25
M  V30 29 1 16 26
M  V30 30 1 16 27
M  V30 31 1 17 28
M  V30 32 1 17 29
M  V30 33 1 18 30
M  V30 34 1 18 31
M  V30 35 1 19 32
M  V30 END BOND
M  V30 END CTAB
M  END
>  <Dataset>  (262) 
ChEMBL_Kinases

>  <Ligand_Instance>  (262) 
nan

>  <PDB_ID>  (262) 
nan

>  <Standardized_SMILES>  (262) 
Fc1ccc(Nc2ncnc3sc4c(c23)CCC4)cc1F

>  <Name>  (262) 
nan

>  <Pocket>  (262) 
nan

>  <ATP_Site>  (262) 
nan

>  <Peripheral>  (262) 
nan

>  <Num_H_Atoms_ProtBoundConf>  (262) 
nan

>  <Num_Resolved_Atoms>  (262) 
nan

>  <Num_Not_Resolved_Atoms>  (262) 
nan

$$$$
CHEMBL1557602
     RDKit          3D

  0  0  0  0  0  0  0  0  0  0999 V3000
M  V30 BEGIN CTAB
M  V30 COUNTS 43 46 0 0 0
M  V30 BEGIN ATOM
M  V30 1 O 1.566205 -0.998453 2.692915 0
M  V30 2 C 2.080494 -0.449806 1.692842 0
M  V30 3 C 3.484271 -0.679695 1.368731 0
M  V30 4 C 4.246856 -1.506794 2.170570 0
M  V30 5 C 5.571325 -1.712839 1.849646 0
M  V30 6 C 6.196214 -1.127516 0.747729 0
M  V30 7 C 5.376037 -0.313510 -0.009442 0
M  V30 8 C 5.965662 0.291618 -1.122770 0
M  V30 9 C 5.182351 1.124239 -1.922797 0
M  V30 10 C 3.850127 1.382786 -1.671422 0
M  V30 11 C 3.302602 0.764203 -0.558681 0
M  V30 12 C 4.044534 -0.067629 0.259230 0
M  V30 13 C 1.891442 1.012829 -0.257272 0
M  V30 14 O 1.142017 1.758851 -0.952229 0
M  V30 15 N 1.265680 0.398638 0.885245 0
M  V30 16 C -0.151271 0.638882 1.201004 0
M  V30 17 C -0.964641 -0.404602 0.496728 0
M  V30 18 C -2.451183 -0.289119 0.725604 0
M  V30 19 C -3.099696 -1.413119 -0.054834 0
M  V30 20 C -4.596500 -1.421062 0.082493 0
M  V30 21 C -5.037284 -1.584201 1.485525 0
M  V30 22 N -6.371626 -1.602349 1.702057 0
M  V30 23 N -6.568478 -1.754697 3.002121 0
M  V30 24 C -5.364985 -1.832143 3.601667 0
M  V30 25 S -4.750525 -2.033966 5.282644 0
M  V30 26 O -4.470158 -1.726979 2.668583 0
M  V30 27 H 3.846910 -2.001489 3.043022 0
M  V30 28 H 6.176323 -2.364652 2.479709 0
M  V30 29 H 7.234199 -1.297105 0.507512 0
M  V30 30 H 7.014335 0.157969 -1.417948 0
M  V30 31 H 5.650245 1.593898 -2.791596 0
M  V30 32 H 3.274023 2.034504 -2.314617 0
M  V30 33 H -0.466320 1.661844 0.967152 0
M  V30 34 H -0.209709 0.508281 2.309728 0
M  V30 35 H -0.750796 -0.344425 -0.576645 0
M  V30 36 H -0.584475 -1.404776 0.823601 0
M  V30 37 H -2.733265 -0.397579 1.773715 0
M  V30 38 H -2.780520 0.649853 0.257887 0
M  V30 39 H -2.674212 -2.398231 0.227423 0
M  V30 40 H -2.893912 -1.296055 -1.147820 0
M  V30 41 H -4.988310 -2.250566 -0.516076 0
M  V30 42 H -5.014799 -0.468118 -0.278590 0
M  V30 43 H -5.464217 -1.216305 6.176444 0
M  V30 END ATOM
M  V30 BEGIN BOND
M  V30 1 2 1 2
M  V30 2 1 2 3
M  V30 3 1 3 4
M  V30 4 2 4 5
M  V30 5 1 5 6
M  V30 6 2 6 7
M  V30 7 1 7 8
M  V30 8 2 8 9
M  V30 9 1 9 10
M  V30 10 2 10 11
M  V30 11 1 11 12
M  V30 12 1 11 13
M  V30 13 2 13 14
M  V30 14 1 13 15
M  V30 15 1 15 16
M  V30 16 1 16 17
M  V30 17 1 17 18
M  V30 18 1 18 19
M  V30 19 1 19 20
M  V30 20 1 20 21
M  V30 21 2 21 22
M  V30 22 1 22 23
M  V30 23 2 23 24
M  V30 24 1 24 25
M  V30 25 1 24 26
M  V30 26 1 15 2
M  V30 27 1 26 21
M  V30 28 2 12 3
M  V30 29 1 12 7
M  V30 30 1 4 27
M  V30 31 1 5 28
M  V30 32 1 6 29
M  V30 33 1 8 30
M  V30 34 1 9 31
M  V30 35 1 10 32
M  V30 36 1 16 33
M  V30 37 1 16 34
M  V30 38 1 17 35
M  V30 39 1 17 36
M  V30 40 1 18 37
M  V30 41 1 18 38
M  V30 42 1 19 39
M  V30 43 1 19 40
M  V30 44 1 20 41
M  V30 45 1 20 42
M  V30 46 1 25 43
M  V30 END BOND
M  V30 END CTAB
M  END
>  <Dataset>  (263) 
ChEMBL_Kinases

>  <Ligand_Instance>  (263) 
nan

>  <PDB_ID>  (263) 
nan

>  <Standardized_SMILES>  (263) 
O=C1c2cccc3cccc(c23)C(=O)N1CCCCCc1nnc(S)o1

>  <Name>  (263) 
nan

>  <Pocket>  (263) 
nan

>  <ATP_Site>  (263) 
nan

>  <Peripheral>  (263) 
nan

>  <Num_H_Atoms_ProtBoundConf>  (263) 
nan

>  <Num_Resolved_Atoms>  (263) 
nan

>  <Num_Not_Resolved_Atoms>  (263) 
nan

$$$$
CHEMBL1557564
     RDKit          3D

  0  0  0  0  0  0  0  0  0  0999 V3000
M  V30 BEGIN CTAB
M  V30 COUNTS 47 49 0 0 0
M  V30 BEGIN ATOM
M  V30 1 C -1.921278 -4.647519 -0.935795 0
M  V30 2 C -0.792105 -3.997358 -0.155681 0
M  V30 3 C 0.498774 -4.022937 -0.926859 0
M  V30 4 C 1.609876 -3.366474 -0.123210 0
M  V30 5 C 1.287406 -1.921828 0.196028 0 CFG=2
M  V30 6 C 2.411173 -1.240877 1.014698 0
M  V30 7 C 1.030323 -1.527790 1.581816 0 CFG=1
M  V30 8 C 0.186041 -0.375391 2.004578 0
M  V30 9 N 0.701237 0.893165 1.480964 0
M  V30 10 C 1.235009 1.932519 2.326160 0
M  V30 11 O 1.239505 1.698123 3.560590 0
M  V30 12 C 1.732350 3.173214 1.739325 0
M  V30 13 C 1.763633 3.509273 0.401217 0
M  V30 14 C 2.265617 4.725416 -0.009134 0
M  V30 15 C 2.753381 5.645525 0.911290 0
M  V30 16 N 2.710646 5.291911 2.207354 0
M  V30 17 C 2.228988 4.120306 2.624838 0
M  V30 18 C -1.250544 -0.523384 1.789225 0
M  V30 19 C -1.699447 -0.171421 0.511977 0
M  V30 20 C -3.044012 -0.275350 0.205190 0
M  V30 21 C -3.945495 -0.722765 1.147191 0
M  V30 22 Cl -5.655554 -0.874016 0.814895 0
M  V30 23 C -3.495356 -1.069044 2.407742 0
M  V30 24 C -2.165624 -0.971230 2.726250 0
M  V30 25 H -2.732537 -4.915888 -0.225456 0
M  V30 26 H -2.315623 -3.946135 -1.689878 0
M  V30 27 H -1.511916 -5.557994 -1.420489 0
M  V30 28 H -0.602826 -4.559898 0.785108 0
M  V30 29 H -1.036662 -2.970374 0.150934 0
M  V30 30 H 0.393389 -3.471778 -1.891914 0
M  V30 31 H 0.795292 -5.045819 -1.163691 0
M  V30 32 H 2.571156 -3.463274 -0.645529 0
M  V30 33 H 1.732974 -3.980387 0.816707 0
M  V30 34 H 0.917493 -1.358658 -0.681807 0
M  V30 35 H 2.656431 -0.220510 0.701364 0
M  V30 36 H 3.275903 -1.827798 1.319591 0
M  V30 37 H 1.068193 -2.383375 2.319662 0
M  V30 38 H 0.330758 -0.269170 3.120465 0
M  V30 39 H 0.654055 0.992196 0.442737 0
M  V30 40 H 1.374565 2.762788 -0.269546 0
M  V30 41 H 2.272035 4.949823 -1.067669 0
M  V30 42 H 3.124351 6.568208 0.487451 0
M  V30 43 H 2.242139 3.936023 3.704162 0
M  V30 44 H -1.078588 0.188629 -0.294535 0
M  V30 45 H -3.424398 -0.014075 -0.764815 0
M  V30 46 H -4.107827 -1.427478 3.213232 0
M  V30 47 H -1.692813 -1.211394 3.674863 0
M  V30 END ATOM
M  V30 BEGIN BOND
M  V30 1 1 1 2
M  V30 2 1 2 3
M  V30 3 1 3 4
M  V30 4 1 4 5
M  V30 5 1 5 6
M  V30 6 1 6 7
M  V30 7 1 7 8
M  V30 8 1 8 9
M  V30 9 1 9 10
M  V30 10 2 10 11
M  V30 11 1 10 12
M  V30 12 2 12 13
M  V30 13 1 13 14
M  V30 14 2 14 15
M  V30 15 1 15 16
M  V30 16 2 16 17
M  V30 17 1 8 18
M  V30 18 2 18 19
M  V30 19 1 19 20
M  V30 20 2 20 21
M  V30 21 1 21 22
M  V30 22 1 21 23
M  V30 23 2 23 24
M  V30 24 1 7 5
M  V30 25 1 17 12
M  V30 26 1 24 18
M  V30 27 1 1 25
M  V30 28 1 1 26
M  V30 29 1 1 27
M  V30 30 1 2 28
M  V30 31 1 2 29
M  V30 32 1 3 30
M  V30 33 1 3 31
M  V30 34 1 4 32
M  V30 35 1 4 33
M  V30 36 1 5 34 CFG=3
M  V30 37 1 6 35
M  V30 38 1 6 36
M  V30 39 1 7 37 CFG=1
M  V30 40 1 8 38
M  V30 41 1 9 39
M  V30 42 1 13 40
M  V30 43 1 14 41
M  V30 44 1 15 42
M  V30 45 1 17 43
M  V30 46 1 19 44
M  V30 47 1 20 45
M  V30 48 1 23 46
M  V30 49 1 24 47
M  V30 END BOND
M  V30 END CTAB
M  END
>  <Dataset>  (264) 
ChEMBL_Kinases

>  <Ligand_Instance>  (264) 
nan

>  <PDB_ID>  (264) 
nan

>  <Standardized_SMILES>  (264) 
CCCC[C@@H]1C[C@H]1C(NC(=O)c1cccnc1)c1ccc(Cl)cc1

>  <Name>  (264) 
nan

>  <Pocket>  (264) 
nan

>  <ATP_Site>  (264) 
nan

>  <Peripheral>  (264) 
nan

>  <Num_H_Atoms_ProtBoundConf>  (264) 
nan

>  <Num_Resolved_Atoms>  (264) 
nan

>  <Num_Not_Resolved_Atoms>  (264) 
nan

$$$$
CHEMBL1557298
     RDKit          3D

  0  0  0  0  0  0  0  0  0  0999 V3000
M  V30 BEGIN CTAB
M  V30 COUNTS 50 55 0 0 0
M  V30 BEGIN ATOM
M  V30 1 C 2.048849 -2.168734 5.392681 0
M  V30 2 N 2.239249 -1.194770 4.486407 0
M  V30 3 C 1.613593 -1.150275 3.301075 0
M  V30 4 N 1.852090 -0.094546 2.376459 0
M  V30 5 C 2.802613 0.930860 2.774993 0
M  V30 6 C 2.914187 1.928331 1.696272 0
M  V30 7 C 3.867818 1.728565 0.716308 0
M  V30 8 C 4.051933 2.596903 -0.330516 0
M  V30 9 C 3.272715 3.735289 -0.451976 0
M  V30 10 C 2.309865 3.941472 0.533234 0
M  V30 11 C 2.122886 3.064780 1.591493 0
M  V30 12 O 1.664212 5.137694 0.193344 0
M  V30 13 C 1.945672 5.405045 -1.181740 0
M  V30 14 O 3.215899 4.781178 -1.371413 0
M  V30 15 C 0.746148 -2.199379 3.082879 0
M  V30 16 C 0.047962 -2.255964 1.895943 0
M  V30 17 C -0.846675 -3.251142 1.559084 0
M  V30 18 C -1.568813 -3.275862 0.287436 0
M  V30 19 C -1.966856 -4.415107 -0.382303 0
M  V30 20 C -2.649592 -4.316736 -1.589023 0
M  V30 21 C -2.935723 -3.093060 -2.128131 0
M  V30 22 C -2.547385 -1.916792 -1.476535 0
M  V30 23 C -1.869816 -2.043941 -0.278100 0
M  V30 24 O -2.881420 -0.745444 -2.098621 0
M  V30 25 C -4.017478 -0.582131 -2.925090 0
M  V30 26 C -4.433413 -1.836752 -3.625177 0
M  V30 27 O -3.613617 -2.947934 -3.327655 0
M  V30 28 C -1.068444 -4.277184 2.475684 0
M  V30 29 C -0.384331 -4.251129 3.676400 0
M  V30 30 C 0.500397 -3.230944 3.963316 0
M  V30 31 N 1.178354 -3.188136 5.130991 0
M  V30 32 H 2.589402 -2.143847 6.335486 0
M  V30 33 H 1.399248 -0.005104 1.445152 0
M  V30 34 H 2.515924 1.396467 3.737570 0
M  V30 35 H 3.821695 0.493580 2.950690 0
M  V30 36 H 4.508835 0.864106 0.748163 0
M  V30 37 H 4.822550 2.394648 -1.083874 0
M  V30 38 H 1.383926 3.220654 2.350013 0
M  V30 39 H 2.027616 6.486249 -1.399885 0
M  V30 40 H 1.190824 4.903567 -1.850788 0
M  V30 41 H 0.153350 -1.508082 1.126521 0
M  V30 42 H -1.717424 -5.355928 0.084011 0
M  V30 43 H -2.955599 -5.205555 -2.103300 0
M  V30 44 H -1.598663 -1.078062 0.172969 0
M  V30 45 H -4.842941 -0.253444 -2.259582 0
M  V30 46 H -3.879532 0.256011 -3.642601 0
M  V30 47 H -5.491946 -2.114152 -3.408592 0
M  V30 48 H -4.389669 -1.705876 -4.737993 0
M  V30 49 H -1.749762 -5.091777 2.291960 0
M  V30 50 H -0.497192 -5.009048 4.445626 0
M  V30 END ATOM
M  V30 BEGIN BOND
M  V30 1 2 1 2
M  V30 2 1 2 3
M  V30 3 1 3 4
M  V30 4 1 4 5
M  V30 5 1 5 6
M  V30 6 2 6 7
M  V30 7 1 7 8
M  V30 8 2 8 9
M  V30 9 1 9 10
M  V30 10 2 10 11
M  V30 11 1 10 12
M  V30 12 1 12 13
M  V30 13 1 13 14
M  V30 14 2 3 15
M  V30 15 1 15 16
M  V30 16 2 16 17
M  V30 17 1 17 18
M  V30 18 2 18 19
M  V30 19 1 19 20
M  V30 20 2 20 21
M  V30 21 1 21 22
M  V30 22 2 22 23
M  V30 23 1 22 24
M  V30 24 1 24 25
M  V30 25 1 25 26
M  V30 26 1 26 27
M  V30 27 1 17 28
M  V30 28 2 28 29
M  V30 29 1 29 30
M  V30 30 2 30 31
M  V30 31 1 31 1
M  V30 32 1 11 6
M  V30 33 1 30 15
M  V30 34 1 14 9
M  V30 35 1 23 18
M  V30 36 1 27 21
M  V30 37 1 1 32
M  V30 38 1 4 33
M  V30 39 1 5 34
M  V30 40 1 5 35
M  V30 41 1 7 36
M  V30 42 1 8 37
M  V30 43 1 11 38
M  V30 44 1 13 39
M  V30 45 1 13 40
M  V30 46 1 16 41
M  V30 47 1 19 42
M  V30 48 1 20 43
M  V30 49 1 23 44
M  V30 50 1 25 45
M  V30 51 1 25 46
M  V30 52 1 26 47
M  V30 53 1 26 48
M  V30 54 1 28 49
M  V30 55 1 29 50
M  V30 END BOND
M  V30 END CTAB
M  END
>  <Dataset>  (265) 
ChEMBL_Kinases

>  <Ligand_Instance>  (265) 
nan

>  <PDB_ID>  (265) 
nan

>  <Standardized_SMILES>  (265) 
c1nc(NCc2ccc3c(c2)OCO3)c2cc(-c3ccc4c(c3)OCCO4)ccc2n1

>  <Name>  (265) 
nan

>  <Pocket>  (265) 
nan

>  <ATP_Site>  (265) 
nan

>  <Peripheral>  (265) 
nan

>  <Num_H_Atoms_ProtBoundConf>  (265) 
nan

>  <Num_Resolved_Atoms>  (265) 
nan

>  <Num_Not_Resolved_Atoms>  (265) 
nan

$$$$
CHEMBL1557234
     RDKit          3D

  0  0  0  0  0  0  0  0  0  0999 V3000
M  V30 BEGIN CTAB
M  V30 COUNTS 58 62 0 0 0
M  V30 BEGIN ATOM
M  V30 1 O 2.060665 -3.273983 2.132976 0
M  V30 2 C 1.390554 -2.198724 2.150317 0
M  V30 3 C 2.011463 -1.115588 2.733258 0
M  V30 4 C 3.391603 -1.239979 3.299643 0
M  V30 5 C 4.345794 -1.253435 2.101184 0
M  V30 6 C 4.208423 0.003185 1.322274 0
M  V30 7 C 5.048293 1.024582 1.724830 0
M  V30 8 C 4.963997 2.223371 1.032903 0
M  V30 9 C 4.074413 2.380923 -0.013972 0
M  V30 10 C 3.242638 1.358336 -0.407173 0
M  V30 11 C 3.330425 0.168130 0.284275 0
M  V30 12 N 1.321563 0.061445 2.771343 0
M  V30 13 C 0.088553 0.082152 2.239453 0
M  V30 14 C -0.603551 1.273156 2.281741 0
M  V30 15 N -1.841800 1.348758 1.764506 0
M  V30 16 C -2.413252 0.247103 1.197944 0
M  V30 17 N -3.722407 0.369104 0.663969 0
M  V30 18 C -4.495598 -0.687277 0.042743 0
M  V30 19 C -5.571829 -0.125623 -0.843946 0
M  V30 20 N -5.125110 1.037664 -1.579074 0
M  V30 21 C -4.599303 2.079240 -0.750461 0
M  V30 22 C -4.435497 1.631363 0.696313 0
M  V30 23 N -1.751715 -0.911410 1.151601 0
M  V30 24 C -0.497586 -1.027856 1.663963 0
M  V30 25 N 0.155355 -2.211409 1.607765 0
M  V30 26 C -0.425933 -3.383948 1.014946 0
M  V30 27 C -0.142061 -3.529072 -0.434747 0
M  V30 28 C 0.972979 -4.211182 -0.887127 0
M  V30 29 C 1.299849 -4.385838 -2.205784 0
M  V30 30 C 0.474411 -3.853048 -3.179498 0
M  V30 31 F 0.687875 -3.956829 -4.512095 0
M  V30 32 C -0.650083 -3.163989 -2.782631 0
M  V30 33 C -0.933994 -3.016433 -1.440958 0
M  V30 34 H 3.617064 -0.456620 4.021611 0
M  V30 35 H 3.465639 -2.246605 3.758534 0
M  V30 36 H 3.968752 -2.064826 1.427889 0
M  V30 37 H 5.369183 -1.477739 2.402034 0
M  V30 38 H 5.766867 0.945485 2.546297 0
M  V30 39 H 5.599088 3.040851 1.314587 0
M  V30 40 H 3.971249 3.306581 -0.589575 0
M  V30 41 H 2.536731 1.431626 -1.211967 0
M  V30 42 H 2.706949 -0.662247 0.021631 0
M  V30 43 H -0.159765 2.171802 2.734109 0
M  V30 44 H -4.977299 -1.347092 0.791697 0
M  V30 45 H -3.830174 -1.285854 -0.604576 0
M  V30 46 H -5.824356 -0.904808 -1.600751 0
M  V30 47 H -6.503135 0.092494 -0.281046 0
M  V30 48 H -4.416566 0.747621 -2.291703 0
M  V30 49 H -5.324840 2.933202 -0.815830 0
M  V30 50 H -3.632258 2.471879 -1.110944 0
M  V30 51 H -3.923053 2.424777 1.258887 0
M  V30 52 H -5.473899 1.453387 1.068830 0
M  V30 53 H -1.544669 -3.259234 1.088146 0
M  V30 54 H -0.190444 -4.322547 1.559504 0
M  V30 55 H 1.677664 -4.663422 -0.205973 0
M  V30 56 H 2.169450 -4.917745 -2.554196 0
M  V30 57 H -1.339095 -2.721218 -3.510926 0
M  V30 58 H -1.823609 -2.470489 -1.169482 0
M  V30 END ATOM
M  V30 BEGIN BOND
M  V30 1 2 1 2
M  V30 2 1 2 3
M  V30 3 1 3 4
M  V30 4 1 4 5
M  V30 5 1 5 6
M  V30 6 2 6 7
M  V30 7 1 7 8
M  V30 8 2 8 9
M  V30 9 1 9 10
M  V30 10 2 10 11
M  V30 11 2 3 12
M  V30 12 1 12 13
M  V30 13 2 13 14
M  V30 14 1 14 15
M  V30 15 2 15 16
M  V30 16 1 16 17
M  V30 17 1 17 18
M  V30 18 1 18 19
M  V30 19 1 19 20
M  V30 20 1 20 21
M  V30 21 1 21 22
M  V30 22 1 16 23
M  V30 23 2 23 24
M  V30 24 1 24 25
M  V30 25 1 25 26
M  V30 26 1 26 27
M  V30 27 2 27 28
M  V30 28 1 28 29
M  V30 29 2 29 30
M  V30 30 1 30 31
M  V30 31 1 30 32
M  V30 32 2 32 33
M  V30 33 1 25 2
M  V30 34 1 33 27
M  V30 35 1 11 6
M  V30 36 1 24 13
M  V30 37 1 22 17
M  V30 38 1 4 34
M  V30 39 1 4 35
M  V30 40 1 5 36
M  V30 41 1 5 37
M  V30 42 1 7 38
M  V30 43 1 8 39
M  V30 44 1 9 40
M  V30 45 1 10 41
M  V30 46 1 11 42
M  V30 47 1 14 43
M  V30 48 1 18 44
M  V30 49 1 18 45
M  V30 50 1 19 46
M  V30 51 1 19 47
M  V30 52 1 20 48
M  V30 53 1 21 49
M  V30 54 1 21 50
M  V30 55 1 22 51
M  V30 56 1 22 52
M  V30 57 1 26 53
M  V30 58 1 26 54
M  V30 59 1 28 55
M  V30 60 1 29 56
M  V30 61 1 32 57
M  V30 62 1 33 58
M  V30 END BOND
M  V30 END CTAB
M  END
>  <Dataset>  (266) 
ChEMBL_Kinases

>  <Ligand_Instance>  (266) 
nan

>  <PDB_ID>  (266) 
nan

>  <Standardized_SMILES>  (266) 
O=c1c(CCc2ccccc2)nc2cnc(N3CCNCC3)nc2n1Cc1ccc(F)cc1

>  <Name>  (266) 
nan

>  <Pocket>  (266) 
nan

>  <ATP_Site>  (266) 
nan

>  <Peripheral>  (266) 
nan

>  <Num_H_Atoms_ProtBoundConf>  (266) 
nan

>  <Num_Resolved_Atoms>  (266) 
nan

>  <Num_Not_Resolved_Atoms>  (266) 
nan

$$$$
CHEMBL1557199
     RDKit          3D

  0  0  0  0  0  0  0  0  0  0999 V3000
M  V30 BEGIN CTAB
M  V30 COUNTS 61 65 0 0 0
M  V30 BEGIN ATOM
M  V30 1 C 5.968003 2.004095 4.618163 0
M  V30 2 C 4.497226 1.828537 4.887469 0
M  V30 3 O 3.953236 0.884814 3.992999 0
M  V30 4 C 3.978470 1.052915 2.629826 0
M  V30 5 O 4.539288 2.145074 2.324882 0
M  V30 6 N 3.455274 0.141546 1.660653 0
M  V30 7 C 3.600415 0.530139 0.295688 0
M  V30 8 C 2.689561 -0.177270 -0.640383 0
M  V30 9 C 1.610835 -0.967666 0.060036 0
M  V30 10 N 0.487356 -0.198486 0.484586 0
M  V30 11 C 0.279421 0.918822 1.351891 0
M  V30 12 C -1.183600 1.255864 1.245837 0
M  V30 13 C -1.780441 2.317610 1.918286 0
M  V30 14 C -3.134266 2.533595 1.774430 0
M  V30 15 C -3.837086 1.673523 0.957844 0
M  V30 16 C -3.241295 0.618384 0.288602 0
M  V30 17 C -3.932956 -0.318508 -0.584727 0
M  V30 18 O -4.479662 -1.032826 0.300266 0
M  V30 19 N -3.990847 -0.416543 -1.988654 0
M  V30 20 C -4.774247 -1.472318 -2.610839 0
M  V30 21 C -4.066231 -2.780378 -2.536650 0
M  V30 22 C -3.205706 -3.038674 -3.584350 0
M  V30 23 C -2.459884 -4.197620 -3.702398 0
M  V30 24 C -2.562396 -5.170460 -2.724430 0
M  V30 25 C -3.430848 -4.915440 -1.661096 0
M  V30 26 C -4.162499 -3.756740 -1.566747 0
M  V30 27 O -3.349017 -6.021052 -0.840124 0
M  V30 28 C -2.195395 -6.770253 -1.179535 0
M  V30 29 O -1.969251 -6.424863 -2.531440 0
M  V30 30 C -1.887520 0.394555 0.427040 0
M  V30 31 C -0.821243 -0.524228 -0.050530 0
M  V30 32 O -1.273178 -1.423290 -0.842270 0
M  V30 33 C 2.235515 -1.844086 1.096406 0
M  V30 34 C 2.859161 -1.046120 2.197090 0
M  V30 35 H 6.231295 3.030562 4.293550 0
M  V30 36 H 6.263175 1.338245 3.775812 0
M  V30 37 H 6.610234 1.705833 5.479238 0
M  V30 38 H 4.392292 1.422003 5.938605 0
M  V30 39 H 3.957606 2.799715 4.879076 0
M  V30 40 H 4.681908 0.455164 -0.013642 0
M  V30 41 H 3.370772 1.633622 0.243153 0
M  V30 42 H 3.279399 -0.905134 -1.224408 0
M  V30 43 H 2.264597 0.534892 -1.373286 0
M  V30 44 H 1.185039 -1.731745 -0.695150 0
M  V30 45 H 0.880872 1.830302 1.068215 0
M  V30 46 H 0.495402 0.755059 2.412644 0
M  V30 47 H -1.267388 3.006283 2.558254 0
M  V30 48 H -3.667699 3.336863 2.263117 0
M  V30 49 H -4.919068 1.799812 0.808122 0
M  V30 50 H -3.411101 0.357382 -2.409884 0
M  V30 51 H -5.710851 -1.595786 -1.998411 0
M  V30 52 H -5.099379 -1.211230 -3.616866 0
M  V30 53 H -3.032624 -2.347113 -4.421441 0
M  V30 54 H -1.779922 -4.431006 -4.511132 0
M  V30 55 H -4.847832 -3.523658 -0.761462 0
M  V30 56 H -2.347129 -7.855477 -1.031973 0
M  V30 57 H -1.314953 -6.485834 -0.543177 0
M  V30 58 H 3.064863 -2.396823 0.569623 0
M  V30 59 H 1.500052 -2.580657 1.517939 0
M  V30 60 H 2.153760 -0.740179 3.006037 0
M  V30 61 H 3.622674 -1.664360 2.755060 0
M  V30 END ATOM
M  V30 BEGIN BOND
M  V30 1 1 1 2
M  V30 2 1 2 3
M  V30 3 1 3 4
M  V30 4 2 4 5
M  V30 5 1 4 6
M  V30 6 1 6 7
M  V30 7 1 7 8
M  V30 8 1 8 9
M  V30 9 1 9 10
M  V30 10 1 10 11
M  V30 11 1 11 12
M  V30 12 2 12 13
M  V30 13 1 13 14
M  V30 14 2 14 15
M  V30 15 1 15 16
M  V30 16 1 16 17
M  V30 17 2 17 18
M  V30 18 1 17 19
M  V30 19 1 19 20
M  V30 20 1 20 21
M  V30 21 2 21 22
M  V30 22 1 22 23
M  V30 23 2 23 24
M  V30 24 1 24 25
M  V30 25 2 25 26
M  V30 26 1 25 27
M  V30 27 1 27 28
M  V30 28 1 28 29
M  V30 29 2 16 30
M  V30 30 1 30 31
M  V30 31 2 31 32
M  V30 32 1 9 33
M  V30 33 1 33 34
M  V30 34 1 34 6
M  V30 35 1 31 10
M  V30 36 1 30 12
M  V30 37 1 26 21
M  V30 38 1 29 24
M  V30 39 1 1 35
M  V30 40 1 1 36
M  V30 41 1 1 37
M  V30 42 1 2 38
M  V30 43 1 2 39
M  V30 44 1 7 40
M  V30 45 1 7 41
M  V30 46 1 8 42
M  V30 47 1 8 43
M  V30 48 1 9 44
M  V30 49 1 11 45
M  V30 50 1 11 46
M  V30 51 1 13 47
M  V30 52 1 14 48
M  V30 53 1 15 49
M  V30 54 1 19 50
M  V30 55 1 20 51
M  V30 56 1 20 52
M  V30 57 1 22 53
M  V30 58 1 23 54
M  V30 59 1 26 55
M  V30 60 1 28 56
M  V30 61 1 28 57
M  V30 62 1 33 58
M  V30 63 1 33 59
M  V30 64 1 34 60
M  V30 65 1 34 61
M  V30 END BOND
M  V30 END CTAB
M  END
>  <Dataset>  (267) 
ChEMBL_Kinases

>  <Ligand_Instance>  (267) 
nan

>  <PDB_ID>  (267) 
nan

>  <Standardized_SMILES>  (267) 
CCOC(=O)N1CCC(N2Cc3cccc(C(=O)NCc4ccc5c(c4)OCO5)c3C2=O)CC1

>  <Name>  (267) 
nan

>  <Pocket>  (267) 
nan

>  <ATP_Site>  (267) 
nan

>  <Peripheral>  (267) 
nan

>  <Num_H_Atoms_ProtBoundConf>  (267) 
nan

>  <Num_Resolved_Atoms>  (267) 
nan

>  <Num_Not_Resolved_Atoms>  (267) 
nan

$$$$
CHEMBL1557129
     RDKit          3D

  0  0  0  0  0  0  0  0  0  0999 V3000
M  V30 BEGIN CTAB
M  V30 COUNTS 65 71 0 0 0
M  V30 BEGIN ATOM
M  V30 1 C 3.932350 2.359625 -0.498233 0
M  V30 2 C 3.326344 1.181482 0.223821 0
M  V30 3 C 4.421706 0.108290 0.281681 0
M  V30 4 C 2.985815 1.463147 1.620166 0
M  V30 5 O 3.939579 1.979525 2.180040 0
M  V30 6 C 1.717547 1.180489 2.259158 0 CFG=2
M  V30 7 O 0.979237 0.044401 2.149155 0
M  V30 8 C 0.528274 1.098143 1.379416 0
M  V30 9 C 0.811873 1.169156 -0.077181 0 CFG=1
M  V30 10 C 0.934367 2.685978 -0.297611 0
M  V30 11 C 2.150424 0.624549 -0.474527 0
M  V30 12 C 2.103493 -0.862489 -0.440489 0
M  V30 13 C 1.215864 -1.231490 -1.603690 0
M  V30 14 O 1.304911 -2.541727 -1.972899 0
M  V30 15 C -0.187862 -0.718547 -1.512204 0 CFG=2
M  V30 16 C -0.577169 -0.866815 -2.973633 0
M  V30 17 C -0.252446 0.692266 -1.004571 0
M  V30 18 C -1.625348 1.131528 -0.622408 0
M  V30 19 C -2.767726 0.248534 -0.967260 0
M  V30 20 C -2.505378 -1.177755 -0.684379 0 CFG=1
M  V30 21 C -2.998619 -1.472048 0.742913 0
M  V30 22 C -3.290674 -2.116183 -1.612190 0
M  V30 23 C -4.547558 -1.538710 -2.082708 0
M  V30 24 C -4.794548 -1.042266 -3.368210 0
M  V30 25 C -6.098460 -0.581625 -3.425031 0
M  V30 26 O -6.639549 -0.781140 -2.231569 0
M  V30 27 C -5.729374 -1.342622 -1.444424 0
M  V30 28 O -3.455780 -3.316868 -0.865489 0
M  V30 29 C -2.284498 -3.687386 -0.210887 0
M  V30 30 O -2.265131 -4.589179 0.672916 0
M  V30 31 C -0.983891 -3.018135 -0.537313 0
M  V30 32 O -0.465734 -2.114306 0.459126 0
M  V30 33 C -1.091951 -1.652552 -0.745867 0
M  V30 34 H 3.337370 2.657943 -1.389217 0
M  V30 35 H 4.949038 2.149878 -0.905799 0
M  V30 36 H 4.095094 3.229579 0.191302 0
M  V30 37 H 5.281154 0.629061 0.795457 0
M  V30 38 H 4.135306 -0.706294 0.956814 0
M  V30 39 H 4.786420 -0.176334 -0.704159 0
M  V30 40 H 1.650552 1.598812 3.308837 0
M  V30 41 H -0.248449 1.811754 1.768411 0
M  V30 42 H -0.055406 3.075729 0.083015 0
M  V30 43 H 0.952922 2.946442 -1.354468 0
M  V30 44 H 1.697282 3.147034 0.332371 0
M  V30 45 H 2.274663 0.938605 -1.543071 0
M  V30 46 H 3.095235 -1.330884 -0.683176 0
M  V30 47 H 1.745534 -1.353085 0.445921 0
M  V30 48 H 1.749644 -0.690019 -2.448455 0
M  V30 49 H 1.485843 -2.715144 -2.933481 0
M  V30 50 H -1.515821 -0.502404 -3.292410 0
M  V30 51 H -0.423003 -1.942710 -3.232970 0
M  V30 52 H 0.191499 -0.297376 -3.579235 0
M  V30 53 H -0.047781 1.262683 -1.968445 0
M  V30 54 H -1.891041 2.148993 -1.039970 0
M  V30 55 H -1.719570 1.313497 0.488793 0
M  V30 56 H -3.644269 0.573257 -0.331196 0
M  V30 57 H -3.227196 0.481998 -1.969031 0
M  V30 58 H -2.190932 -1.828922 1.402372 0
M  V30 59 H -3.345957 -0.521738 1.247939 0
M  V30 60 H -3.911788 -2.104087 0.743904 0
M  V30 61 H -2.668838 -2.442842 -2.483476 0
M  V30 62 H -4.053909 -1.032822 -4.180517 0
M  V30 63 H -6.506039 -0.149970 -4.338941 0
M  V30 64 H -5.953916 -1.596315 -0.416742 0
M  V30 65 H -0.225405 -3.782721 -0.731558 0
M  V30 END ATOM
M  V30 BEGIN BOND
M  V30 1 1 1 2
M  V30 2 1 2 3
M  V30 3 1 2 4
M  V30 4 2 4 5
M  V30 5 1 4 6
M  V30 6 1 6 7
M  V30 7 1 7 8
M  V30 8 1 8 9
M  V30 9 1 9 10 CFG=3
M  V30 10 1 9 11
M  V30 11 1 11 12
M  V30 12 1 12 13
M  V30 13 1 13 14
M  V30 14 1 13 15
M  V30 15 1 15 16 CFG=3
M  V30 16 1 15 17
M  V30 17 1 17 18
M  V30 18 1 18 19
M  V30 19 1 19 20
M  V30 20 1 20 21 CFG=1
M  V30 21 1 20 22
M  V30 22 1 22 23
M  V30 23 1 23 24
M  V30 24 2 24 25
M  V30 25 1 25 26
M  V30 26 1 26 27
M  V30 27 1 22 28
M  V30 28 1 28 29
M  V30 29 2 29 30
M  V30 30 1 29 31
M  V30 31 1 31 32
M  V30 32 1 32 33
M  V30 33 1 11 2
M  V30 34 1 33 15
M  V30 35 1 8 6
M  V30 36 1 17 9
M  V30 37 1 33 20
M  V30 38 2 27 23
M  V30 39 1 33 31
M  V30 40 1 1 34
M  V30 41 1 1 35
M  V30 42 1 1 36
M  V30 43 1 3 37
M  V30 44 1 3 38
M  V30 45 1 3 39
M  V30 46 1 6 40 CFG=1
M  V30 47 1 8 41
M  V30 48 1 10 42
M  V30 49 1 10 43
M  V30 50 1 10 44
M  V30 51 1 11 45
M  V30 52 1 12 46
M  V30 53 1 12 47
M  V30 54 1 13 48
M  V30 55 1 14 49
M  V30 56 1 16 50
M  V30 57 1 16 51
M  V30 58 1 16 52
M  V30 59 1 17 53
M  V30 60 1 18 54
M  V30 61 1 18 55
M  V30 62 1 19 56
M  V30 63 1 19 57
M  V30 64 1 21 58
M  V30 65 1 21 59
M  V30 66 1 21 60
M  V30 67 1 22 61
M  V30 68 1 24 62
M  V30 69 1 25 63
M  V30 70 1 27 64
M  V30 71 1 31 65
M  V30 END BOND
M  V30 END CTAB
M  END
>  <Dataset>  (268) 
ChEMBL_Kinases

>  <Ligand_Instance>  (268) 
nan

>  <PDB_ID>  (268) 
nan

>  <Standardized_SMILES>  (268) 
CC1(C)C(=O)[C@@H]2OC2[C@@]2(C)C1CC(O)[C@]1(C)C2CC[C@@]2(C)C(c3ccoc3)OC(=O)C3OC312

>  <Name>  (268) 
nan

>  <Pocket>  (268) 
nan

>  <ATP_Site>  (268) 
nan

>  <Peripheral>  (268) 
nan

>  <Num_H_Atoms_ProtBoundConf>  (268) 
nan

>  <Num_Resolved_Atoms>  (268) 
nan

>  <Num_Not_Resolved_Atoms>  (268) 
nan

$$$$
CHEMBL1557058
     RDKit          3D

  0  0  0  0  0  0  0  0  0  0999 V3000
M  V30 BEGIN CTAB
M  V30 COUNTS 38 40 0 0 0
M  V30 BEGIN ATOM
M  V30 1 N 1.881263 -0.737495 4.493519 0
M  V30 2 C 1.829571 -0.456359 3.118176 0
M  V30 3 N 2.619511 -0.987574 2.175100 0
M  V30 4 C 2.252148 -0.452993 0.972082 0
M  V30 5 C 2.959862 -0.869497 -0.205580 0
M  V30 6 O 4.206470 -1.055121 -0.177917 0
M  V30 7 N 2.320504 -1.095487 -1.449992 0
M  V30 8 C 3.025829 -1.519041 -2.643950 0
M  V30 9 C 2.316331 -2.828730 -3.018049 0
M  V30 10 O 1.108743 -2.487613 -3.555827 0
M  V30 11 C 0.456714 -1.418193 -3.017322 0
M  V30 12 C 0.904643 -0.934818 -1.685269 0
M  V30 13 N 1.245969 0.378623 1.287258 0
M  V30 14 N 0.970650 0.397488 2.566487 0
M  V30 15 S -0.233425 1.316438 3.394883 0
M  V30 16 O -0.027558 2.787945 3.149689 0
M  V30 17 O -0.158193 1.080606 4.862592 0
M  V30 18 C -1.851676 0.908810 2.841054 0
M  V30 19 C -2.441409 1.597654 1.788055 0
M  V30 20 C -3.732098 1.241840 1.378592 0
M  V30 21 C -4.314807 0.210082 2.079669 0
M  V30 22 C -3.765149 -0.495408 3.125705 0
M  V30 23 C -2.486664 -0.126887 3.514923 0
M  V30 24 H 1.108138 -0.856907 5.199256 0
M  V30 25 H 2.307115 -0.935724 5.404698 0
M  V30 26 H 4.102952 -1.630257 -2.530964 0
M  V30 27 H 2.780421 -0.736798 -3.422797 0
M  V30 28 H 2.897533 -3.431259 -3.736790 0
M  V30 29 H 2.100826 -3.404022 -2.080245 0
M  V30 30 H 0.482274 -0.604393 -3.802424 0
M  V30 31 H -0.626137 -1.682111 -2.929900 0
M  V30 32 H 0.736857 0.180887 -1.679217 0
M  V30 33 H 0.283392 -1.338993 -0.866733 0
M  V30 34 H -1.917516 2.403956 1.282506 0
M  V30 35 H -4.238708 1.743934 0.566677 0
M  V30 36 H -5.327125 -0.052044 1.742528 0
M  V30 37 H -4.299329 -1.286537 3.611072 0
M  V30 38 H -2.003202 -0.645134 4.330637 0
M  V30 END ATOM
M  V30 BEGIN BOND
M  V30 1 1 1 2
M  V30 2 2 2 3
M  V30 3 1 3 4
M  V30 4 1 4 5
M  V30 5 2 5 6
M  V30 6 1 5 7
M  V30 7 1 7 8
M  V30 8 1 8 9
M  V30 9 1 9 10
M  V30 10 1 10 11
M  V30 11 1 11 12
M  V30 12 2 4 13
M  V30 13 1 13 14
M  V30 14 1 14 15
M  V30 15 2 15 16
M  V30 16 2 15 17
M  V30 17 1 15 18
M  V30 18 2 18 19
M  V30 19 1 19 20
M  V30 20 2 20 21
M  V30 21 1 21 22
M  V30 22 2 22 23
M  V30 23 1 14 2
M  V30 24 1 23 18
M  V30 25 1 12 7
M  V30 26 1 1 24
M  V30 27 1 1 25
M  V30 28 1 8 26
M  V30 29 1 8 27
M  V30 30 1 9 28
M  V30 31 1 9 29
M  V30 32 1 11 30
M  V30 33 1 11 31
M  V30 34 1 12 32
M  V30 35 1 12 33
M  V30 36 1 19 34
M  V30 37 1 20 35
M  V30 38 1 21 36
M  V30 39 1 22 37
M  V30 40 1 23 38
M  V30 END BOND
M  V30 END CTAB
M  END
>  <Dataset>  (269) 
ChEMBL_Kinases

>  <Ligand_Instance>  (269) 
nan

>  <PDB_ID>  (269) 
nan

>  <Standardized_SMILES>  (269) 
Nc1nc(C(=O)N2CCOCC2)nn1S(=O)(=O)c1ccccc1

>  <Name>  (269) 
nan

>  <Pocket>  (269) 
nan

>  <ATP_Site>  (269) 
nan

>  <Peripheral>  (269) 
nan

>  <Num_H_Atoms_ProtBoundConf>  (269) 
nan

>  <Num_Resolved_Atoms>  (269) 
nan

>  <Num_Not_Resolved_Atoms>  (269) 
nan

$$$$
CHEMBL1557048
     RDKit          3D

  0  0  0  0  0  0  0  0  0  0999 V3000
M  V30 BEGIN CTAB
M  V30 COUNTS 35 38 0 0 0
M  V30 BEGIN ATOM
M  V30 1 C 2.506029 -4.302501 2.970882 0
M  V30 2 C 1.215463 -4.909484 3.083516 0
M  V30 3 S 0.040597 -3.445216 3.330263 0
M  V30 4 C 1.333425 -2.263408 3.258239 0
M  V30 5 C 1.035295 -0.837248 3.406701 0
M  V30 6 N 0.683822 -0.291723 2.115789 0
M  V30 7 C 1.500061 -0.239113 0.963324 0
M  V30 8 N 2.729360 -0.719409 0.895779 0
M  V30 9 C 3.520271 -0.706516 -0.175737 0
M  V30 10 N 3.043570 -0.152272 -1.324818 0
M  V30 11 C 1.787476 0.369935 -1.354489 0
M  V30 12 C 1.032745 0.319158 -0.207376 0
M  V30 13 C -0.275679 0.935212 -0.356904 0
M  V30 14 C -0.878456 1.913039 0.400947 0
M  V30 15 C -2.142372 2.358810 0.107232 0
M  V30 16 C -2.884113 1.873958 -0.941886 0
M  V30 17 C -2.323270 0.896415 -1.727423 0
M  V30 18 C -1.041945 0.451695 -1.420784 0
M  V30 19 O -3.226637 0.555604 -2.712367 0
M  V30 20 C -4.431981 1.249821 -2.481493 0
M  V30 21 O -4.149346 2.161362 -1.422435 0
M  V30 22 C 2.468079 -2.964332 3.071201 0
M  V30 23 H 3.386684 -4.903595 2.821374 0
M  V30 24 H 1.171533 -6.145755 3.000459 0
M  V30 25 H 0.173411 -0.711874 4.099427 0
M  V30 26 H 1.928479 -0.318538 3.839304 0
M  V30 27 H -0.301546 0.102898 2.029889 0
M  V30 28 H 4.523999 -1.100046 -0.226497 0
M  V30 29 H 1.466647 0.792493 -2.286230 0
M  V30 30 H -0.285755 2.292776 1.211987 0
M  V30 31 H -2.518319 3.139051 0.780557 0
M  V30 32 H -0.656094 -0.327303 -2.086314 0
M  V30 33 H -4.647466 1.827003 -3.409769 0
M  V30 34 H -5.281377 0.594358 -2.232786 0
M  V30 35 H 3.391575 -2.366707 3.009726 0
M  V30 END ATOM
M  V30 BEGIN BOND
M  V30 1 2 1 2
M  V30 2 1 2 3
M  V30 3 1 3 4
M  V30 4 1 4 5
M  V30 5 1 5 6
M  V30 6 1 6 7
M  V30 7 2 7 8
M  V30 8 1 8 9
M  V30 9 2 9 10
M  V30 10 1 10 11
M  V30 11 2 11 12
M  V30 12 1 12 13
M  V30 13 2 13 14
M  V30 14 1 14 15
M  V30 15 2 15 16
M  V30 16 1 16 17
M  V30 17 2 17 18
M  V30 18 1 17 19
M  V30 19 1 19 20
M  V30 20 1 20 21
M  V30 21 2 4 22
M  V30 22 1 22 1
M  V30 23 1 12 7
M  V30 24 1 18 13
M  V30 25 1 21 16
M  V30 26 1 1 23
M  V30 27 1 2 24
M  V30 28 1 5 25
M  V30 29 1 5 26
M  V30 30 1 6 27
M  V30 31 1 9 28
M  V30 32 1 11 29
M  V30 33 1 14 30
M  V30 34 1 15 31
M  V30 35 1 18 32
M  V30 36 1 20 33
M  V30 37 1 20 34
M  V30 38 1 22 35
M  V30 END BOND
M  V30 END CTAB
M  END
>  <Dataset>  (270) 
ChEMBL_Kinases

>  <Ligand_Instance>  (270) 
nan

>  <PDB_ID>  (270) 
nan

>  <Standardized_SMILES>  (270) 
c1csc(CNc2ncncc2-c2ccc3c(c2)OCO3)c1

>  <Name>  (270) 
nan

>  <Pocket>  (270) 
nan

>  <ATP_Site>  (270) 
nan

>  <Peripheral>  (270) 
nan

>  <Num_H_Atoms_ProtBoundConf>  (270) 
nan

>  <Num_Resolved_Atoms>  (270) 
nan

>  <Num_Not_Resolved_Atoms>  (270) 
nan

$$$$
CHEMBL1556970
     RDKit          3D

  0  0  0  0  0  0  0  0  0  0999 V3000
M  V30 BEGIN CTAB
M  V30 COUNTS 43 45 0 0 0
M  V30 BEGIN ATOM
M  V30 1 C -1.003931 -3.144826 -3.130228 0
M  V30 2 C 0.409169 -3.256969 -2.670703 0
M  V30 3 C 1.157081 -4.428269 -2.868973 0
M  V30 4 C 2.469112 -4.390066 -2.392094 0
M  V30 5 C 3.032905 -3.303275 -1.766118 0
M  V30 6 C 2.261815 -2.168411 -1.590957 0
M  V30 7 C 0.943224 -2.161146 -2.051243 0
M  V30 8 N 0.164418 -0.965047 -1.827001 0
M  V30 9 C 0.765135 0.176702 -1.178609 0
M  V30 10 N 1.067630 1.396550 -1.640908 0
M  V30 11 C 1.651482 2.280042 -0.802757 0
M  V30 12 N 1.936338 3.549620 -1.379508 0
M  V30 13 N 1.921700 1.947860 0.457427 0
M  V30 14 C 1.632969 0.719237 0.973885 0
M  V30 15 C 1.932152 0.339146 2.361933 0
M  V30 16 O 0.909484 0.513969 3.288210 0
M  V30 17 C -0.327995 -0.115285 3.193381 0
M  V30 18 O -0.600328 -0.886931 2.240243 0
M  V30 19 C -1.324929 0.125904 4.221785 0
M  V30 20 C -2.609251 -0.419974 4.271376 0
M  V30 21 C -3.298448 -0.005231 5.375552 0
M  V30 22 C -2.427897 0.848374 6.077362 0
M  V30 23 N -1.309949 0.865349 5.337141 0
M  V30 24 C -0.084967 1.604363 5.621321 0
M  V30 25 N 1.052212 -0.125261 0.100305 0
M  V30 26 H -1.059239 -2.309959 -3.871648 0
M  V30 27 H -1.261653 -4.081065 -3.651545 0
M  V30 28 H -1.682603 -2.853731 -2.317129 0
M  V30 29 H 0.635740 -5.228236 -3.367343 0
M  V30 30 H 2.958083 -5.354910 -2.599285 0
M  V30 31 H 4.067802 -3.418590 -1.448238 0
M  V30 32 H 2.731000 -1.312108 -1.091787 0
M  V30 33 H -0.840858 -0.972533 -2.154841 0
M  V30 34 H 1.457275 4.423441 -1.682052 0
M  V30 35 H 2.785627 4.057589 -1.712736 0
M  V30 36 H 2.791813 0.978341 2.733649 0
M  V30 37 H 2.299838 -0.725198 2.379591 0
M  V30 38 H -3.089426 -1.106027 3.558154 0
M  V30 39 H -4.295841 -0.253892 5.682844 0
M  V30 40 H -2.559475 1.384465 6.985267 0
M  V30 41 H 0.718693 0.892583 5.965742 0
M  V30 42 H -0.249656 2.274628 6.487819 0
M  V30 43 H 0.248712 2.229393 4.771503 0
M  V30 END ATOM
M  V30 BEGIN BOND
M  V30 1 1 1 2
M  V30 2 2 2 3
M  V30 3 1 3 4
M  V30 4 2 4 5
M  V30 5 1 5 6
M  V30 6 2 6 7
M  V30 7 1 7 8
M  V30 8 1 8 9
M  V30 9 2 9 10
M  V30 10 1 10 11
M  V30 11 1 11 12
M  V30 12 2 11 13
M  V30 13 1 13 14
M  V30 14 1 14 15
M  V30 15 1 15 16
M  V30 16 1 16 17
M  V30 17 2 17 18
M  V30 18 1 17 19
M  V30 19 2 19 20
M  V30 20 1 20 21
M  V30 21 2 21 22
M  V30 22 1 22 23
M  V30 23 1 23 24
M  V30 24 2 14 25
M  V30 25 1 7 2
M  V30 26 1 25 9
M  V30 27 1 23 19
M  V30 28 1 1 26
M  V30 29 1 1 27
M  V30 30 1 1 28
M  V30 31 1 3 29
M  V30 32 1 4 30
M  V30 33 1 5 31
M  V30 34 1 6 32
M  V30 35 1 8 33
M  V30 36 1 12 34
M  V30 37 1 12 35
M  V30 38 1 15 36
M  V30 39 1 15 37
M  V30 40 1 20 38
M  V30 41 1 21 39
M  V30 42 1 22 40
M  V30 43 1 24 41
M  V30 44 1 24 42
M  V30 45 1 24 43
M  V30 END BOND
M  V30 END CTAB
M  END
>  <Dataset>  (271) 
ChEMBL_Kinases

>  <Ligand_Instance>  (271) 
nan

>  <PDB_ID>  (271) 
nan

>  <Standardized_SMILES>  (271) 
Cc1ccccc1Nc1nc(N)nc(COC(=O)c2cccn2C)n1

>  <Name>  (271) 
nan

>  <Pocket>  (271) 
nan

>  <ATP_Site>  (271) 
nan

>  <Peripheral>  (271) 
nan

>  <Num_H_Atoms_ProtBoundConf>  (271) 
nan

>  <Num_Resolved_Atoms>  (271) 
nan

>  <Num_Not_Resolved_Atoms>  (271) 
nan

$$$$
CHEMBL1556879
     RDKit          3D

  0  0  0  0  0  0  0  0  0  0999 V3000
M  V30 BEGIN CTAB
M  V30 COUNTS 58 61 0 0 0
M  V30 BEGIN ATOM
M  V30 1 C 5.372590 -3.088775 6.425279 0
M  V30 2 C 5.226944 -2.047295 5.360890 0
M  V30 3 C 4.401232 -2.262357 4.253050 0
M  V30 4 C 4.300836 -1.257740 3.288536 0
M  V30 5 C 4.995982 -0.051920 3.396200 0
M  V30 6 C 4.796163 0.908468 2.312980 0
M  V30 7 N 5.371578 1.236838 1.149801 0
M  V30 8 N 4.686166 2.243814 0.600087 0
M  V30 9 N 3.677362 2.567836 1.393993 0
M  V30 10 C 2.686380 3.602155 1.182791 0
M  V30 11 C 1.486503 3.120817 0.448051 0
M  V30 12 O 0.381518 3.602964 0.027142 0
M  V30 13 N 1.489907 1.741995 0.068748 0
M  V30 14 C 0.592791 0.877794 -0.619945 0
M  V30 15 C -0.355937 0.186113 0.139577 0
M  V30 16 C -1.224550 -0.656344 -0.565500 0
M  V30 17 C -1.156191 -0.803599 -1.939818 0
M  V30 18 S -2.354030 -1.914295 -2.570429 0
M  V30 19 O -2.555640 -3.085211 -1.660305 0
M  V30 20 O -1.817905 -2.477301 -3.871125 0
M  V30 21 N -3.817141 -1.121189 -2.982291 0
M  V30 22 C -4.465868 -0.484738 -1.872952 0
M  V30 23 C -5.074987 -1.469881 -0.899475 0
M  V30 24 C -6.053028 -2.404089 -1.566614 0
M  V30 25 C -5.698203 -3.832455 -1.286026 0
M  V30 26 C -6.077282 -2.079645 -3.033645 0
M  V30 27 C -4.707835 -2.001555 -3.662720 0
M  V30 28 C -0.207288 -0.106701 -2.665426 0
M  V30 29 C 0.662983 0.732254 -1.993200 0
M  V30 30 N 3.749343 1.750510 2.436671 0
M  V30 31 C 5.811982 0.142972 4.505212 0
M  V30 32 C 5.915979 -0.845809 5.462579 0
M  V30 33 H 4.954583 -2.717779 7.404751 0
M  V30 34 H 6.413181 -3.378355 6.564235 0
M  V30 35 H 4.757015 -3.952732 6.132358 0
M  V30 36 H 3.864689 -3.194824 4.171326 0
M  V30 37 H 3.636475 -1.501891 2.454470 0
M  V30 38 H 2.333722 3.919391 2.189661 0
M  V30 39 H 3.121125 4.510338 0.722658 0
M  V30 40 H 2.253701 1.024517 0.253523 0
M  V30 41 H -0.386939 0.317326 1.194418 0
M  V30 42 H -1.936640 -1.162613 0.090748 0
M  V30 43 H -5.311523 0.104416 -2.289894 0
M  V30 44 H -3.839717 0.206577 -1.314907 0
M  V30 45 H -5.643852 -0.873370 -0.155725 0
M  V30 46 H -4.282090 -2.006362 -0.315722 0
M  V30 47 H -7.100168 -2.238701 -1.203399 0
M  V30 48 H -5.112999 -4.259243 -2.140410 0
M  V30 49 H -6.600838 -4.433821 -1.084897 0
M  V30 50 H -4.985285 -3.844439 -0.417543 0
M  V30 51 H -6.635241 -2.882667 -3.551172 0
M  V30 52 H -6.661128 -1.148103 -3.168478 0
M  V30 53 H -4.866054 -1.623184 -4.697159 0
M  V30 54 H -4.331457 -3.042789 -3.760123 0
M  V30 55 H -0.234405 -0.288805 -3.730539 0
M  V30 56 H 1.393162 1.262184 -2.593976 0
M  V30 57 H 6.334918 1.088879 4.554990 0
M  V30 58 H 6.570019 -0.645434 6.315953 0
M  V30 END ATOM
M  V30 BEGIN BOND
M  V30 1 1 1 2
M  V30 2 2 2 3
M  V30 3 1 3 4
M  V30 4 2 4 5
M  V30 5 1 5 6
M  V30 6 1 6 7
M  V30 7 2 7 8
M  V30 8 1 8 9
M  V30 9 1 9 10
M  V30 10 1 10 11
M  V30 11 2 11 12
M  V30 12 1 11 13
M  V30 13 1 13 14
M  V30 14 2 14 15
M  V30 15 1 15 16
M  V30 16 2 16 17
M  V30 17 1 17 18
M  V30 18 2 18 19
M  V30 19 2 18 20
M  V30 20 1 18 21
M  V30 21 1 21 22
M  V30 22 1 22 23
M  V30 23 1 23 24
M  V30 24 1 24 25
M  V30 25 1 24 26
M  V30 26 1 26 27
M  V30 27 1 17 28
M  V30 28 2 28 29
M  V30 29 1 9 30
M  V30 30 1 5 31
M  V30 31 2 31 32
M  V30 32 1 32 2
M  V30 33 2 30 6
M  V30 34 1 29 14
M  V30 35 1 27 21
M  V30 36 1 1 33
M  V30 37 1 1 34
M  V30 38 1 1 35
M  V30 39 1 3 36
M  V30 40 1 4 37
M  V30 41 1 10 38
M  V30 42 1 10 39
M  V30 43 1 13 40
M  V30 44 1 15 41
M  V30 45 1 16 42
M  V30 46 1 22 43
M  V30 47 1 22 44
M  V30 48 1 23 45
M  V30 49 1 23 46
M  V30 50 1 24 47
M  V30 51 1 25 48
M  V30 52 1 25 49
M  V30 53 1 25 50
M  V30 54 1 26 51
M  V30 55 1 26 52
M  V30 56 1 27 53
M  V30 57 1 27 54
M  V30 58 1 28 55
M  V30 59 1 29 56
M  V30 60 1 31 57
M  V30 61 1 32 58
M  V30 END BOND
M  V30 END CTAB
M  END
>  <Dataset>  (272) 
ChEMBL_Kinases

>  <Ligand_Instance>  (272) 
nan

>  <PDB_ID>  (272) 
nan

>  <Standardized_SMILES>  (272) 
Cc1ccc(-c2nnn(CC(=O)Nc3ccc(S(=O)(=O)N4CCC(C)CC4)cc3)n2)cc1

>  <Name>  (272) 
nan

>  <Pocket>  (272) 
nan

>  <ATP_Site>  (272) 
nan

>  <Peripheral>  (272) 
nan

>  <Num_H_Atoms_ProtBoundConf>  (272) 
nan

>  <Num_Resolved_Atoms>  (272) 
nan

>  <Num_Not_Resolved_Atoms>  (272) 
nan

$$$$
CHEMBL1556857
     RDKit          3D

  0  0  0  0  0  0  0  0  0  0999 V3000
M  V30 BEGIN CTAB
M  V30 COUNTS 65 68 0 0 0
M  V30 BEGIN ATOM
M  V30 1 C 6.550369 1.591007 5.601831 0
M  V30 2 C 6.349150 0.754492 4.355391 0
M  V30 3 O 5.132651 1.199958 3.756734 0
M  V30 4 C 4.723981 0.579753 2.585369 0
M  V30 5 O 5.364725 -0.347607 2.027988 0
M  V30 6 C 3.511925 1.025506 1.990585 0
M  V30 7 S 2.807798 0.370956 0.493469 0
M  V30 8 C 1.390866 1.395968 0.434333 0
M  V30 9 N 0.356926 1.396485 -0.551396 0
M  V30 10 C 0.539118 0.435866 -1.584000 0
M  V30 11 O 1.515153 -0.356488 -1.647124 0
M  V30 12 C -0.491412 0.371571 -2.648822 0
M  V30 13 S -1.842879 -0.754038 -2.295117 0
M  V30 14 C -1.316350 -2.461380 -2.243218 0
M  V30 15 N -0.039718 -2.760163 -2.457374 0
M  V30 16 C 0.401733 -4.044233 -2.425847 0
M  V30 17 C -0.577575 -4.978023 -2.157652 0
M  V30 18 C -1.886341 -4.651443 -1.939980 0
M  V30 19 O -2.692529 -5.578801 -1.705081 0
M  V30 20 N -2.284896 -3.358187 -1.980387 0
M  V30 21 C -3.653745 -3.050885 -1.750060 0
M  V30 22 C -4.224158 -2.141123 -0.899251 0
M  V30 23 C -5.595610 -2.012057 -0.840975 0
M  V30 24 C -6.419750 -2.788904 -1.631022 0
M  V30 25 C -7.898636 -2.656065 -1.574214 0
M  V30 26 C -5.861831 -3.709533 -2.492901 0
M  V30 27 C -4.490894 -3.835650 -2.548292 0
M  V30 28 S 0.287639 -6.566567 -2.175825 0
M  V30 29 C 1.964914 -5.840062 -1.992404 0
M  V30 30 C 1.767397 -4.517230 -2.642034 0
M  V30 31 C 1.505202 2.233667 1.599863 0
M  V30 32 C 0.463407 3.220312 1.850687 0
M  V30 33 O 0.467600 4.415701 1.422957 0
M  V30 34 O -0.664112 2.937225 2.602883 0
M  V30 35 C -1.626045 3.939377 2.801982 0
M  V30 36 C -2.729729 3.330739 3.655193 0
M  V30 37 C 2.616740 2.001184 2.366907 0
M  V30 38 C 2.887127 2.778240 3.604715 0
M  V30 39 H 5.570815 1.884805 6.065920 0
M  V30 40 H 7.024201 2.545861 5.281855 0
M  V30 41 H 7.204053 1.054759 6.323798 0
M  V30 42 H 6.266696 -0.331622 4.610847 0
M  V30 43 H 7.205467 0.937668 3.658872 0
M  V30 44 H -0.407588 2.061283 -0.445652 0
M  V30 45 H -0.927125 1.380820 -2.793778 0
M  V30 46 H -0.036297 0.066340 -3.623281 0
M  V30 47 H -3.497178 -1.588682 -0.330316 0
M  V30 48 H -5.985190 -1.286520 -0.159116 0
M  V30 49 H -8.271961 -2.316472 -0.582452 0
M  V30 50 H -8.388610 -3.621702 -1.808235 0
M  V30 51 H -8.235932 -1.936519 -2.370240 0
M  V30 52 H -6.542216 -4.306463 -3.102130 0
M  V30 53 H -4.162310 -4.597301 -3.267752 0
M  V30 54 H 2.612884 -6.467582 -2.641883 0
M  V30 55 H 2.292391 -5.805382 -0.948994 0
M  V30 56 H 2.469157 -3.806898 -2.127369 0
M  V30 57 H 2.081337 -4.493400 -3.707999 0
M  V30 58 H -1.182506 4.749693 3.401361 0
M  V30 59 H -2.016099 4.346578 1.859231 0
M  V30 60 H -3.599327 4.015645 3.616710 0
M  V30 61 H -2.353463 3.207750 4.681549 0
M  V30 62 H -3.063599 2.378918 3.196580 0
M  V30 63 H 2.902991 2.012513 4.433308 0
M  V30 64 H 3.912719 3.199648 3.578222 0
M  V30 65 H 2.137417 3.538896 3.837825 0
M  V30 END ATOM
M  V30 BEGIN BOND
M  V30 1 1 1 2
M  V30 2 1 2 3
M  V30 3 1 3 4
M  V30 4 2 4 5
M  V30 5 1 4 6
M  V30 6 1 6 7
M  V30 7 1 7 8
M  V30 8 1 8 9
M  V30 9 1 9 10
M  V30 10 2 10 11
M  V30 11 1 10 12
M  V30 12 1 12 13
M  V30 13 1 13 14
M  V30 14 2 14 15
M  V30 15 1 15 16
M  V30 16 2 16 17
M  V30 17 1 17 18
M  V30 18 2 18 19
M  V30 19 1 18 20
M  V30 20 1 20 21
M  V30 21 2 21 22
M  V30 22 1 22 23
M  V30 23 2 23 24
M  V30 24 1 24 25
M  V30 25 1 24 26
M  V30 26 2 26 27
M  V30 27 1 17 28
M  V30 28 1 28 29
M  V30 29 1 29 30
M  V30 30 2 8 31
M  V30 31 1 31 32
M  V30 32 2 32 33
M  V30 33 1 32 34
M  V30 34 1 34 35
M  V30 35 1 35 36
M  V30 36 1 31 37
M  V30 37 1 37 38
M  V30 38 2 37 6
M  V30 39 1 20 14
M  V30 40 1 27 21
M  V30 41 1 30 16
M  V30 42 1 1 39
M  V30 43 1 1 40
M  V30 44 1 1 41
M  V30 45 1 2 42
M  V30 46 1 2 43
M  V30 47 1 9 44
M  V30 48 1 12 45
M  V30 49 1 12 46
M  V30 50 1 22 47
M  V30 51 1 23 48
M  V30 52 1 25 49
M  V30 53 1 25 50
M  V30 54 1 25 51
M  V30 55 1 26 52
M  V30 56 1 27 53
M  V30 57 1 29 54
M  V30 58 1 29 55
M  V30 59 1 30 56
M  V30 60 1 30 57
M  V30 61 1 35 58
M  V30 62 1 35 59
M  V30 63 1 36 60
M  V30 64 1 36 61
M  V30 65 1 36 62
M  V30 66 1 38 63
M  V30 67 1 38 64
M  V30 68 1 38 65
M  V30 END BOND
M  V30 END CTAB
M  END
>  <Dataset>  (273) 
ChEMBL_Kinases

>  <Ligand_Instance>  (273) 
nan

>  <PDB_ID>  (273) 
nan

>  <Standardized_SMILES>  (273) 
CCOC(=O)c1sc(NC(=O)CSc2nc3c(c(=O)n2-c2ccc(C)cc2)SCC3)c(C(=O)OCC)c1C

>  <Name>  (273) 
nan

>  <Pocket>  (273) 
nan

>  <ATP_Site>  (273) 
nan

>  <Peripheral>  (273) 
nan

>  <Num_H_Atoms_ProtBoundConf>  (273) 
nan

>  <Num_Resolved_Atoms>  (273) 
nan

>  <Num_Not_Resolved_Atoms>  (273) 
nan

$$$$
CHEMBL1556559
     RDKit          3D

  0  0  0  0  0  0  0  0  0  0999 V3000
M  V30 BEGIN CTAB
M  V30 COUNTS 37 40 0 0 0
M  V30 BEGIN ATOM
M  V30 1 C -1.385773 0.921947 4.401562 0
M  V30 2 O -0.184238 1.525328 3.956363 0
M  V30 3 C 0.410933 1.125552 2.766766 0
M  V30 4 C 1.575291 1.799008 2.458462 0
M  V30 5 C 2.241950 1.468299 1.288359 0
M  V30 6 C 1.686699 0.469886 0.495951 0
M  V30 7 C 0.531389 -0.205719 0.791638 0
M  V30 8 N -0.002036 -1.221499 -0.047359 0
M  V30 9 C -1.220142 -1.975572 0.200316 0
M  V30 10 C -1.759711 -2.080317 -1.159632 0
M  V30 11 C -2.971327 -2.813984 -1.427184 0
M  V30 12 C -3.251621 -2.461983 -2.704191 0
M  V30 13 C -2.295946 -1.347097 -3.045099 0
M  V30 14 O -2.060753 -0.834422 -1.750857 0
M  V30 15 C -0.941934 -1.945867 -3.325943 0
M  V30 16 C -0.003287 -1.018858 -3.936199 0
M  V30 17 O 0.512355 -1.248382 -5.081556 0
M  V30 18 O 0.412767 0.162529 -3.361788 0
M  V30 19 C -0.553958 -2.481348 -1.987654 0
M  V30 20 C 0.497229 -1.729949 -1.279607 0
M  V30 21 O 1.657142 -1.572379 -1.715544 0
M  V30 22 C -0.108815 0.137203 1.950445 0
M  V30 23 H -2.136646 0.793082 3.592635 0
M  V30 24 H -1.892999 1.599029 5.139132 0
M  V30 25 H -1.212682 -0.084673 4.837287 0
M  V30 26 H 1.996457 2.578474 3.090260 0
M  V30 27 H 3.155820 1.976325 1.017868 0
M  V30 28 H 2.247173 0.256951 -0.397882 0
M  V30 29 H -0.928013 -2.987725 0.523947 0
M  V30 30 H -1.899641 -1.518424 0.918623 0
M  V30 31 H -3.723469 -3.510332 -1.032174 0
M  V30 32 H -3.975653 -2.804678 -3.463871 0
M  V30 33 H -2.665606 -0.627387 -3.749168 0
M  V30 34 H -1.081077 -2.823463 -3.999332 0
M  V30 35 H 1.369077 0.504299 -3.536021 0
M  V30 36 H -0.390201 -3.575217 -1.975696 0
M  V30 37 H -1.010189 -0.307417 2.295636 0
M  V30 END ATOM
M  V30 BEGIN BOND
M  V30 1 1 1 2
M  V30 2 1 2 3
M  V30 3 2 3 4
M  V30 4 1 4 5
M  V30 5 2 5 6
M  V30 6 1 6 7
M  V30 7 1 7 8
M  V30 8 1 8 9
M  V30 9 1 9 10
M  V30 10 1 10 11
M  V30 11 2 11 12
M  V30 12 1 12 13
M  V30 13 1 13 14
M  V30 14 1 13 15
M  V30 15 1 15 16
M  V30 16 2 16 17
M  V30 17 1 16 18
M  V30 18 1 15 19
M  V30 19 1 19 20
M  V30 20 2 20 21
M  V30 21 2 7 22
M  V30 22 1 22 3
M  V30 23 1 20 8
M  V30 24 1 14 10
M  V30 25 1 19 10
M  V30 26 1 1 23
M  V30 27 1 1 24
M  V30 28 1 1 25
M  V30 29 1 4 26
M  V30 30 1 5 27
M  V30 31 1 6 28
M  V30 32 1 9 29
M  V30 33 1 9 30
M  V30 34 1 11 31
M  V30 35 1 12 32
M  V30 36 1 13 33
M  V30 37 1 15 34
M  V30 38 1 18 35
M  V30 39 1 19 36
M  V30 40 1 22 37
M  V30 END BOND
M  V30 END CTAB
M  END
>  <Dataset>  (274) 
ChEMBL_Kinases

>  <Ligand_Instance>  (274) 
nan

>  <PDB_ID>  (274) 
nan

>  <Standardized_SMILES>  (274) 
COc1cccc(N2CC34C=CC(O3)C(C(=O)O)C4C2=O)c1

>  <Name>  (274) 
nan

>  <Pocket>  (274) 
nan

>  <ATP_Site>  (274) 
nan

>  <Peripheral>  (274) 
nan

>  <Num_H_Atoms_ProtBoundConf>  (274) 
nan

>  <Num_Resolved_Atoms>  (274) 
nan

>  <Num_Not_Resolved_Atoms>  (274) 
nan

$$$$
CHEMBL1556351
     RDKit          3D

  0  0  0  0  0  0  0  0  0  0999 V3000
M  V30 BEGIN CTAB
M  V30 COUNTS 25 26 0 0 0
M  V30 BEGIN ATOM
M  V30 1 O -1.514362 -0.055546 3.676514 0 CHG=-1 VAL=1
M  V30 2 N -0.652916 -0.384010 2.630933 0 CHG=1 VAL=4
M  V30 3 C -0.027868 -1.535836 2.710239 0
M  V30 4 C 0.847792 -1.752868 1.539204 0
M  V30 5 C 0.468868 -2.937526 0.899485 0
M  V30 6 C 1.169502 -3.331416 -0.245068 0
M  V30 7 C 2.193636 -2.494861 -0.645960 0
M  V30 8 N 2.556338 -1.339245 -0.013082 0
M  V30 9 C 1.863086 -0.966854 1.103841 0
M  V30 10 C -0.543119 0.572080 1.586653 0
M  V30 11 C -0.226785 1.847170 2.005654 0
M  V30 12 C -0.086593 2.876974 1.093814 0
M  V30 13 C -0.256254 2.678833 -0.279130 0
M  V30 14 Br -0.074033 4.059281 -1.579310 0
M  V30 15 C -0.577342 1.380443 -0.693184 0
M  V30 16 C -0.710911 0.371404 0.242267 0
M  V30 17 H -0.164468 -2.210358 3.543778 0
M  V30 18 H -0.323189 -3.622467 1.177461 0
M  V30 19 H 0.940078 -4.225477 -0.790138 0
M  V30 20 H 2.774426 -2.742142 -1.521778 0
M  V30 21 H 2.026012 -0.094229 1.706472 0
M  V30 22 H -0.070681 2.124358 3.060364 0
M  V30 23 H 0.164119 3.887582 1.427740 0
M  V30 24 H -0.732542 1.113731 -1.746227 0
M  V30 25 H -0.957350 -0.623658 -0.060580 0
M  V30 END ATOM
M  V30 BEGIN BOND
M  V30 1 1 1 2
M  V30 2 2 2 3
M  V30 3 1 3 4
M  V30 4 2 4 5
M  V30 5 1 5 6
M  V30 6 2 6 7
M  V30 7 1 7 8
M  V30 8 2 8 9
M  V30 9 1 2 10
M  V30 10 2 10 11
M  V30 11 1 11 12
M  V30 12 2 12 13
M  V30 13 1 13 14
M  V30 14 1 13 15
M  V30 15 2 15 16
M  V30 16 1 9 4
M  V30 17 1 16 10
M  V30 18 1 3 17
M  V30 19 1 5 18
M  V30 20 1 6 19
M  V30 21 1 7 20
M  V30 22 1 9 21
M  V30 23 1 11 22
M  V30 24 1 12 23
M  V30 25 1 15 24
M  V30 26 1 16 25
M  V30 END BOND
M  V30 END CTAB
M  END
>  <Dataset>  (275) 
ChEMBL_Kinases

>  <Ligand_Instance>  (275) 
nan

>  <PDB_ID>  (275) 
nan

>  <Standardized_SMILES>  (275) 
[O-]/[N+](=C/c1cccnc1)c1ccc(Br)cc1

>  <Name>  (275) 
nan

>  <Pocket>  (275) 
nan

>  <ATP_Site>  (275) 
nan

>  <Peripheral>  (275) 
nan

>  <Num_H_Atoms_ProtBoundConf>  (275) 
nan

>  <Num_Resolved_Atoms>  (275) 
nan

>  <Num_Not_Resolved_Atoms>  (275) 
nan

$$$$
CHEMBL1554637
     RDKit          3D

  0  0  0  0  0  0  0  0  0  0999 V3000
M  V30 BEGIN CTAB
M  V30 COUNTS 42 44 0 0 0
M  V30 BEGIN ATOM
M  V30 1 C 0.325665 -6.667843 1.456639 0
M  V30 2 N 0.279174 -5.258296 1.144937 0
M  V30 3 C -0.752440 -4.541913 1.873547 0
M  V30 4 C 1.223630 -4.759956 0.189160 0
M  V30 5 O 1.997180 -5.606664 -0.269712 0
M  V30 6 C 1.275900 -3.351073 -0.222064 0
M  V30 7 C 1.260146 -2.881118 -1.516008 0
M  V30 8 C 1.312182 -1.530758 -1.789862 0
M  V30 9 C 1.381429 -0.611512 -0.764532 0
M  V30 10 C 1.420630 0.832377 -0.988743 0
M  V30 11 N 1.492944 1.352583 -2.239376 0
M  V30 12 C 1.521061 2.694543 -2.418903 0
M  V30 13 C 1.474954 3.545178 -1.314302 0
M  V30 14 C 1.400264 3.011869 -0.040044 0
M  V30 15 N 1.373049 3.801567 1.139558 0
M  V30 16 C 1.124067 3.277075 2.490323 0
M  V30 17 C -0.263852 2.857793 2.550296 0
M  V30 18 C -0.990227 1.708754 2.312205 0
M  V30 19 C -2.346390 1.694845 2.488882 0
M  V30 20 C -2.930976 2.940132 2.930219 0
M  V30 21 S -1.416293 4.063821 3.056337 0
M  V30 22 N 1.376819 1.666152 0.052269 0
M  V30 23 C 1.396405 -1.102224 0.549674 0
M  V30 24 C 1.345155 -2.454212 0.834133 0
M  V30 25 H 0.863260 -6.785966 2.425304 0
M  V30 26 H -0.718872 -7.062993 1.543074 0
M  V30 27 H 0.839293 -7.230263 0.659394 0
M  V30 28 H -0.436697 -4.554110 2.948658 0
M  V30 29 H -0.871415 -3.508686 1.537906 0
M  V30 30 H -1.725836 -5.082897 1.787439 0
M  V30 31 H 1.204992 -3.634613 -2.313355 0
M  V30 32 H 1.299686 -1.200208 -2.804978 0
M  V30 33 H 1.572549 3.171162 -3.399033 0
M  V30 34 H 1.493498 4.604469 -1.405860 0
M  V30 35 H 1.542900 4.849604 1.063124 0
M  V30 36 H 1.399631 4.001273 3.266565 0
M  V30 37 H 1.767470 2.357775 2.553357 0
M  V30 38 H -0.453740 0.836728 1.984111 0
M  V30 39 H -2.975137 0.836991 2.323410 0
M  V30 40 H -4.041864 3.026391 3.105255 0
M  V30 41 H 1.460699 -0.384679 1.350473 0
M  V30 42 H 1.364000 -2.713642 1.902237 0
M  V30 END ATOM
M  V30 BEGIN BOND
M  V30 1 1 1 2
M  V30 2 1 2 3
M  V30 3 1 2 4
M  V30 4 2 4 5
M  V30 5 1 4 6
M  V30 6 2 6 7
M  V30 7 1 7 8
M  V30 8 2 8 9
M  V30 9 1 9 10
M  V30 10 2 10 11
M  V30 11 1 11 12
M  V30 12 2 12 13
M  V30 13 1 13 14
M  V30 14 1 14 15
M  V30 15 1 15 16
M  V30 16 1 16 17
M  V30 17 2 17 18
M  V30 18 1 18 19
M  V30 19 2 19 20
M  V30 20 1 20 21
M  V30 21 2 14 22
M  V30 22 1 9 23
M  V30 23 2 23 24
M  V30 24 1 24 6
M  V30 25 1 22 10
M  V30 26 1 21 17
M  V30 27 1 1 25
M  V30 28 1 1 26
M  V30 29 1 1 27
M  V30 30 1 3 28
M  V30 31 1 3 29
M  V30 32 1 3 30
M  V30 33 1 7 31
M  V30 34 1 8 32
M  V30 35 1 12 33
M  V30 36 1 13 34
M  V30 37 1 15 35
M  V30 38 1 16 36
M  V30 39 1 16 37
M  V30 40 1 18 38
M  V30 41 1 19 39
M  V30 42 1 20 40
M  V30 43 1 23 41
M  V30 44 1 24 42
M  V30 END BOND
M  V30 END CTAB
M  END
>  <Dataset>  (276) 
ChEMBL_Kinases

>  <Ligand_Instance>  (276) 
nan

>  <PDB_ID>  (276) 
nan

>  <Standardized_SMILES>  (276) 
CN(C)C(=O)c1ccc(-c2nccc(NCc3cccs3)n2)cc1

>  <Name>  (276) 
nan

>  <Pocket>  (276) 
nan

>  <ATP_Site>  (276) 
nan

>  <Peripheral>  (276) 
nan

>  <Num_H_Atoms_ProtBoundConf>  (276) 
nan

>  <Num_Resolved_Atoms>  (276) 
nan

>  <Num_Not_Resolved_Atoms>  (276) 
nan

$$$$
CHEMBL1554826
     RDKit          3D

  0  0  0  0  0  0  0  0  0  0999 V3000
M  V30 BEGIN CTAB
M  V30 COUNTS 39 42 0 0 0
M  V30 BEGIN ATOM
M  V30 1 C 1.668839 -6.107680 3.781156 0
M  V30 2 O 1.258604 -4.810634 4.181377 0
M  V30 3 C 0.914249 -3.842804 3.244280 0
M  V30 4 C 0.939096 -4.048578 1.879173 0
M  V30 5 C 0.574726 -3.009790 1.042927 0
M  V30 6 C 0.194332 -1.792287 1.571935 0
M  V30 7 N -0.163254 -0.783975 0.632198 0
M  V30 8 C 0.413217 0.425510 0.759143 0
M  V30 9 O 1.236047 0.745928 1.628787 0
M  V30 10 C 0.083129 1.419984 -0.139627 0
M  V30 11 C 0.590386 2.786960 -0.176218 0
M  V30 12 C -0.313520 3.823226 -0.368166 0
M  V30 13 C 0.012687 5.168715 -0.426233 0
M  V30 14 C 1.361189 5.494026 -0.278456 0
M  V30 15 C 2.278034 4.465612 -0.085442 0
M  V30 16 C 1.924133 3.136851 -0.032141 0
M  V30 17 N -0.813996 1.146587 -1.124981 0
M  V30 18 C -1.389128 -0.057920 -1.252691 0
M  V30 19 C -2.305143 -0.368918 -2.243218 0
M  V30 20 N -2.837571 -1.605884 -2.301769 0
M  V30 21 C -2.502566 -2.558707 -1.417252 0
M  V30 22 N -1.616095 -2.304845 -0.435610 0
M  V30 23 C -1.056483 -1.062578 -0.345744 0
M  V30 24 C 0.175570 -1.604829 2.940816 0
M  V30 25 C 0.537149 -2.631015 3.819547 0
M  V30 26 H 1.487757 -6.857782 4.582461 0
M  V30 27 H 2.721495 -6.115964 3.431794 0
M  V30 28 H 1.050276 -6.464028 2.923914 0
M  V30 29 H 1.242288 -5.014811 1.501378 0
M  V30 30 H 0.595593 -3.176225 -0.035802 0
M  V30 31 H -1.374374 3.569255 -0.484578 0
M  V30 32 H -0.767682 5.900721 -0.579899 0
M  V30 33 H 1.647187 6.540180 -0.319481 0
M  V30 34 H 3.318276 4.755360 0.025672 0
M  V30 35 H 2.630847 2.333989 0.117390 0
M  V30 36 H -2.511778 0.458936 -2.906433 0
M  V30 37 H -3.004768 -3.492176 -1.586724 0
M  V30 38 H -0.125317 -0.643996 3.335777 0
M  V30 39 H 0.513534 -2.457218 4.886853 0
M  V30 END ATOM
M  V30 BEGIN BOND
M  V30 1 1 1 2
M  V30 2 1 2 3
M  V30 3 2 3 4
M  V30 4 1 4 5
M  V30 5 2 5 6
M  V30 6 1 6 7
M  V30 7 1 7 8
M  V30 8 2 8 9
M  V30 9 1 8 10
M  V30 10 1 10 11
M  V30 11 2 11 12
M  V30 12 1 12 13
M  V30 13 2 13 14
M  V30 14 1 14 15
M  V30 15 2 15 16
M  V30 16 2 10 17
M  V30 17 1 17 18
M  V30 18 2 18 19
M  V30 19 1 19 20
M  V30 20 2 20 21
M  V30 21 1 21 22
M  V30 22 2 22 23
M  V30 23 1 6 24
M  V30 24 2 24 25
M  V30 25 1 25 3
M  V30 26 1 23 7
M  V30 27 1 16 11
M  V30 28 1 23 18
M  V30 29 1 1 26
M  V30 30 1 1 27
M  V30 31 1 1 28
M  V30 32 1 4 29
M  V30 33 1 5 30
M  V30 34 1 12 31
M  V30 35 1 13 32
M  V30 36 1 14 33
M  V30 37 1 15 34
M  V30 38 1 16 35
M  V30 39 1 19 36
M  V30 40 1 21 37
M  V30 41 1 24 38
M  V30 42 1 25 39
M  V30 END BOND
M  V30 END CTAB
M  END
>  <Dataset>  (277) 
ChEMBL_Kinases

>  <Ligand_Instance>  (277) 
nan

>  <PDB_ID>  (277) 
nan

>  <Standardized_SMILES>  (277) 
COc1ccc(-n2c(=O)c(-c3ccccc3)nc3cncnc32)cc1

>  <Name>  (277) 
nan

>  <Pocket>  (277) 
nan

>  <ATP_Site>  (277) 
nan

>  <Peripheral>  (277) 
nan

>  <Num_H_Atoms_ProtBoundConf>  (277) 
nan

>  <Num_Resolved_Atoms>  (277) 
nan

>  <Num_Not_Resolved_Atoms>  (277) 
nan

$$$$
CHEMBL1554844
     RDKit          3D

  0  0  0  0  0  0  0  0  0  0999 V3000
M  V30 BEGIN CTAB
M  V30 COUNTS 67 68 0 0 0
M  V30 BEGIN ATOM
M  V30 1 C -0.302078 3.042754 5.002894 0
M  V30 2 C 0.507570 2.106137 5.829740 0
M  V30 3 C 0.963033 0.871963 5.111361 0
M  V30 4 C 1.830762 1.186671 3.920476 0
M  V30 5 C 2.304807 -0.008567 3.182479 0
M  V30 6 C 1.255335 -0.899581 2.597446 0
M  V30 7 C 0.387310 -0.173501 1.578368 0
M  V30 8 C 1.186832 0.353885 0.442695 0
M  V30 9 C 0.360388 0.398332 -0.779873 0
M  V30 10 C 0.736306 1.358036 -1.709319 0
M  V30 11 C 0.024320 1.484295 -2.907114 0
M  V30 12 O 0.379859 2.447752 -3.866718 0
M  V30 13 C 1.490552 3.267212 -3.541488 0
M  V30 14 C -1.042903 0.619662 -3.100103 0
M  V30 15 O -1.712892 0.785706 -4.301879 0
M  V30 16 C -2.811922 -0.013032 -4.636305 0
M  V30 17 C -1.421391 -0.334841 -2.182921 0
M  V30 18 C -0.701629 -0.435870 -1.011544 0
M  V30 19 C -0.975488 -1.397888 0.081471 0
M  V30 20 C -0.244815 -2.708236 -0.096004 0
M  V30 21 C -0.552187 -3.670184 0.977402 0
M  V30 22 O -1.376822 -2.889346 1.511584 0
M  V30 23 O -0.824026 -4.560229 1.954093 0
M  V30 24 C -1.715090 -4.425813 3.031743 0
M  V30 25 C -1.372095 -3.321444 3.996402 0
M  V30 26 C -0.532303 -3.379057 -1.392892 0
M  V30 27 O -1.059821 -4.530876 -1.518834 0
M  V30 28 O -0.265374 -2.847188 -2.647067 0
M  V30 29 C -0.577739 -3.572618 -3.834779 0
M  V30 30 C 0.188346 -4.857827 -3.822691 0
M  V30 31 O -0.721443 -0.889568 1.325457 0
M  V30 32 H 0.108858 3.304801 4.018757 0
M  V30 33 H -1.352434 2.716877 4.856976 0
M  V30 34 H -0.380563 4.003112 5.574600 0
M  V30 35 H 1.415755 2.636815 6.185870 0
M  V30 36 H -0.112588 1.798101 6.697386 0
M  V30 37 H 1.616782 0.309832 5.837611 0
M  V30 38 H 0.112138 0.204747 4.889719 0
M  V30 39 H 2.730279 1.714588 4.299763 0
M  V30 40 H 1.354041 1.900665 3.212741 0
M  V30 41 H 2.926477 -0.617939 3.862827 0
M  V30 42 H 2.969549 0.331637 2.364594 0
M  V30 43 H 0.594659 -1.329138 3.346376 0
M  V30 44 H 1.780858 -1.705388 2.042876 0
M  V30 45 H 0.030146 0.737708 2.163685 0
M  V30 46 H 1.549103 1.379585 0.697107 0
M  V30 47 H 2.080035 -0.289098 0.293828 0
M  V30 48 H 1.566239 2.020976 -1.549157 0
M  V30 49 H 2.403960 2.628230 -3.379746 0
M  V30 50 H 1.762208 3.950214 -4.364664 0
M  V30 51 H 1.348454 3.795923 -2.577046 0
M  V30 52 H -2.605613 -1.046367 -4.348943 0
M  V30 53 H -3.738574 0.346490 -4.151930 0
M  V30 54 H -2.986122 0.069711 -5.733439 0
M  V30 55 H -2.254512 -0.999566 -2.341195 0
M  V30 56 H -2.061619 -1.628006 0.033496 0
M  V30 57 H 0.860201 -2.571951 -0.064111 0
M  V30 58 H -1.674135 -5.400919 3.582293 0
M  V30 59 H -2.771166 -4.342518 2.684382 0
M  V30 60 H -1.697210 -2.315764 3.686457 0
M  V30 61 H -0.269857 -3.380821 4.228888 0
M  V30 62 H -1.877837 -3.492412 4.984075 0
M  V30 63 H -0.382276 -2.988871 -4.736737 0
M  V30 64 H -1.691435 -3.769334 -3.846737 0
M  V30 65 H 0.939713 -4.804543 -4.662486 0
M  V30 66 H -0.464119 -5.743730 -3.973709 0
M  V30 67 H 0.775968 -4.930603 -2.903715 0
M  V30 END ATOM
M  V30 BEGIN BOND
M  V30 1 1 1 2
M  V30 2 1 2 3
M  V30 3 1 3 4
M  V30 4 1 4 5
M  V30 5 1 5 6
M  V30 6 1 6 7
M  V30 7 1 7 8
M  V30 8 1 8 9
M  V30 9 2 9 10
M  V30 10 1 10 11
M  V30 11 1 11 12
M  V30 12 1 12 13
M  V30 13 2 11 14
M  V30 14 1 14 15
M  V30 15 1 15 16
M  V30 16 1 14 17
M  V30 17 2 17 18
M  V30 18 1 18 19
M  V30 19 1 19 20
M  V30 20 1 20 21
M  V30 21 2 21 22
M  V30 22 1 21 23
M  V30 23 1 23 24
M  V30 24 1 24 25
M  V30 25 1 20 26
M  V30 26 2 26 27
M  V30 27 1 26 28
M  V30 28 1 28 29
M  V30 29 1 29 30
M  V30 30 1 19 31
M  V30 31 1 31 7
M  V30 32 1 18 9
M  V30 33 1 1 32
M  V30 34 1 1 33
M  V30 35 1 1 34
M  V30 36 1 2 35
M  V30 37 1 2 36
M  V30 38 1 3 37
M  V30 39 1 3 38
M  V30 40 1 4 39
M  V30 41 1 4 40
M  V30 42 1 5 41
M  V30 43 1 5 42
M  V30 44 1 6 43
M  V30 45 1 6 44
M  V30 46 1 7 45
M  V30 47 1 8 46
M  V30 48 1 8 47
M  V30 49 1 10 48
M  V30 50 1 13 49
M  V30 51 1 13 50
M  V30 52 1 13 51
M  V30 53 1 16 52
M  V30 54 1 16 53
M  V30 55 1 16 54
M  V30 56 1 17 55
M  V30 57 1 19 56
M  V30 58 1 20 57
M  V30 59 1 24 58
M  V30 60 1 24 59
M  V30 61 1 25 60
M  V30 62 1 25 61
M  V30 63 1 25 62
M  V30 64 1 29 63
M  V30 65 1 29 64
M  V30 66 1 30 65
M  V30 67 1 30 66
M  V30 68 1 30 67
M  V30 END BOND
M  V30 END CTAB
M  END
>  <Dataset>  (278) 
ChEMBL_Kinases

>  <Ligand_Instance>  (278) 
nan

>  <PDB_ID>  (278) 
nan

>  <Standardized_SMILES>  (278) 
CCCCCCC1Cc2cc(OC)c(OC)cc2C(C(C(=O)OCC)C(=O)OCC)O1

>  <Name>  (278) 
nan

>  <Pocket>  (278) 
nan

>  <ATP_Site>  (278) 
nan

>  <Peripheral>  (278) 
nan

>  <Num_H_Atoms_ProtBoundConf>  (278) 
nan

>  <Num_Resolved_Atoms>  (278) 
nan

>  <Num_Not_Resolved_Atoms>  (278) 
nan

$$$$
CHEMBL1554935
     RDKit          3D

  0  0  0  0  0  0  0  0  0  0999 V3000
M  V30 BEGIN CTAB
M  V30 COUNTS 34 36 0 0 0
M  V30 BEGIN ATOM
M  V30 1 C -0.735233 -1.852324 2.675540 0
M  V30 2 N -0.687261 -2.490772 1.347837 0
M  V30 3 C 0.139002 -3.701146 1.465773 0
M  V30 4 C 1.532849 -3.196977 1.790763 0
M  V30 5 C 2.383748 -2.924441 0.710606 0
M  V30 6 C 3.597667 -2.477706 1.185584 0
M  V30 7 C 3.397045 -2.510235 2.559258 0
M  V30 8 O 2.193706 -2.930283 2.877056 0
M  V30 9 C -1.369969 -1.848650 0.251698 0
M  V30 10 C -0.978085 -0.501182 0.261392 0
M  V30 11 C -1.434636 0.426539 -0.662419 0
M  V30 12 C -1.055896 1.833785 -0.702327 0
M  V30 13 C -0.186941 2.410960 0.194134 0
M  V30 14 C 0.167038 3.744012 0.156146 0
M  V30 15 C -0.403317 4.534336 -0.861712 0
M  V30 16 N -1.257519 3.946935 -1.735183 0
M  V30 17 C -1.586604 2.642331 -1.675898 0
M  V30 18 N -2.295011 -0.064365 -1.584333 0
M  V30 19 C -2.674654 -1.362428 -1.595293 0
M  V30 20 N -2.230237 -2.288510 -0.689057 0
M  V30 21 H 0.307372 -1.590475 2.939515 0
M  V30 22 H -1.215805 -2.510277 3.427412 0
M  V30 23 H -1.274118 -0.877685 2.635875 0
M  V30 24 H -0.256972 -4.309374 2.276204 0
M  V30 25 H 0.138441 -4.313702 0.557602 0
M  V30 26 H 2.192615 -3.025334 -0.365728 0
M  V30 27 H 4.446201 -2.187963 0.605958 0
M  V30 28 H 4.128294 -2.229002 3.307295 0
M  V30 29 H -0.293853 -0.039047 0.968413 0
M  V30 30 H 0.269008 1.862581 0.975458 0
M  V30 31 H 0.839610 4.233070 0.835991 0
M  V30 32 H -0.152830 5.586961 -0.929535 0
M  V30 33 H -2.287950 2.250202 -2.429345 0
M  V30 34 H -3.357313 -1.783318 -2.316436 0
M  V30 END ATOM
M  V30 BEGIN BOND
M  V30 1 1 1 2
M  V30 2 1 2 3
M  V30 3 1 3 4
M  V30 4 2 4 5
M  V30 5 1 5 6
M  V30 6 2 6 7
M  V30 7 1 7 8
M  V30 8 1 2 9
M  V30 9 2 9 10
M  V30 10 1 10 11
M  V30 11 1 11 12
M  V30 12 2 12 13
M  V30 13 1 13 14
M  V30 14 2 14 15
M  V30 15 1 15 16
M  V30 16 2 16 17
M  V30 17 2 11 18
M  V30 18 1 18 19
M  V30 19 2 19 20
M  V30 20 1 8 4
M  V30 21 1 20 9
M  V30 22 1 17 12
M  V30 23 1 1 21
M  V30 24 1 1 22
M  V30 25 1 1 23
M  V30 26 1 3 24
M  V30 27 1 3 25
M  V30 28 1 5 26
M  V30 29 1 6 27
M  V30 30 1 7 28
M  V30 31 1 10 29
M  V30 32 1 13 30
M  V30 33 1 14 31
M  V30 34 1 15 32
M  V30 35 1 17 33
M  V30 36 1 19 34
M  V30 END BOND
M  V30 END CTAB
M  END
>  <Dataset>  (279) 
ChEMBL_Kinases

>  <Ligand_Instance>  (279) 
nan

>  <PDB_ID>  (279) 
nan

>  <Standardized_SMILES>  (279) 
CN(Cc1ccco1)c1cc(-c2cccnc2)ncn1

>  <Name>  (279) 
nan

>  <Pocket>  (279) 
nan

>  <ATP_Site>  (279) 
nan

>  <Peripheral>  (279) 
nan

>  <Num_H_Atoms_ProtBoundConf>  (279) 
nan

>  <Num_Resolved_Atoms>  (279) 
nan

>  <Num_Not_Resolved_Atoms>  (279) 
nan

$$$$
CHEMBL1555190
     RDKit          3D

  0  0  0  0  0  0  0  0  0  0999 V3000
M  V30 BEGIN CTAB
M  V30 COUNTS 38 40 0 0 0
M  V30 BEGIN ATOM
M  V30 1 C -2.028404 -3.059984 4.080283 0
M  V30 2 C -0.877036 -3.508873 3.250103 0
M  V30 3 O -0.196978 -4.547970 3.471251 0
M  V30 4 N -0.431257 -2.787984 2.106205 0
M  V30 5 C 0.683175 -3.338971 1.409793 0
M  V30 6 C 0.840322 -2.872425 -0.020704 0
M  V30 7 C 0.420214 -1.445024 -0.093381 0
M  V30 8 C -1.026078 -1.377115 0.282463 0
M  V30 9 C -1.127014 -1.587834 1.753921 0
M  V30 10 C 0.840305 -0.655241 -1.294530 0
M  V30 11 N 1.087944 0.457306 -0.397379 0
M  V30 12 C 1.051152 1.875119 -0.492645 0
M  V30 13 C 0.703083 2.442796 -1.702133 0
M  V30 14 C 0.661250 3.816704 -1.816208 0
M  V30 15 C 0.968755 4.626387 -0.716253 0
M  V30 16 C 1.314857 4.013278 0.485246 0
M  V30 17 C 1.361086 2.639196 0.614765 0
M  V30 18 C 1.381860 -0.550209 0.611235 0
M  V30 19 H -2.980916 -3.197394 3.533891 0
M  V30 20 H -1.922564 -1.970059 4.282451 0
M  V30 21 H -1.989842 -3.565590 5.062573 0
M  V30 22 H 0.646050 -4.465177 1.455646 0
M  V30 23 H 1.624462 -3.026053 1.945244 0
M  V30 24 H 1.886099 -3.046445 -0.336926 0
M  V30 25 H 0.212360 -3.508126 -0.657079 0
M  V30 26 H -1.547990 -0.479764 -0.084421 0
M  V30 27 H -1.533943 -2.236027 -0.205251 0
M  V30 28 H -0.871730 -0.699435 2.356932 0
M  V30 29 H -2.221341 -1.765525 1.969779 0
M  V30 30 H 0.107910 -0.483211 -2.086647 0
M  V30 31 H 1.842872 -1.047906 -1.633784 0
M  V30 32 H 0.452298 1.885255 -2.596649 0
M  V30 33 H 0.393226 4.336082 -2.745668 0
M  V30 34 H 0.948738 5.719078 -0.760374 0
M  V30 35 H 1.547186 4.672630 1.317395 0
M  V30 36 H 1.633638 2.169974 1.561136 0
M  V30 37 H 2.424378 -0.975396 0.521883 0
M  V30 38 H 1.196590 -0.277201 1.650017 0
M  V30 END ATOM
M  V30 BEGIN BOND
M  V30 1 1 1 2
M  V30 2 2 2 3
M  V30 3 1 2 4
M  V30 4 1 4 5
M  V30 5 1 5 6
M  V30 6 1 6 7
M  V30 7 1 7 8
M  V30 8 1 8 9
M  V30 9 1 7 10
M  V30 10 1 10 11
M  V30 11 1 11 12
M  V30 12 2 12 13
M  V30 13 1 13 14
M  V30 14 2 14 15
M  V30 15 1 15 16
M  V30 16 2 16 17
M  V30 17 1 11 18
M  V30 18 1 9 4
M  V30 19 1 17 12
M  V30 20 1 18 7
M  V30 21 1 1 19
M  V30 22 1 1 20
M  V30 23 1 1 21
M  V30 24 1 5 22
M  V30 25 1 5 23
M  V30 26 1 6 24
M  V30 27 1 6 25
M  V30 28 1 8 26
M  V30 29 1 8 27
M  V30 30 1 9 28
M  V30 31 1 9 29
M  V30 32 1 10 30
M  V30 33 1 10 31
M  V30 34 1 13 32
M  V30 35 1 14 33
M  V30 36 1 15 34
M  V30 37 1 16 35
M  V30 38 1 17 36
M  V30 39 1 18 37
M  V30 40 1 18 38
M  V30 END BOND
M  V30 END CTAB
M  END
>  <Dataset>  (280) 
ChEMBL_Kinases

>  <Ligand_Instance>  (280) 
nan

>  <PDB_ID>  (280) 
nan

>  <Standardized_SMILES>  (280) 
CC(=O)N1CCC2(CC1)CN(c1ccccc1)C2

>  <Name>  (280) 
nan

>  <Pocket>  (280) 
nan

>  <ATP_Site>  (280) 
nan

>  <Peripheral>  (280) 
nan

>  <Num_H_Atoms_ProtBoundConf>  (280) 
nan

>  <Num_Resolved_Atoms>  (280) 
nan

>  <Num_Not_Resolved_Atoms>  (280) 
nan

$$$$
CHEMBL1555208
     RDKit          3D

  0  0  0  0  0  0  0  0  0  0999 V3000
M  V30 BEGIN CTAB
M  V30 COUNTS 59 61 0 0 0
M  V30 BEGIN ATOM
M  V30 1 C 1.788137 -4.064270 -4.365962 0
M  V30 2 C 2.435704 -2.744120 -4.074480 0
M  V30 3 C 2.609166 -2.476366 -2.611241 0
M  V30 4 C 1.306831 -2.459967 -1.859382 0
M  V30 5 C 1.567342 -2.186105 -0.410884 0
M  V30 6 C 2.435237 -3.154976 0.319725 0
M  V30 7 C 1.117908 -1.169646 0.321180 0
M  V30 8 C 1.128735 -0.567380 1.664973 0 CFG=1
M  V30 9 N -0.097366 0.091421 2.016474 0
M  V30 10 P -0.581079 1.391337 1.005652 0
M  V30 11 O 0.559669 2.182531 0.428755 0
M  V30 12 C -1.535497 2.517274 2.021374 0
M  V30 13 C -1.482611 3.871420 1.905025 0
M  V30 14 C -2.241203 4.694659 2.715403 0
M  V30 15 C -3.090888 4.176120 3.684178 0
M  V30 16 C -3.170241 2.810627 3.830501 0
M  V30 17 C -2.398265 2.023322 3.003689 0
M  V30 18 C -1.687563 0.802493 -0.275761 0
M  V30 19 C -1.544043 1.286006 -1.565055 0
M  V30 20 C -2.407089 0.826788 -2.565018 0
M  V30 21 C -3.383427 -0.099080 -2.243432 0
M  V30 22 C -3.480362 -0.545790 -0.943109 0
M  V30 23 C -2.650355 -0.121252 0.079702 0
M  V30 24 C 1.324756 -1.623092 2.692844 0
M  V30 25 C 0.157461 -2.346220 2.968132 0
M  V30 26 C 0.106683 -3.383923 3.902269 0
M  V30 27 C 1.276002 -3.686244 4.567422 0
M  V30 28 C 2.434858 -2.985685 4.310030 0
M  V30 29 C 2.478501 -1.962318 3.386657 0
M  V30 30 H 0.762007 -4.146346 -3.945179 0
M  V30 31 H 1.650221 -4.135274 -5.465813 0
M  V30 32 H 2.405267 -4.885122 -3.963418 0
M  V30 33 H 3.425307 -2.745605 -4.557853 0
M  V30 34 H 1.854267 -1.919509 -4.559992 0
M  V30 35 H 3.116956 -1.488534 -2.526092 0
M  V30 36 H 3.314747 -3.212096 -2.192848 0
M  V30 37 H 0.621417 -1.687041 -2.200681 0
M  V30 38 H 0.811833 -3.447484 -1.977310 0
M  V30 39 H 1.928119 -3.685341 1.125656 0
M  V30 40 H 2.796393 -3.966665 -0.377956 0
M  V30 41 H 3.338727 -2.637910 0.710190 0
M  V30 42 H 0.498547 -0.525753 -0.334495 0
M  V30 43 H 2.017341 0.115532 1.733558 0
M  V30 44 H -0.170678 0.251267 3.023224 0
M  V30 45 H -0.828127 4.303393 1.157432 0
M  V30 46 H -2.199034 5.781993 2.622323 0
M  V30 47 H -3.705823 4.786188 4.343526 0
M  V30 48 H -3.798182 2.281631 4.552639 0
M  V30 49 H -2.441376 0.927360 3.098188 0
M  V30 50 H -0.759159 2.009574 -1.749453 0
M  V30 51 H -2.263605 1.227339 -3.557829 0
M  V30 52 H -4.044696 -0.450256 -3.012019 0
M  V30 53 H -4.262438 -1.274390 -0.732120 0
M  V30 54 H -2.736602 -0.480556 1.100276 0
M  V30 55 H -0.803266 -2.151658 2.470965 0
M  V30 56 H -0.802469 -3.921179 4.092871 0
M  V30 57 H 1.266508 -4.486248 5.297433 0
M  V30 58 H 3.372377 -3.195906 4.813870 0
M  V30 59 H 3.327288 -1.353901 3.110794 0
M  V30 END ATOM
M  V30 BEGIN BOND
M  V30 1 1 1 2
M  V30 2 1 2 3
M  V30 3 1 3 4
M  V30 4 1 4 5
M  V30 5 1 5 6
M  V30 6 2 5 7 CFG=2
M  V30 7 1 7 8
M  V30 8 1 8 9
M  V30 9 1 9 10
M  V30 10 2 10 11
M  V30 11 1 10 12
M  V30 12 2 12 13
M  V30 13 1 13 14
M  V30 14 2 14 15
M  V30 15 1 15 16
M  V30 16 2 16 17
M  V30 17 1 10 18
M  V30 18 2 18 19
M  V30 19 1 19 20
M  V30 20 2 20 21
M  V30 21 1 21 22
M  V30 22 2 22 23
M  V30 23 1 8 24
M  V30 24 2 24 25
M  V30 25 1 25 26
M  V30 26 2 26 27
M  V30 27 1 27 28
M  V30 28 2 28 29
M  V30 29 1 17 12
M  V30 30 1 23 18
M  V30 31 1 29 24
M  V30 32 1 1 30
M  V30 33 1 1 31
M  V30 34 1 1 32
M  V30 35 1 2 33
M  V30 36 1 2 34
M  V30 37 1 3 35
M  V30 38 1 3 36
M  V30 39 1 4 37
M  V30 40 1 4 38
M  V30 41 1 6 39
M  V30 42 1 6 40
M  V30 43 1 6 41
M  V30 44 1 7 42
M  V30 45 1 8 43 CFG=3
M  V30 46 1 9 44
M  V30 47 1 13 45
M  V30 48 1 14 46
M  V30 49 1 15 47
M  V30 50 1 16 48
M  V30 51 1 17 49
M  V30 52 1 19 50
M  V30 53 1 20 51
M  V30 54 1 21 52
M  V30 55 1 22 53
M  V30 56 1 23 54
M  V30 57 1 25 55
M  V30 58 1 26 56
M  V30 59 1 27 57
M  V30 60 1 28 58
M  V30 61 1 29 59
M  V30 END BOND
M  V30 END CTAB
M  END
>  <Dataset>  (281) 
ChEMBL_Kinases

>  <Ligand_Instance>  (281) 
nan

>  <PDB_ID>  (281) 
nan

>  <Standardized_SMILES>  (281) 
CCCCC(C)=C[C@@H](NP(=O)(c1ccccc1)c1ccccc1)c1ccccc1

>  <Name>  (281) 
nan

>  <Pocket>  (281) 
nan

>  <ATP_Site>  (281) 
nan

>  <Peripheral>  (281) 
nan

>  <Num_H_Atoms_ProtBoundConf>  (281) 
nan

>  <Num_Resolved_Atoms>  (281) 
nan

>  <Num_Not_Resolved_Atoms>  (281) 
nan

$$$$
CHEMBL1555517
     RDKit          3D

  0  0  0  0  0  0  0  0  0  0999 V3000
M  V30 BEGIN CTAB
M  V30 COUNTS 32 34 0 0 0
M  V30 BEGIN ATOM
M  V30 1 O 2.583232 -2.126206 5.599883 0
M  V30 2 C 1.326061 -2.083228 5.633572 0
M  V30 3 O 0.647882 -2.378947 6.802024 0
M  V30 4 C 0.543024 -1.726842 4.465741 0
M  V30 5 C 0.942772 -1.409393 3.261333 0
M  V30 6 C 0.381713 -1.035131 1.995851 0
M  V30 7 N 1.164703 -0.772208 0.930819 0
M  V30 8 C 0.398697 -0.450672 -0.113961 0
M  V30 9 C 0.977762 -0.113280 -1.416987 0
M  V30 10 C 0.985984 -0.985909 -2.510442 0
M  V30 11 C 1.559340 -0.574589 -3.705940 0
M  V30 12 C 2.122409 0.701463 -3.811550 0
M  V30 13 C 2.109189 1.564146 -2.715477 0
M  V30 14 C 1.533841 1.155734 -1.510499 0
M  V30 15 N -0.904273 -0.486290 0.209264 0
M  V30 16 C -2.041565 -0.252204 -0.464713 0
M  V30 17 C -3.274217 -0.369382 0.142059 0
M  V30 18 C -3.287379 -0.737394 1.470895 0
M  V30 19 C -2.092659 -0.965170 2.113540 0
M  V30 20 C -0.875430 -0.842558 1.489481 0
M  V30 21 H 1.100634 -2.260494 7.721971 0
M  V30 22 H -0.527090 -1.699175 4.525717 0
M  V30 23 H 2.045034 -1.475478 3.334668 0
M  V30 24 H 0.534663 -1.937669 -2.338740 0
M  V30 25 H 1.554490 -1.271398 -4.545243 0
M  V30 26 H 2.561813 0.997678 -4.751038 0
M  V30 27 H 2.554218 2.558314 -2.816575 0
M  V30 28 H 1.539900 1.838766 -0.691666 0
M  V30 29 H -1.917218 0.028085 -1.493886 0
M  V30 30 H -4.127626 -0.161284 -0.480673 0
M  V30 31 H -4.256548 -0.827784 1.941692 0
M  V30 32 H -2.165469 -1.245797 3.136254 0
M  V30 END ATOM
M  V30 BEGIN BOND
M  V30 1 2 1 2
M  V30 2 1 2 3
M  V30 3 1 2 4
M  V30 4 2 4 5
M  V30 5 1 5 6
M  V30 6 1 6 7
M  V30 7 2 7 8
M  V30 8 1 8 9
M  V30 9 2 9 10
M  V30 10 1 10 11
M  V30 11 2 11 12
M  V30 12 1 12 13
M  V30 13 2 13 14
M  V30 14 1 8 15
M  V30 15 1 15 16
M  V30 16 2 16 17
M  V30 17 1 17 18
M  V30 18 2 18 19
M  V30 19 1 19 20
M  V30 20 2 20 6
M  V30 21 1 14 9
M  V30 22 1 20 15
M  V30 23 1 3 21
M  V30 24 1 4 22
M  V30 25 1 5 23
M  V30 26 1 10 24
M  V30 27 1 11 25
M  V30 28 1 12 26
M  V30 29 1 13 27
M  V30 30 1 14 28
M  V30 31 1 16 29
M  V30 32 1 17 30
M  V30 33 1 18 31
M  V30 34 1 19 32
M  V30 END BOND
M  V30 END CTAB
M  END
>  <Dataset>  (282) 
ChEMBL_Kinases

>  <Ligand_Instance>  (282) 
nan

>  <PDB_ID>  (282) 
nan

>  <Standardized_SMILES>  (282) 
O=C(O)/C=C/c1nc(-c2ccccc2)n2ccccc12

>  <Name>  (282) 
nan

>  <Pocket>  (282) 
nan

>  <ATP_Site>  (282) 
nan

>  <Peripheral>  (282) 
nan

>  <Num_H_Atoms_ProtBoundConf>  (282) 
nan

>  <Num_Resolved_Atoms>  (282) 
nan

>  <Num_Not_Resolved_Atoms>  (282) 
nan

$$$$
CHEMBL1555591
     RDKit          3D

  0  0  0  0  0  0  0  0  0  0999 V3000
M  V30 BEGIN CTAB
M  V30 COUNTS 57 59 0 0 0
M  V30 BEGIN ATOM
M  V30 1 C 0.322628 -3.879383 4.224547 0
M  V30 2 O 1.252648 -3.209415 5.052286 0
M  V30 3 C 1.951600 -2.082401 4.608167 0
M  V30 4 C 2.845393 -1.478470 5.471897 0
M  V30 5 C 3.527100 -0.370293 5.023384 0
M  V30 6 C 3.322516 0.111116 3.765999 0
M  V30 7 C 2.431009 -0.459378 2.849723 0
M  V30 8 N 2.259560 0.087150 1.565202 0
M  V30 9 C 1.416052 -0.480898 0.547006 0
M  V30 10 N 0.634769 0.395873 -0.250234 0
M  V30 11 C 1.186742 1.285700 -1.034655 0
M  V30 12 S 2.940882 1.573919 -1.259916 0
M  V30 13 N 0.312869 2.116378 -1.791556 0
M  V30 14 C -1.099963 1.961282 -1.647490 0
M  V30 15 C -1.914586 1.131063 -2.379661 0
M  V30 16 C -3.273971 1.097049 -2.113820 0
M  V30 17 C -3.784934 1.901602 -1.114149 0
M  V30 18 C -5.265721 1.813661 -0.880598 0
M  V30 19 C -2.968722 2.750075 -0.362247 0
M  V30 20 C -1.608922 2.777275 -0.635691 0
M  V30 21 C -0.842655 3.706202 0.215945 0
M  V30 22 N 1.458959 -1.766835 0.460150 0
M  V30 23 C 0.742908 -2.565731 -0.437586 0
M  V30 24 N 1.010644 -3.866351 -0.269786 0
M  V30 25 C 0.440802 -4.851091 -1.020993 0
M  V30 26 C 0.734024 -6.296735 -0.839395 0
M  V30 27 C -0.458132 -4.492380 -2.005245 0
M  V30 28 C -0.719218 -3.143027 -2.160368 0
M  V30 29 C -1.678531 -2.760903 -3.210811 0
M  V30 30 N -0.123524 -2.219743 -1.386247 0
M  V30 31 C 1.780516 -1.561108 3.353816 0
M  V30 32 H 0.876398 -4.423158 3.457867 0
M  V30 33 H -0.291177 -4.530703 4.886326 0
M  V30 34 H -0.368334 -3.179362 3.691622 0
M  V30 35 H 3.051891 -1.809923 6.476626 0
M  V30 36 H 4.234465 0.129167 5.670467 0
M  V30 37 H 3.883422 0.993395 3.447348 0
M  V30 38 H 2.787602 0.974073 1.347522 0
M  V30 39 H 3.234198 2.881280 -0.808374 0
M  V30 40 H 0.687689 2.843214 -2.455840 0
M  V30 41 H -1.333046 0.591082 -3.103860 0
M  V30 42 H -3.820997 0.423386 -2.733369 0
M  V30 43 H -5.550058 2.298847 0.081271 0
M  V30 44 H -5.757687 2.376359 -1.684410 0
M  V30 45 H -5.586738 0.764475 -0.791598 0
M  V30 46 H -3.486321 3.334716 0.396807 0
M  V30 47 H -1.033021 3.526936 1.288190 0
M  V30 48 H 0.217322 3.735889 -0.051954 0
M  V30 49 H -1.254281 4.730834 0.008321 0
M  V30 50 H -0.132630 -6.894044 -1.165870 0
M  V30 51 H 0.942115 -6.501384 0.245040 0
M  V30 52 H 1.650643 -6.602187 -1.410801 0
M  V30 53 H -0.923723 -5.259343 -2.615089 0
M  V30 54 H -1.622255 -3.447035 -4.099091 0
M  V30 55 H -1.508606 -1.748627 -3.606368 0
M  V30 56 H -2.743162 -2.868948 -2.866801 0
M  V30 57 H 1.075564 -2.076897 2.749434 0
M  V30 END ATOM
M  V30 BEGIN BOND
M  V30 1 1 1 2
M  V30 2 1 2 3
M  V30 3 2 3 4
M  V30 4 1 4 5
M  V30 5 2 5 6
M  V30 6 1 6 7
M  V30 7 1 7 8
M  V30 8 1 8 9
M  V30 9 1 9 10
M  V30 10 2 10 11 CFG=2
M  V30 11 1 11 12
M  V30 12 1 11 13
M  V30 13 1 13 14
M  V30 14 2 14 15
M  V30 15 1 15 16
M  V30 16 2 16 17
M  V30 17 1 17 18
M  V30 18 1 17 19
M  V30 19 2 19 20
M  V30 20 1 20 21
M  V30 21 2 9 22 CFG=2
M  V30 22 1 22 23
M  V30 23 2 23 24
M  V30 24 1 24 25
M  V30 25 1 25 26
M  V30 26 2 25 27
M  V30 27 1 27 28
M  V30 28 1 28 29
M  V30 29 2 28 30
M  V30 30 2 7 31
M  V30 31 1 31 3
M  V30 32 1 20 14
M  V30 33 1 30 23
M  V30 34 1 1 32
M  V30 35 1 1 33
M  V30 36 1 1 34
M  V30 37 1 4 35
M  V30 38 1 5 36
M  V30 39 1 6 37
M  V30 40 1 8 38
M  V30 41 1 12 39
M  V30 42 1 13 40
M  V30 43 1 15 41
M  V30 44 1 16 42
M  V30 45 1 18 43
M  V30 46 1 18 44
M  V30 47 1 18 45
M  V30 48 1 19 46
M  V30 49 1 21 47
M  V30 50 1 21 48
M  V30 51 1 21 49
M  V30 52 1 26 50
M  V30 53 1 26 51
M  V30 54 1 26 52
M  V30 55 1 27 53
M  V30 56 1 29 54
M  V30 57 1 29 55
M  V30 58 1 29 56
M  V30 59 1 31 57
M  V30 END BOND
M  V30 END CTAB
M  END
>  <Dataset>  (283) 
ChEMBL_Kinases

>  <Ligand_Instance>  (283) 
nan

>  <PDB_ID>  (283) 
nan

>  <Standardized_SMILES>  (283) 
COc1cccc(NC(N=C(S)Nc2ccc(C)cc2C)=Nc2nc(C)cc(C)n2)c1

>  <Name>  (283) 
nan

>  <Pocket>  (283) 
nan

>  <ATP_Site>  (283) 
nan

>  <Peripheral>  (283) 
nan

>  <Num_H_Atoms_ProtBoundConf>  (283) 
nan

>  <Num_Resolved_Atoms>  (283) 
nan

>  <Num_Not_Resolved_Atoms>  (283) 
nan

$$$$
CHEMBL1556063
     RDKit          3D

  0  0  0  0  0  0  0  0  0  0999 V3000
M  V30 BEGIN CTAB
M  V30 COUNTS 41 43 0 0 0
M  V30 BEGIN ATOM
M  V30 1 C 0.629800 -5.828344 4.295960 0
M  V30 2 O -0.666689 -5.277701 4.099248 0
M  V30 3 C -0.760332 -4.078551 3.412909 0
M  V30 4 C 0.405507 -3.463209 2.946000 0
M  V30 5 C 0.325838 -2.268472 2.260898 0
M  V30 6 C -0.912668 -1.699466 2.048067 0
M  V30 7 C -0.952924 -0.438134 1.320642 0
M  V30 8 C -1.816569 0.601415 1.871648 0
M  V30 9 S -1.563566 2.022742 0.638540 0
M  V30 10 C -0.481903 1.158024 -0.323080 0
M  V30 11 N 0.151750 1.726508 -1.554020 0
M  V30 12 C 1.355450 2.353527 -1.204375 0
M  V30 13 O 1.794036 2.404884 -0.025771 0
M  V30 14 C 2.184106 2.996937 -2.220527 0
M  V30 15 C 3.387944 3.640937 -1.970942 0
M  V30 16 C 3.907340 4.139065 -3.171009 0
M  V30 17 C 5.177966 4.899361 -3.385904 0
M  V30 18 O 3.007888 3.778731 -4.074862 0
M  V30 19 N 2.031726 3.134187 -3.550914 0
M  V30 20 C -0.299020 -0.064740 0.182839 0
M  V30 21 C 0.589519 -1.024283 -0.452329 0
M  V30 22 N 1.322706 -1.788781 -0.976781 0
M  V30 23 C -2.054014 -2.297118 2.502405 0
M  V30 24 C -1.984811 -3.477368 3.180096 0
M  V30 25 O -3.094995 -4.139967 3.669144 0
M  V30 26 C -4.368214 -3.566524 3.457028 0
M  V30 27 H 1.040273 -6.006213 3.280859 0
M  V30 28 H 0.552485 -6.780143 4.885901 0
M  V30 29 H 1.283380 -5.076868 4.786489 0
M  V30 30 H 1.392518 -3.904141 3.108351 0
M  V30 31 H 1.257375 -1.809100 1.906555 0
M  V30 32 H -2.457801 0.478699 2.836243 0
M  V30 33 H -0.203175 1.685646 -2.511916 0
M  V30 34 H 3.920280 3.787891 -1.042322 0
M  V30 35 H 4.982535 5.941270 -3.688309 0
M  V30 36 H 5.736992 4.849087 -2.422205 0
M  V30 37 H 5.791456 4.396999 -4.143625 0
M  V30 38 H -3.007314 -1.822517 2.317345 0
M  V30 39 H -4.629285 -3.728142 2.397304 0
M  V30 40 H -5.086732 -4.078847 4.147729 0
M  V30 41 H -4.336022 -2.473332 3.721775 0
M  V30 END ATOM
M  V30 BEGIN BOND
M  V30 1 1 1 2
M  V30 2 1 2 3
M  V30 3 2 3 4
M  V30 4 1 4 5
M  V30 5 2 5 6
M  V30 6 1 6 7
M  V30 7 2 7 8
M  V30 8 1 8 9
M  V30 9 1 9 10
M  V30 10 1 10 11
M  V30 11 1 11 12
M  V30 12 2 12 13
M  V30 13 1 12 14
M  V30 14 1 14 15
M  V30 15 2 15 16
M  V30 16 1 16 17
M  V30 17 1 16 18
M  V30 18 1 18 19
M  V30 19 2 10 20
M  V30 20 1 20 21
M  V30 21 3 21 22
M  V30 22 1 6 23
M  V30 23 2 23 24
M  V30 24 1 24 25
M  V30 25 1 25 26
M  V30 26 1 24 3
M  V30 27 1 20 7
M  V30 28 2 19 14
M  V30 29 1 1 27
M  V30 30 1 1 28
M  V30 31 1 1 29
M  V30 32 1 4 30
M  V30 33 1 5 31
M  V30 34 1 8 32
M  V30 35 1 11 33
M  V30 36 1 15 34
M  V30 37 1 17 35
M  V30 38 1 17 36
M  V30 39 1 17 37
M  V30 40 1 23 38
M  V30 41 1 26 39
M  V30 42 1 26 40
M  V30 43 1 26 41
M  V30 END BOND
M  V30 END CTAB
M  END
>  <Dataset>  (284) 
ChEMBL_Kinases

>  <Ligand_Instance>  (284) 
nan

>  <PDB_ID>  (284) 
nan

>  <Standardized_SMILES>  (284) 
COc1ccc(-c2csc(NC(=O)c3cc(C)on3)c2C#N)cc1OC

>  <Name>  (284) 
nan

>  <Pocket>  (284) 
nan

>  <ATP_Site>  (284) 
nan

>  <Peripheral>  (284) 
nan

>  <Num_H_Atoms_ProtBoundConf>  (284) 
nan

>  <Num_Resolved_Atoms>  (284) 
nan

>  <Num_Not_Resolved_Atoms>  (284) 
nan

$$$$
CHEMBL155567
     RDKit          3D

  0  0  0  0  0  0  0  0  0  0999 V3000
M  V30 BEGIN CTAB
M  V30 COUNTS 39 41 0 0 0
M  V30 BEGIN ATOM
M  V30 1 C -1.174892 -5.007922 -1.073015 0
M  V30 2 C 0.225370 -4.884537 -0.644527 0
M  V30 3 C 0.951314 -6.033095 -0.300640 0
M  V30 4 C 2.246371 -6.000675 0.104239 0
M  V30 5 C 2.894900 -4.787306 0.186903 0
M  V30 6 C 2.181967 -3.656076 -0.151142 0
M  V30 7 C 0.866768 -3.638135 -0.567214 0
M  V30 8 C 0.147748 -2.426533 -0.916721 0
M  V30 9 O -0.473187 -2.636497 -2.007320 0
M  V30 10 C -0.039338 -1.120898 -0.383395 0
M  V30 11 C 0.880785 -0.238254 0.133156 0
M  V30 12 C 0.605267 1.013278 0.633330 0
M  V30 13 C -0.713988 1.408154 0.610318 0
M  V30 14 N -1.070996 2.684701 1.129663 0
M  V30 15 C -0.447194 3.541191 2.078389 0
M  V30 16 C -0.686660 4.919486 2.087573 0
M  V30 17 C -0.076233 5.709749 3.031746 0
M  V30 18 C 0.779936 5.231000 3.999329 0
M  V30 19 C 1.028407 3.863378 4.004385 0
M  V30 20 C 0.411576 3.078056 3.053528 0
M  V30 21 C -1.704504 0.590865 0.111074 0
M  V30 22 C -1.359590 -0.652406 -0.375599 0
M  V30 23 Cl -2.733201 -1.589653 -0.986897 0
M  V30 24 H -1.505573 -6.054213 -0.873992 0
M  V30 25 H -1.801180 -4.370476 -0.416764 0
M  V30 26 H -1.314513 -4.804540 -2.143555 0
M  V30 27 H 0.434813 -6.999377 -0.366677 0
M  V30 28 H 2.757739 -6.916574 0.357258 0
M  V30 29 H 3.926328 -4.767346 0.509890 0
M  V30 30 H 2.751032 -2.757352 -0.065297 0
M  V30 31 H 1.904381 -0.576669 0.134453 0
M  V30 32 H 1.436092 1.598803 0.997486 0
M  V30 33 H -1.967248 3.095363 0.753058 0
M  V30 34 H -1.349790 5.362459 1.354463 0
M  V30 35 H -0.299751 6.785903 2.992807 0
M  V30 36 H 1.230373 5.900558 4.715020 0
M  V30 37 H 1.699303 3.486219 4.762300 0
M  V30 38 H 0.662118 2.042277 3.154275 0
M  V30 39 H -2.717787 0.966289 0.124229 0
M  V30 END ATOM
M  V30 BEGIN BOND
M  V30 1 1 1 2
M  V30 2 2 2 3
M  V30 3 1 3 4
M  V30 4 2 4 5
M  V30 5 1 5 6
M  V30 6 2 6 7
M  V30 7 1 7 8
M  V30 8 2 8 9
M  V30 9 1 8 10
M  V30 10 2 10 11
M  V30 11 1 11 12
M  V30 12 2 12 13
M  V30 13 1 13 14
M  V30 14 1 14 15
M  V30 15 2 15 16
M  V30 16 1 16 17
M  V30 17 2 17 18
M  V30 18 1 18 19
M  V30 19 2 19 20
M  V30 20 1 13 21
M  V30 21 2 21 22
M  V30 22 1 22 23
M  V30 23 1 7 2
M  V30 24 1 22 10
M  V30 25 1 20 15
M  V30 26 1 1 24
M  V30 27 1 1 25
M  V30 28 1 1 26
M  V30 29 1 3 27
M  V30 30 1 4 28
M  V30 31 1 5 29
M  V30 32 1 6 30
M  V30 33 1 11 31
M  V30 34 1 12 32
M  V30 35 1 14 33
M  V30 36 1 16 34
M  V30 37 1 17 35
M  V30 38 1 18 36
M  V30 39 1 19 37
M  V30 40 1 20 38
M  V30 41 1 21 39
M  V30 END BOND
M  V30 END CTAB
M  END
>  <Dataset>  (285) 
ChEMBL_Kinases

>  <Ligand_Instance>  (285) 
nan

>  <PDB_ID>  (285) 
nan

>  <Standardized_SMILES>  (285) 
Cc1ccccc1C(=O)c1ccc(Nc2ccccc2)cc1Cl

>  <Name>  (285) 
nan

>  <Pocket>  (285) 
nan

>  <ATP_Site>  (285) 
nan

>  <Peripheral>  (285) 
nan

>  <Num_H_Atoms_ProtBoundConf>  (285) 
nan

>  <Num_Resolved_Atoms>  (285) 
nan

>  <Num_Not_Resolved_Atoms>  (285) 
nan

$$$$
CHEMBL1555713
     RDKit          3D

  0  0  0  0  0  0  0  0  0  0999 V3000
M  V30 BEGIN CTAB
M  V30 COUNTS 29 31 0 0 0
M  V30 BEGIN ATOM
M  V30 1 C -1.292917 -3.240178 3.366399 0
M  V30 2 C -1.811117 -1.991221 3.634469 0
M  V30 3 C -1.150652 -0.872671 3.110513 0
M  V30 4 C -0.008232 -1.051703 2.346559 0
M  V30 5 N 0.697639 0.066131 1.808162 0
M  V30 6 C 1.757824 -0.002540 0.866126 0
M  V30 7 N 3.033156 -0.285700 1.175377 0
M  V30 8 C 4.023987 -0.332920 0.273031 0
M  V30 9 N 3.695487 -0.077748 -1.010098 0
M  V30 10 C 2.436335 0.211019 -1.375952 0
M  V30 11 C 1.382493 0.267455 -0.456436 0
M  V30 12 C 0.067464 0.586147 -0.978608 0
M  V30 13 C -1.159278 0.035663 -0.809667 0
M  V30 14 C -2.059547 0.765226 -1.554026 0
M  V30 15 O -1.394997 1.722832 -2.150487 0
M  V30 16 C -0.135222 1.660772 -1.843645 0
M  V30 17 C 0.462408 -2.334019 2.112965 0
M  V30 18 C -0.161575 -3.450909 2.612256 0
M  V30 19 H -1.796954 -4.132303 3.770162 0
M  V30 20 H -2.717116 -1.876667 4.240105 0
M  V30 21 H -1.560703 0.114360 3.322645 0
M  V30 22 H 0.431883 1.023959 2.117635 0
M  V30 23 H 4.982367 -0.576414 0.705610 0
M  V30 24 H 2.268842 0.401991 -2.429452 0
M  V30 25 H -1.356431 -0.812549 -0.202525 0
M  V30 26 H -3.136205 0.566413 -1.623914 0
M  V30 27 H 0.574220 2.393213 -2.258097 0
M  V30 28 H 1.372458 -2.413191 1.500092 0
M  V30 29 H 0.277281 -4.416847 2.379495 0
M  V30 END ATOM
M  V30 BEGIN BOND
M  V30 1 2 1 2
M  V30 2 1 2 3
M  V30 3 2 3 4
M  V30 4 1 4 5
M  V30 5 1 5 6
M  V30 6 2 6 7
M  V30 7 1 7 8
M  V30 8 2 8 9
M  V30 9 1 9 10
M  V30 10 2 10 11
M  V30 11 1 11 12
M  V30 12 1 12 13
M  V30 13 2 13 14
M  V30 14 1 14 15
M  V30 15 1 15 16
M  V30 16 1 4 17
M  V30 17 2 17 18
M  V30 18 1 18 1
M  V30 19 1 11 6
M  V30 20 2 16 12
M  V30 21 1 1 19
M  V30 22 1 2 20
M  V30 23 1 3 21
M  V30 24 1 5 22
M  V30 25 1 8 23
M  V30 26 1 10 24
M  V30 27 1 13 25
M  V30 28 1 14 26
M  V30 29 1 16 27
M  V30 30 1 17 28
M  V30 31 1 18 29
M  V30 END BOND
M  V30 END CTAB
M  END
>  <Dataset>  (286) 
ChEMBL_Kinases

>  <Ligand_Instance>  (286) 
nan

>  <PDB_ID>  (286) 
nan

>  <Standardized_SMILES>  (286) 
c1ccc(Nc2ncncc2-c2ccoc2)cc1

>  <Name>  (286) 
nan

>  <Pocket>  (286) 
nan

>  <ATP_Site>  (286) 
nan

>  <Peripheral>  (286) 
nan

>  <Num_H_Atoms_ProtBoundConf>  (286) 
nan

>  <Num_Resolved_Atoms>  (286) 
nan

>  <Num_Not_Resolved_Atoms>  (286) 
nan

$$$$
CHEMBL1555730
     RDKit          3D

  0  0  0  0  0  0  0  0  0  0999 V3000
M  V30 BEGIN CTAB
M  V30 COUNTS 33 35 0 0 0
M  V30 BEGIN ATOM
M  V30 1 C 0.338832 -6.354695 3.401080 0
M  V30 2 O 1.425046 -5.446576 3.312397 0
M  V30 3 C 1.386044 -4.253224 2.604251 0
M  V30 4 O 0.436037 -3.757551 1.933378 0
M  V30 5 N 2.588300 -3.497130 2.650588 0
M  V30 6 C 2.454508 -2.234879 1.864226 0
M  V30 7 N 2.693245 -2.103204 0.776075 0
M  V30 8 C 2.619309 -1.055999 -0.024010 0
M  V30 9 C 2.179762 0.070852 0.548349 0
M  V30 10 C 1.891953 1.502921 0.198771 0
M  V30 11 N 0.512057 1.652968 -0.243115 0
M  V30 12 C -0.591518 1.942919 0.636148 0
M  V30 13 O -0.596626 2.115891 1.884762 0
M  V30 14 C -1.774891 2.002640 -0.242497 0
M  V30 15 C -3.118009 2.243214 0.013287 0
M  V30 16 C -4.086341 2.255776 -0.968872 0
M  V30 17 C -3.650551 2.010925 -2.261312 0
M  V30 18 C -2.329813 1.765454 -2.577412 0
M  V30 19 C -1.396885 1.763976 -1.554119 0
M  V30 20 C 0.054378 1.538182 -1.582778 0
M  V30 21 O 0.799612 1.287816 -2.572212 0
M  V30 22 S 1.875596 -0.457574 2.311669 0
M  V30 23 H -0.448727 -5.981655 2.695565 0
M  V30 24 H -0.007219 -6.360910 4.452633 0
M  V30 25 H 0.592625 -7.369787 3.035799 0
M  V30 26 H 3.481140 -3.707836 3.133048 0
M  V30 27 H 2.854584 -0.929656 -1.092816 0
M  V30 28 H 2.079811 2.142899 1.110288 0
M  V30 29 H 2.571280 1.777076 -0.624156 0
M  V30 30 H -3.431907 2.433144 1.042595 0
M  V30 31 H -5.133460 2.446627 -0.745513 0
M  V30 32 H -4.352388 2.002454 -3.100621 0
M  V30 33 H -1.974805 1.572872 -3.580368 0
M  V30 END ATOM
M  V30 BEGIN BOND
M  V30 1 1 1 2
M  V30 2 1 2 3
M  V30 3 2 3 4
M  V30 4 1 3 5
M  V30 5 1 5 6
M  V30 6 2 6 7
M  V30 7 1 7 8
M  V30 8 2 8 9
M  V30 9 1 9 10
M  V30 10 1 10 11
M  V30 11 1 11 12
M  V30 12 2 12 13
M  V30 13 1 12 14
M  V30 14 2 14 15
M  V30 15 1 15 16
M  V30 16 2 16 17
M  V30 17 1 17 18
M  V30 18 2 18 19
M  V30 19 1 19 20
M  V30 20 2 20 21
M  V30 21 1 9 22
M  V30 22 1 22 6
M  V30 23 1 20 11
M  V30 24 1 19 14
M  V30 25 1 1 23
M  V30 26 1 1 24
M  V30 27 1 1 25
M  V30 28 1 5 26
M  V30 29 1 8 27
M  V30 30 1 10 28
M  V30 31 1 10 29
M  V30 32 1 15 30
M  V30 33 1 16 31
M  V30 34 1 17 32
M  V30 35 1 18 33
M  V30 END BOND
M  V30 END CTAB
M  END
>  <Dataset>  (287) 
ChEMBL_Kinases

>  <Ligand_Instance>  (287) 
nan

>  <PDB_ID>  (287) 
nan

>  <Standardized_SMILES>  (287) 
COC(=O)Nc1ncc(CN2C(=O)c3ccccc3C2=O)s1

>  <Name>  (287) 
nan

>  <Pocket>  (287) 
nan

>  <ATP_Site>  (287) 
nan

>  <Peripheral>  (287) 
nan

>  <Num_H_Atoms_ProtBoundConf>  (287) 
nan

>  <Num_Resolved_Atoms>  (287) 
nan

>  <Num_Not_Resolved_Atoms>  (287) 
nan

$$$$
CHEMBL1555736
     RDKit          3D

  0  0  0  0  0  0  0  0  0  0999 V3000
M  V30 BEGIN CTAB
M  V30 COUNTS 58 60 0 0 0
M  V30 BEGIN ATOM
M  V30 1 C 1.057418 -5.179418 4.545761 0
M  V30 2 C 1.252777 -6.045784 3.340943 0
M  V30 3 O 0.783614 -5.516715 2.141300 0
M  V30 4 C 1.201741 -4.350349 1.562668 0
M  V30 5 C 2.182869 -3.556565 2.157220 0
M  V30 6 C 2.566189 -2.384753 1.524273 0
M  V30 7 C 2.026153 -1.934651 0.306511 0
M  V30 8 C 2.665159 -0.675061 -0.093719 0
M  V30 9 C 2.194615 0.528076 0.601540 0
M  V30 10 N 2.966890 0.938888 1.654919 0
M  V30 11 C 2.689571 1.985134 2.423772 0
M  V30 12 C 1.575923 2.774911 2.232625 0
M  V30 13 C 0.777593 2.384457 1.174759 0
M  V30 14 C -0.349199 3.099360 0.876249 0
M  V30 15 C -1.196381 2.796113 -0.164123 0
M  V30 16 O -2.344018 3.486261 -0.503922 0
M  V30 17 C -2.787380 4.608296 0.210502 0
M  V30 18 C -3.088206 4.293179 1.641844 0
M  V30 19 C -0.833150 1.691328 -0.916473 0
M  V30 20 O -1.664880 1.357492 -1.979128 0
M  V30 21 C -1.389500 0.263229 -2.820200 0
M  V30 22 C -2.485415 0.175452 -3.850346 0
M  V30 23 C 0.298491 0.900047 -0.685983 0
M  V30 24 C 1.074011 1.296797 0.382432 0
M  V30 25 C 1.058008 -2.734497 -0.262975 0
M  V30 26 C 0.671858 -3.897095 0.355624 0
M  V30 27 O -0.283252 -4.715413 -0.182849 0
M  V30 28 C -0.998349 -4.565304 -1.354724 0
M  V30 29 C -1.858243 -3.347832 -1.463379 0
M  V30 30 H 2.010431 -5.025322 5.120782 0
M  V30 31 H 0.560330 -4.211331 4.309692 0
M  V30 32 H 0.392382 -5.704465 5.268452 0
M  V30 33 H 0.833301 -7.053025 3.543987 0
M  V30 34 H 2.364273 -6.203088 3.230043 0
M  V30 35 H 2.596881 -3.905659 3.090085 0
M  V30 36 H 3.333889 -1.878049 2.102655 0
M  V30 37 H 2.486778 -0.567465 -1.195615 0
M  V30 38 H 3.758891 -0.764691 0.039437 0
M  V30 39 H 3.350252 2.250889 3.243510 0
M  V30 40 H 1.292042 3.635699 2.817410 0
M  V30 41 H -0.574157 3.948970 1.494155 0
M  V30 42 H -2.041359 5.455875 0.144605 0
M  V30 43 H -3.716550 4.995513 -0.295374 0
M  V30 44 H -2.543399 5.009074 2.303882 0
M  V30 45 H -4.198218 4.399209 1.800816 0
M  V30 46 H -2.820219 3.259511 1.885724 0
M  V30 47 H -1.245419 -0.647083 -2.242678 0
M  V30 48 H -0.426077 0.414675 -3.383754 0
M  V30 49 H -2.059065 -0.199408 -4.822392 0
M  V30 50 H -3.284657 -0.530556 -3.589690 0
M  V30 51 H -2.941772 1.165562 -4.062389 0
M  V30 52 H 0.554517 0.043073 -1.290745 0
M  V30 53 H 0.690870 -2.348029 -1.175898 0
M  V30 54 H -1.669846 -5.469547 -1.439501 0
M  V30 55 H -0.351609 -4.657208 -2.276178 0
M  V30 56 H -2.944570 -3.608507 -1.342007 0
M  V30 57 H -1.781578 -2.949850 -2.513472 0
M  V30 58 H -1.646644 -2.568201 -0.733396 0
M  V30 END ATOM
M  V30 BEGIN BOND
M  V30 1 1 1 2
M  V30 2 1 2 3
M  V30 3 1 3 4
M  V30 4 2 4 5
M  V30 5 1 5 6
M  V30 6 2 6 7
M  V30 7 1 7 8
M  V30 8 1 8 9
M  V30 9 2 9 10
M  V30 10 1 10 11
M  V30 11 2 11 12
M  V30 12 1 12 13
M  V30 13 2 13 14
M  V30 14 1 14 15
M  V30 15 1 15 16
M  V30 16 1 16 17
M  V30 17 1 17 18
M  V30 18 2 15 19
M  V30 19 1 19 20
M  V30 20 1 20 21
M  V30 21 1 21 22
M  V30 22 1 19 23
M  V30 23 2 23 24
M  V30 24 1 7 25
M  V30 25 2 25 26
M  V30 26 1 26 27
M  V30 27 1 27 28
M  V30 28 1 28 29
M  V30 29 1 26 4
M  V30 30 1 24 9
M  V30 31 1 24 13
M  V30 32 1 1 30
M  V30 33 1 1 31
M  V30 34 1 1 32
M  V30 35 1 2 33
M  V30 36 1 2 34
M  V30 37 1 5 35
M  V30 38 1 6 36
M  V30 39 1 8 37
M  V30 40 1 8 38
M  V30 41 1 11 39
M  V30 42 1 12 40
M  V30 43 1 14 41
M  V30 44 1 17 42
M  V30 45 1 17 43
M  V30 46 1 18 44
M  V30 47 1 18 45
M  V30 48 1 18 46
M  V30 49 1 21 47
M  V30 50 1 21 48
M  V30 51 1 22 49
M  V30 52 1 22 50
M  V30 53 1 22 51
M  V30 54 1 23 52
M  V30 55 1 25 53
M  V30 56 1 28 54
M  V30 57 1 28 55
M  V30 58 1 29 56
M  V30 59 1 29 57
M  V30 60 1 29 58
M  V30 END BOND
M  V30 END CTAB
M  END
>  <Dataset>  (288) 
ChEMBL_Kinases

>  <Ligand_Instance>  (288) 
nan

>  <PDB_ID>  (288) 
nan

>  <Standardized_SMILES>  (288) 
CCOc1ccc(Cc2nccc3cc(OCC)c(OCC)cc23)cc1OCC

>  <Name>  (288) 
ETHAVERINE

>  <Pocket>  (288) 
nan

>  <ATP_Site>  (288) 
nan

>  <Peripheral>  (288) 
nan

>  <Num_H_Atoms_ProtBoundConf>  (288) 
nan

>  <Num_Resolved_Atoms>  (288) 
nan

>  <Num_Not_Resolved_Atoms>  (288) 
nan

$$$$
CHEMBL1555832
     RDKit          3D

  0  0  0  0  0  0  0  0  0  0999 V3000
M  V30 BEGIN CTAB
M  V30 COUNTS 56 57 0 0 0
M  V30 BEGIN ATOM
M  V30 1 C 2.006541 0.091777 4.439730 0
M  V30 2 C 3.350772 -0.062431 3.786907 0
M  V30 3 N 3.517519 0.909349 2.721375 0
M  V30 4 C 4.794549 0.775655 2.087823 0
M  V30 5 C 5.941088 1.168320 2.994721 0
M  V30 6 C 2.373417 0.912411 1.861180 0
M  V30 7 C 2.378657 1.849944 0.724793 0
M  V30 8 C 1.109009 1.758201 -0.066833 0
M  V30 9 N 0.847660 0.474648 -0.648350 0
M  V30 10 C 1.418773 0.314578 -1.970378 0
M  V30 11 C 1.348486 -0.840735 -2.920507 0
M  V30 12 O 2.118034 1.206886 -2.557908 0
M  V30 13 C 0.152876 -0.728329 -0.344587 0
M  V30 14 N -0.938982 -0.975817 -0.533338 0
M  V30 15 C -1.660071 -2.050037 -0.297168 0
M  V30 16 C -3.083191 -2.255212 -0.589061 0
M  V30 17 C -3.812948 -1.248331 -1.188569 0
M  V30 18 C -5.144494 -1.312000 -1.512176 0
M  V30 19 O -5.883606 -0.312092 -2.111651 0
M  V30 20 C -5.258962 0.899764 -2.440520 0
M  V30 21 C -5.843925 -2.456981 -1.231690 0
M  V30 22 C -5.155055 -3.489020 -0.632727 0
M  V30 23 C -3.814053 -3.387189 -0.322054 0
M  V30 24 O -3.181664 -4.456686 0.277255 0
M  V30 25 C -3.912700 -5.625721 0.559900 0
M  V30 26 C -0.962954 -3.048574 0.281414 0
M  V30 27 S 0.725044 -2.353228 0.449365 0
M  V30 28 H 2.102004 -0.307095 5.481305 0
M  V30 29 H 1.683906 1.147176 4.551471 0
M  V30 30 H 1.238231 -0.453551 3.848826 0
M  V30 31 H 3.379994 -1.051801 3.298340 0
M  V30 32 H 4.160117 -0.022122 4.529251 0
M  V30 33 H 4.847781 1.284354 1.104726 0
M  V30 34 H 4.937578 -0.311802 1.869579 0
M  V30 35 H 5.610133 1.551579 3.983550 0
M  V30 36 H 6.574299 1.900702 2.437388 0
M  V30 37 H 6.635169 0.323231 3.215113 0
M  V30 38 H 2.274274 -0.141332 1.506390 0
M  V30 39 H 1.477094 1.108186 2.480085 0
M  V30 40 H 2.433653 2.932628 1.052205 0
M  V30 41 H 3.203265 1.697147 -0.002763 0
M  V30 42 H 0.237279 2.019135 0.619527 0
M  V30 43 H 1.040377 2.545675 -0.852038 0
M  V30 44 H 1.015625 -0.510672 -3.907368 0
M  V30 45 H 2.337243 -1.327446 -2.949403 0
M  V30 46 H 0.611158 -1.543913 -2.455526 0
M  V30 47 H -3.277043 -0.325780 -1.420514 0
M  V30 48 H -5.239908 1.636003 -1.606119 0
M  V30 49 H -5.840084 1.342486 -3.286938 0
M  V30 50 H -4.241837 0.739046 -2.846902 0
M  V30 51 H -6.880562 -2.600616 -1.445540 0
M  V30 52 H -5.662454 -4.409822 -0.392512 0
M  V30 53 H -4.779837 -5.339923 1.208614 0
M  V30 54 H -3.299571 -6.418154 1.018654 0
M  V30 55 H -4.354649 -5.993539 -0.389688 0
M  V30 56 H -1.029550 -4.034793 0.656186 0
M  V30 END ATOM
M  V30 BEGIN BOND
M  V30 1 1 1 2
M  V30 2 1 2 3
M  V30 3 1 3 4
M  V30 4 1 4 5
M  V30 5 1 3 6
M  V30 6 1 6 7
M  V30 7 1 7 8
M  V30 8 1 8 9
M  V30 9 1 9 10
M  V30 10 1 10 11
M  V30 11 2 10 12
M  V30 12 1 9 13
M  V30 13 2 13 14
M  V30 14 1 14 15
M  V30 15 1 15 16
M  V30 16 2 16 17
M  V30 17 1 17 18
M  V30 18 1 18 19
M  V30 19 1 19 20
M  V30 20 2 18 21
M  V30 21 1 21 22
M  V30 22 2 22 23
M  V30 23 1 23 24
M  V30 24 1 24 25
M  V30 25 2 15 26
M  V30 26 1 26 27
M  V30 27 1 27 13
M  V30 28 1 23 16
M  V30 29 1 1 28
M  V30 30 1 1 29
M  V30 31 1 1 30
M  V30 32 1 2 31
M  V30 33 1 2 32
M  V30 34 1 4 33
M  V30 35 1 4 34
M  V30 36 1 5 35
M  V30 37 1 5 36
M  V30 38 1 5 37
M  V30 39 1 6 38
M  V30 40 1 6 39
M  V30 41 1 7 40
M  V30 42 1 7 41
M  V30 43 1 8 42
M  V30 44 1 8 43
M  V30 45 1 11 44
M  V30 46 1 11 45
M  V30 47 1 11 46
M  V30 48 1 17 47
M  V30 49 1 20 48
M  V30 50 1 20 49
M  V30 51 1 20 50
M  V30 52 1 21 51
M  V30 53 1 22 52
M  V30 54 1 25 53
M  V30 55 1 25 54
M  V30 56 1 25 55
M  V30 57 1 26 56
M  V30 END BOND
M  V30 END CTAB
M  END
>  <Dataset>  (289) 
ChEMBL_Kinases

>  <Ligand_Instance>  (289) 
nan

>  <PDB_ID>  (289) 
nan

>  <Standardized_SMILES>  (289) 
CCN(CC)CCCN(C(C)=O)c1nc(-c2cc(OC)ccc2OC)cs1

>  <Name>  (289) 
nan

>  <Pocket>  (289) 
nan

>  <ATP_Site>  (289) 
nan

>  <Peripheral>  (289) 
nan

>  <Num_H_Atoms_ProtBoundConf>  (289) 
nan

>  <Num_Resolved_Atoms>  (289) 
nan

>  <Num_Not_Resolved_Atoms>  (289) 
nan

$$$$
CHEMBL1555882
     RDKit          3D

  0  0  0  0  0  0  0  0  0  0999 V3000
M  V30 BEGIN CTAB
M  V30 COUNTS 28 30 0 0 0
M  V30 BEGIN ATOM
M  V30 1 C 1.896896 -3.897383 -2.552724 0
M  V30 2 C 1.498200 -2.943202 -1.463647 0
M  V30 3 C 1.308202 -3.246766 -0.114751 0
M  V30 4 C 0.952276 -2.047887 0.477944 0
M  V30 5 N 0.646638 -1.727890 1.763264 0
M  V30 6 C 0.321812 -0.443543 2.096058 0
M  V30 7 C 0.310475 0.518158 1.104422 0
M  V30 8 C 0.619409 0.203052 -0.203919 0
M  V30 9 O 0.578065 1.229643 -1.105924 0
M  V30 10 N 0.933253 -1.080386 -0.478977 0
M  V30 11 N 1.264162 -1.614396 -1.665387 0
M  V30 12 C -0.063382 1.870415 1.625464 0
M  V30 13 C -1.429617 1.682922 2.274649 0
M  V30 14 C -1.418659 0.595830 3.321983 0
M  V30 15 C -0.023166 -0.026316 3.485489 0
M  V30 16 H 1.026066 -4.179829 -3.191682 0
M  V30 17 H 2.206186 -4.841217 -2.058499 0
M  V30 18 H 2.757840 -3.522889 -3.127008 0
M  V30 19 H 1.423932 -4.215793 0.326382 0
M  V30 20 H 0.193204 1.177456 -2.033881 0
M  V30 21 H -0.162297 2.611943 0.835990 0
M  V30 22 H 0.637835 2.217742 2.412290 0
M  V30 23 H -2.090677 1.348129 1.423553 0
M  V30 24 H -1.854745 2.641616 2.649261 0
M  V30 25 H -1.851083 0.905854 4.284648 0
M  V30 26 H -2.038254 -0.284839 2.977748 0
M  V30 27 H -0.148198 -0.888854 4.156869 0
M  V30 28 H 0.711235 0.705443 3.882996 0
M  V30 END ATOM
M  V30 BEGIN BOND
M  V30 1 1 1 2
M  V30 2 1 2 3
M  V30 3 2 3 4
M  V30 4 1 4 5
M  V30 5 2 5 6
M  V30 6 1 6 7
M  V30 7 2 7 8
M  V30 8 1 8 9
M  V30 9 1 8 10
M  V30 10 1 10 11
M  V30 11 1 7 12
M  V30 12 1 12 13
M  V30 13 1 13 14
M  V30 14 1 14 15
M  V30 15 2 11 2
M  V30 16 1 10 4
M  V30 17 1 15 6
M  V30 18 1 1 16
M  V30 19 1 1 17
M  V30 20 1 1 18
M  V30 21 1 3 19
M  V30 22 1 9 20
M  V30 23 1 12 21
M  V30 24 1 12 22
M  V30 25 1 13 23
M  V30 26 1 13 24
M  V30 27 1 14 25
M  V30 28 1 14 26
M  V30 29 1 15 27
M  V30 30 1 15 28
M  V30 END BOND
M  V30 END CTAB
M  END
>  <Dataset>  (290) 
ChEMBL_Kinases

>  <Ligand_Instance>  (290) 
nan

>  <PDB_ID>  (290) 
nan

>  <Standardized_SMILES>  (290) 
Cc1cc2nc3c(c(O)n2n1)CCCC3

>  <Name>  (290) 
nan

>  <Pocket>  (290) 
nan

>  <ATP_Site>  (290) 
nan

>  <Peripheral>  (290) 
nan

>  <Num_H_Atoms_ProtBoundConf>  (290) 
nan

>  <Num_Resolved_Atoms>  (290) 
nan

>  <Num_Not_Resolved_Atoms>  (290) 
nan

$$$$
CHEMBL1555979
     RDKit          3D

  0  0  0  0  0  0  0  0  0  0999 V3000
M  V30 BEGIN CTAB
M  V30 COUNTS 35 38 0 0 0
M  V30 BEGIN ATOM
M  V30 1 C 0.456644 -0.483107 6.492435 0
M  V30 2 C 1.064858 -1.504009 5.766550 0
M  V30 3 C 0.990163 -1.638183 4.395036 0
M  V30 4 C 0.265401 -0.702381 3.680152 0
M  V30 5 N 0.154068 -0.790756 2.263986 0
M  V30 6 N -0.516192 -1.748343 1.642489 0
M  V30 7 C -0.462845 -1.597596 0.307571 0
M  V30 8 C 0.295669 -0.463969 0.083017 0
M  V30 9 C 0.734735 0.244332 -1.014629 0
M  V30 10 N 0.361582 -0.237188 -2.318424 0
M  V30 11 C 0.496634 -1.374836 -3.143515 0
M  V30 12 C -0.921423 -1.701336 -3.537591 0
M  V30 13 C -1.602890 -0.350423 -3.413460 0
M  V30 14 C -0.432910 0.614595 -3.238818 0
M  V30 15 N 1.498209 1.364976 -0.861808 0
M  V30 16 C 1.842773 1.808112 0.370338 0
M  V30 17 N 1.429623 1.137133 1.486607 0
M  V30 18 C 0.683962 0.043442 1.322328 0
M  V30 19 C -0.368820 0.341824 4.322571 0
M  V30 20 C -0.255933 0.420159 5.695048 0
M  V30 21 H 0.516708 -0.383078 7.550973 0
M  V30 22 H 1.641905 -2.250842 6.326041 0
M  V30 23 H 1.493932 -2.464526 3.902088 0
M  V30 24 H -0.899179 -2.200152 -0.483638 0
M  V30 25 H 1.007056 -1.061743 -4.081593 0
M  V30 26 H 1.074826 -2.217304 -2.789921 0
M  V30 27 H -1.383021 -2.470871 -2.888590 0
M  V30 28 H -1.005048 -1.977915 -4.612958 0
M  V30 29 H -2.184513 -0.384795 -2.450898 0
M  V30 30 H -2.234867 -0.096566 -4.279831 0
M  V30 31 H 0.087461 0.663627 -4.210015 0
M  V30 32 H -0.709396 1.570276 -2.814177 0
M  V30 33 H 2.453314 2.704170 0.494448 0
M  V30 34 H -0.941836 1.089414 3.801026 0
M  V30 35 H -0.736489 1.226404 6.266453 0
M  V30 END ATOM
M  V30 BEGIN BOND
M  V30 1 2 1 2
M  V30 2 1 2 3
M  V30 3 2 3 4
M  V30 4 1 4 5
M  V30 5 1 5 6
M  V30 6 2 6 7
M  V30 7 1 7 8
M  V30 8 2 8 9
M  V30 9 1 9 10
M  V30 10 1 10 11
M  V30 11 1 11 12
M  V30 12 1 12 13
M  V30 13 1 13 14
M  V30 14 1 9 15
M  V30 15 2 15 16
M  V30 16 1 16 17
M  V30 17 2 17 18
M  V30 18 1 4 19
M  V30 19 2 19 20
M  V30 20 1 20 1
M  V30 21 1 18 5
M  V30 22 1 18 8
M  V30 23 1 14 10
M  V30 24 1 1 21
M  V30 25 1 2 22
M  V30 26 1 3 23
M  V30 27 1 7 24
M  V30 28 1 11 25
M  V30 29 1 11 26
M  V30 30 1 12 27
M  V30 31 1 12 28
M  V30 32 1 13 29
M  V30 33 1 13 30
M  V30 34 1 14 31
M  V30 35 1 14 32
M  V30 36 1 16 33
M  V30 37 1 19 34
M  V30 38 1 20 35
M  V30 END BOND
M  V30 END CTAB
M  END
>  <Dataset>  (291) 
ChEMBL_Kinases

>  <Ligand_Instance>  (291) 
nan

>  <PDB_ID>  (291) 
nan

>  <Standardized_SMILES>  (291) 
c1ccc(-n2ncc3c(N4CCCC4)ncnc32)cc1

>  <Name>  (291) 
nan

>  <Pocket>  (291) 
nan

>  <ATP_Site>  (291) 
nan

>  <Peripheral>  (291) 
nan

>  <Num_H_Atoms_ProtBoundConf>  (291) 
nan

>  <Num_Resolved_Atoms>  (291) 
nan

>  <Num_Not_Resolved_Atoms>  (291) 
nan

$$$$
CHEMBL1556060
     RDKit          3D

  0  0  0  0  0  0  0  0  0  0999 V3000
M  V30 BEGIN CTAB
M  V30 COUNTS 40 42 0 0 0
M  V30 BEGIN ATOM
M  V30 1 O -0.132510 -0.266519 0.595574 0
M  V30 2 C 1.027724 0.028401 0.953424 0
M  V30 3 C 2.040657 -1.044847 1.063786 0
M  V30 4 N 1.439873 -2.289699 0.710085 0
M  V30 5 C 2.342564 -3.417277 0.842206 0
M  V30 6 C 1.420851 -4.623128 0.786117 0
M  V30 7 C 0.197803 -4.275285 1.579084 0
M  V30 8 C -0.823875 -3.499358 0.806098 0
M  V30 9 C -0.415348 -3.062246 -0.558104 0
M  V30 10 C 0.916772 -2.369905 -0.633555 0
M  V30 11 N 1.296850 1.372734 1.231492 0
M  V30 12 C 0.484611 2.525416 1.187952 0
M  V30 13 C 1.069563 3.720441 1.550020 0
M  V30 14 C 0.383978 4.908939 1.548744 0
M  V30 15 C -0.938867 4.981470 1.183251 0
M  V30 16 C -1.527702 3.813863 0.824204 0
M  V30 17 C -0.836699 2.611684 0.824922 0
M  V30 18 O -1.721721 1.648412 0.414550 0
M  V30 19 C -2.855792 2.253990 -0.175776 0
M  V30 20 O -2.846601 3.565277 0.406525 0
M  V30 21 H 2.979706 -0.816414 0.571381 0
M  V30 22 H 2.274016 -1.111390 2.163034 0
M  V30 23 H 3.081192 -3.450805 0.019118 0
M  V30 24 H 2.891188 -3.433680 1.799303 0
M  V30 25 H 1.886611 -5.553308 1.140779 0
M  V30 26 H 1.081834 -4.828297 -0.252995 0
M  V30 27 H -0.187205 -5.181095 2.078022 0
M  V30 28 H 0.522878 -3.607395 2.421431 0
M  V30 29 H -1.687965 -4.202684 0.658856 0
M  V30 30 H -1.260353 -2.647017 1.366887 0
M  V30 31 H -0.504755 -3.886827 -1.305250 0
M  V30 32 H -1.184249 -2.317128 -0.892906 0
M  V30 33 H 1.593530 -3.002165 -1.282646 0
M  V30 34 H 0.912489 -1.391665 -1.124674 0
M  V30 35 H 2.301423 1.484442 1.519771 0
M  V30 36 H 2.121268 3.781053 1.860110 0
M  V30 37 H 0.885275 5.816637 1.840793 0
M  V30 38 H -1.498631 5.884686 1.171495 0
M  V30 39 H -3.763746 1.686279 0.087227 0
M  V30 40 H -2.763160 2.345967 -1.274505 0
M  V30 END ATOM
M  V30 BEGIN BOND
M  V30 1 2 1 2
M  V30 2 1 2 3
M  V30 3 1 3 4
M  V30 4 1 4 5
M  V30 5 1 5 6
M  V30 6 1 6 7
M  V30 7 1 7 8
M  V30 8 1 8 9
M  V30 9 1 9 10
M  V30 10 1 2 11
M  V30 11 1 11 12
M  V30 12 2 12 13
M  V30 13 1 13 14
M  V30 14 2 14 15
M  V30 15 1 15 16
M  V30 16 2 16 17
M  V30 17 1 17 18
M  V30 18 1 18 19
M  V30 19 1 19 20
M  V30 20 1 10 4
M  V30 21 1 17 12
M  V30 22 1 20 16
M  V30 23 1 3 21
M  V30 24 1 3 22
M  V30 25 1 5 23
M  V30 26 1 5 24
M  V30 27 1 6 25
M  V30 28 1 6 26
M  V30 29 1 7 27
M  V30 30 1 7 28
M  V30 31 1 8 29
M  V30 32 1 8 30
M  V30 33 1 9 31
M  V30 34 1 9 32
M  V30 35 1 10 33
M  V30 36 1 10 34
M  V30 37 1 11 35
M  V30 38 1 13 36
M  V30 39 1 14 37
M  V30 40 1 15 38
M  V30 41 1 19 39
M  V30 42 1 19 40
M  V30 END BOND
M  V30 END CTAB
M  END
>  <Dataset>  (292) 
ChEMBL_Kinases

>  <Ligand_Instance>  (292) 
nan

>  <PDB_ID>  (292) 
nan

>  <Standardized_SMILES>  (292) 
O=C(CN1CCCCCC1)Nc1cccc2c1OCO2

>  <Name>  (292) 
nan

>  <Pocket>  (292) 
nan

>  <ATP_Site>  (292) 
nan

>  <Peripheral>  (292) 
nan

>  <Num_H_Atoms_ProtBoundConf>  (292) 
nan

>  <Num_Resolved_Atoms>  (292) 
nan

>  <Num_Not_Resolved_Atoms>  (292) 
nan

$$$$
CHEMBL155563
     RDKit          3D

  0  0  0  0  0  0  0  0  0  0999 V3000
M  V30 BEGIN CTAB
M  V30 COUNTS 30 32 0 0 0
M  V30 BEGIN ATOM
M  V30 1 O -2.105912 -1.718851 3.614508 0
M  V30 2 C -1.099351 -1.364964 2.901240 0
M  V30 3 C -0.685625 0.009996 2.627875 0
M  V30 4 Cl -1.661109 1.277555 3.346622 0
M  V30 5 C 0.391160 0.180616 1.858806 0
M  V30 6 N 0.749360 1.562670 1.623750 0
M  V30 7 C 0.539869 1.660525 0.197350 0
M  V30 8 C 1.641676 1.911032 -0.627308 0
M  V30 9 C 1.418732 1.993816 -1.971140 0
M  V30 10 C 0.182216 1.847504 -2.561295 0
M  V30 11 C -0.931601 1.598517 -1.759444 0
M  V30 12 C -0.732348 1.507142 -0.376510 0
M  V30 13 C 1.102185 -0.952378 1.328611 0
M  V30 14 O 2.094339 -0.606505 0.623515 0
M  V30 15 C 0.716381 -2.336597 1.581852 0
M  V30 16 C 1.489503 -3.325366 1.008036 0
M  V30 17 C 1.050848 -4.600781 1.298511 0
M  V30 18 C -0.046418 -4.913060 2.080789 0
M  V30 19 C -0.763682 -3.845054 2.615769 0
M  V30 20 C -0.390889 -2.540591 2.373282 0
M  V30 21 H 1.070573 2.289396 2.294085 0
M  V30 22 H 2.652928 2.042562 -0.269448 0
M  V30 23 H 2.170329 2.186003 -2.751504 0
M  V30 24 H -0.077205 1.896330 -3.596528 0
M  V30 25 H -1.968397 1.450924 -2.034119 0
M  V30 26 H -1.519489 1.315843 0.327516 0
M  V30 27 H 2.351879 -3.132063 0.390955 0
M  V30 28 H 1.566794 -5.464164 0.910223 0
M  V30 29 H -0.367014 -5.925830 2.290815 0
M  V30 30 H -1.636858 -4.021367 3.236092 0
M  V30 END ATOM
M  V30 BEGIN BOND
M  V30 1 2 1 2
M  V30 2 1 2 3
M  V30 3 1 3 4
M  V30 4 2 3 5
M  V30 5 1 5 6
M  V30 6 1 6 7
M  V30 7 2 7 8
M  V30 8 1 8 9
M  V30 9 2 9 10
M  V30 10 1 10 11
M  V30 11 2 11 12
M  V30 12 1 5 13
M  V30 13 2 13 14
M  V30 14 1 13 15
M  V30 15 2 15 16
M  V30 16 1 16 17
M  V30 17 2 17 18
M  V30 18 1 18 19
M  V30 19 2 19 20
M  V30 20 1 20 2
M  V30 21 1 12 7
M  V30 22 1 20 15
M  V30 23 1 6 21
M  V30 24 1 8 22
M  V30 25 1 9 23
M  V30 26 1 10 24
M  V30 27 1 11 25
M  V30 28 1 12 26
M  V30 29 1 16 27
M  V30 30 1 17 28
M  V30 31 1 18 29
M  V30 32 1 19 30
M  V30 END BOND
M  V30 END CTAB
M  END
>  <Dataset>  (293) 
ChEMBL_Kinases

>  <Ligand_Instance>  (293) 
nan

>  <PDB_ID>  (293) 
nan

>  <Standardized_SMILES>  (293) 
O=C1C(Cl)=C(Nc2ccccc2)C(=O)c2ccccc21

>  <Name>  (293) 
nan

>  <Pocket>  (293) 
nan

>  <ATP_Site>  (293) 
nan

>  <Peripheral>  (293) 
nan

>  <Num_H_Atoms_ProtBoundConf>  (293) 
nan

>  <Num_Resolved_Atoms>  (293) 
nan

>  <Num_Not_Resolved_Atoms>  (293) 
nan

$$$$
CHEMBL1547832
     RDKit          3D

  0  0  0  0  0  0  0  0  0  0999 V3000
M  V30 BEGIN CTAB
M  V30 COUNTS 50 53 0 0 0
M  V30 BEGIN ATOM
M  V30 1 C 6.780744 -5.020552 3.677957 0
M  V30 2 O 6.604822 -4.379445 2.436006 0
M  V30 3 C 5.493365 -3.602526 2.143942 0
M  V30 4 C 4.464211 -3.386916 3.036892 0
M  V30 5 C 3.401419 -2.580809 2.611300 0
M  V30 6 C 3.366351 -2.009185 1.338184 0
M  V30 7 N 2.244981 -1.221475 1.034313 0
M  V30 8 C 1.889076 0.147377 1.153106 0
M  V30 9 O 2.663044 1.000223 1.631751 0
M  V30 10 C 0.569022 0.580453 0.699940 0
M  V30 11 C 0.287942 1.924542 0.845247 0
M  V30 12 C -0.944420 2.460184 0.447255 0
M  V30 13 C -1.918598 1.632675 -0.109055 0
M  V30 14 C -3.150988 2.106734 -0.519275 0
M  V30 15 O -3.415681 3.332039 -0.390230 0
M  V30 16 N -4.046261 1.248851 -1.049626 0
M  V30 17 C -5.353015 1.697762 -1.494949 0
M  V30 18 C -6.381965 1.629942 -0.410215 0
M  V30 19 C -6.754543 2.576719 0.527655 0
M  V30 20 C -7.755355 1.972371 1.280681 0
M  V30 21 C -7.947355 0.691551 0.771457 0
M  V30 22 O -7.116092 0.543803 -0.218579 0
M  V30 23 C -3.727532 -0.057965 -1.172399 0
M  V30 24 S -4.790366 -1.120040 -1.810618 0
M  V30 25 N -2.540489 -0.562080 -0.786448 0
M  V30 26 C -1.624127 0.274251 -0.251675 0
M  V30 27 C -0.400703 -0.229002 0.148955 0
M  V30 28 C 4.434688 -2.267978 0.491995 0
M  V30 29 O 4.302924 -1.654877 -0.746227 0
M  V30 30 C 5.300047 -1.805612 -1.745583 0
M  V30 31 C 5.498426 -3.058986 0.881519 0
M  V30 32 H 5.783591 -5.428549 3.992715 0
M  V30 33 H 7.474940 -5.895140 3.555787 0
M  V30 34 H 7.144007 -4.326857 4.436283 0
M  V30 35 H 4.496208 -3.825734 4.007128 0
M  V30 36 H 2.619265 -2.440210 3.343626 0
M  V30 37 H 1.636646 -1.974277 0.642491 0
M  V30 38 H 0.975738 2.644909 1.264462 0
M  V30 39 H -1.149222 3.515079 0.567770 0
M  V30 40 H -5.706774 1.109326 -2.361955 0
M  V30 41 H -5.235777 2.737540 -1.885243 0
M  V30 42 H -6.309838 3.567924 0.598511 0
M  V30 43 H -8.265027 2.455870 2.108119 0
M  V30 44 H -8.653103 -0.027413 1.138127 0
M  V30 45 H -2.310357 -1.587914 -0.891014 0
M  V30 46 H -0.170075 -1.278263 0.040098 0
M  V30 47 H 5.376907 -2.850780 -2.109284 0
M  V30 48 H 5.144263 -1.106084 -2.566339 0
M  V30 49 H 6.315577 -1.581001 -1.315199 0
M  V30 50 H 6.300978 -3.211897 0.149908 0
M  V30 END ATOM
M  V30 BEGIN BOND
M  V30 1 1 1 2
M  V30 2 1 2 3
M  V30 3 2 3 4
M  V30 4 1 4 5
M  V30 5 2 5 6
M  V30 6 1 6 7
M  V30 7 1 7 8
M  V30 8 2 8 9
M  V30 9 1 8 10
M  V30 10 2 10 11
M  V30 11 1 11 12
M  V30 12 2 12 13
M  V30 13 1 13 14
M  V30 14 2 14 15
M  V30 15 1 14 16
M  V30 16 1 16 17
M  V30 17 1 17 18
M  V30 18 2 18 19
M  V30 19 1 19 20
M  V30 20 2 20 21
M  V30 21 1 21 22
M  V30 22 1 16 23
M  V30 23 2 23 24
M  V30 24 1 23 25
M  V30 25 1 25 26
M  V30 26 2 26 27
M  V30 27 1 6 28
M  V30 28 1 28 29
M  V30 29 1 29 30
M  V30 30 2 28 31
M  V30 31 1 31 3
M  V30 32 1 27 10
M  V30 33 1 26 13
M  V30 34 1 22 18
M  V30 35 1 1 32
M  V30 36 1 1 33
M  V30 37 1 1 34
M  V30 38 1 4 35
M  V30 39 1 5 36
M  V30 40 1 7 37
M  V30 41 1 11 38
M  V30 42 1 12 39
M  V30 43 1 17 40
M  V30 44 1 17 41
M  V30 45 1 19 42
M  V30 46 1 20 43
M  V30 47 1 21 44
M  V30 48 1 25 45
M  V30 49 1 27 46
M  V30 50 1 30 47
M  V30 51 1 30 48
M  V30 52 1 30 49
M  V30 53 1 31 50
M  V30 END BOND
M  V30 END CTAB
M  END
>  <Dataset>  (294) 
ChEMBL_Kinases

>  <Ligand_Instance>  (294) 
nan

>  <PDB_ID>  (294) 
nan

>  <Standardized_SMILES>  (294) 
COc1ccc(NC(=O)c2ccc3c(=O)n(Cc4ccco4)c(=S)[nH]c3c2)c(OC)c1

>  <Name>  (294) 
nan

>  <Pocket>  (294) 
nan

>  <ATP_Site>  (294) 
nan

>  <Peripheral>  (294) 
nan

>  <Num_H_Atoms_ProtBoundConf>  (294) 
nan

>  <Num_Resolved_Atoms>  (294) 
nan

>  <Num_Not_Resolved_Atoms>  (294) 
nan

$$$$
CHEMBL1547798
     RDKit          3D

  0  0  0  0  0  0  0  0  0  0999 V3000
M  V30 BEGIN CTAB
M  V30 COUNTS 61 64 0 0 0
M  V30 BEGIN ATOM
M  V30 1 C 0.557387 2.122723 9.147055 0
M  V30 2 C 0.862155 1.427720 7.868885 0
M  V30 3 C 2.149355 1.076315 7.518470 0
M  V30 4 C 2.378756 0.432465 6.320521 0
M  V30 5 C 1.356122 0.114407 5.432183 0
M  V30 6 S 1.577014 -0.694308 3.910626 0
M  V30 7 O 0.287793 -1.458585 3.652775 0
M  V30 8 O 2.669816 -1.697407 4.077730 0
M  V30 9 N 1.846231 0.324429 2.625189 0
M  V30 10 C 2.988410 1.149421 2.650698 0
M  V30 11 C 3.463201 1.393025 1.233408 0
M  V30 12 C 2.758404 0.431867 0.297375 0
M  V30 13 C 1.274476 0.778226 0.353767 0
M  V30 14 N 0.493356 -0.044835 -0.517013 0
M  V30 15 C -0.257332 0.356551 -1.630056 0
M  V30 16 O -0.326676 1.570672 -2.005340 0
M  V30 17 N -0.965399 -0.637468 -2.362144 0
M  V30 18 C -0.941103 -2.033546 -2.007131 0
M  V30 19 C -2.166856 -2.772914 -2.494787 0
M  V30 20 N -2.200145 -2.637497 -3.949685 0
M  V30 21 C -2.643442 -3.665734 -4.853740 0
M  V30 22 C -2.631715 -3.525042 -6.236546 0
M  V30 23 C -3.064265 -4.530671 -7.044857 0
M  V30 24 C -3.530496 -5.724116 -6.560937 0
M  V30 25 C -3.559803 -5.907701 -5.186123 0
M  V30 26 C -3.115645 -4.872436 -4.388406 0
M  V30 27 C -1.767253 -1.398605 -4.573145 0
M  V30 28 C -1.771087 -0.331004 -3.525959 0
M  V30 29 C 0.780921 0.717394 1.796229 0
M  V30 30 C 0.079382 0.500123 5.852403 0
M  V30 31 C -0.210190 1.146932 7.040369 0
M  V30 32 H -0.375781 2.732980 9.049633 0
M  V30 33 H 0.496340 1.385808 9.981985 0
M  V30 34 H 1.343239 2.883350 9.412572 0
M  V30 35 H 2.934456 1.320191 8.199920 0
M  V30 36 H 3.365165 0.144120 6.014842 0
M  V30 37 H 3.806013 0.576126 3.162331 0
M  V30 38 H 2.858550 2.119946 3.186686 0
M  V30 39 H 4.574013 1.235581 1.149053 0
M  V30 40 H 3.287369 2.447304 0.933335 0
M  V30 41 H 3.110503 0.515047 -0.727135 0
M  V30 42 H 2.935864 -0.595709 0.719412 0
M  V30 43 H 1.208161 1.844886 0.011640 0
M  V30 44 H 0.594899 -1.017923 -0.153623 0
M  V30 45 H -0.074287 -2.530346 -2.487345 0
M  V30 46 H -0.918628 -2.163440 -0.902752 0
M  V30 47 H -2.069934 -3.825645 -2.197957 0
M  V30 48 H -3.088289 -2.299765 -2.111874 0
M  V30 49 H -2.279134 -2.619219 -6.660579 0
M  V30 50 H -3.042742 -4.389968 -8.121853 0
M  V30 51 H -3.858178 -6.479080 -7.262071 0
M  V30 52 H -3.926186 -6.844813 -4.816604 0
M  V30 53 H -3.172694 -5.097405 -3.332527 0
M  V30 54 H -0.785918 -1.456857 -5.047202 0
M  V30 55 H -2.523783 -1.099595 -5.332643 0
M  V30 56 H -1.354159 0.639757 -3.912907 0
M  V30 57 H -2.800216 -0.066445 -3.196071 0
M  V30 58 H 0.419045 1.715316 2.119490 0
M  V30 59 H -0.056400 0.004379 1.906381 0
M  V30 60 H -0.752630 0.263244 5.172463 0
M  V30 61 H -1.253846 1.387160 7.237016 0
M  V30 END ATOM
M  V30 BEGIN BOND
M  V30 1 1 1 2
M  V30 2 2 2 3
M  V30 3 1 3 4
M  V30 4 2 4 5
M  V30 5 1 5 6
M  V30 6 2 6 7
M  V30 7 2 6 8
M  V30 8 1 6 9
M  V30 9 1 9 10
M  V30 10 1 10 11
M  V30 11 1 11 12
M  V30 12 1 12 13
M  V30 13 1 13 14
M  V30 14 1 14 15
M  V30 15 2 15 16
M  V30 16 1 15 17
M  V30 17 1 17 18
M  V30 18 1 18 19
M  V30 19 1 19 20
M  V30 20 1 20 21
M  V30 21 2 21 22
M  V30 22 1 22 23
M  V30 23 2 23 24
M  V30 24 1 24 25
M  V30 25 2 25 26
M  V30 26 1 20 27
M  V30 27 1 27 28
M  V30 28 1 13 29
M  V30 29 1 5 30
M  V30 30 2 30 31
M  V30 31 1 31 2
M  V30 32 1 29 9
M  V30 33 1 28 17
M  V30 34 1 26 21
M  V30 35 1 1 32
M  V30 36 1 1 33
M  V30 37 1 1 34
M  V30 38 1 3 35
M  V30 39 1 4 36
M  V30 40 1 10 37
M  V30 41 1 10 38
M  V30 42 1 11 39
M  V30 43 1 11 40
M  V30 44 1 12 41
M  V30 45 1 12 42
M  V30 46 1 13 43
M  V30 47 1 14 44
M  V30 48 1 18 45
M  V30 49 1 18 46
M  V30 50 1 19 47
M  V30 51 1 19 48
M  V30 52 1 22 49
M  V30 53 1 23 50
M  V30 54 1 24 51
M  V30 55 1 25 52
M  V30 56 1 26 53
M  V30 57 1 27 54
M  V30 58 1 27 55
M  V30 59 1 28 56
M  V30 60 1 28 57
M  V30 61 1 29 58
M  V30 62 1 29 59
M  V30 63 1 30 60
M  V30 64 1 31 61
M  V30 END BOND
M  V30 END CTAB
M  END
>  <Dataset>  (295) 
ChEMBL_Kinases

>  <Ligand_Instance>  (295) 
nan

>  <PDB_ID>  (295) 
nan

>  <Standardized_SMILES>  (295) 
Cc1ccc(S(=O)(=O)N2CCCC(NC(=O)N3CCN(c4ccccc4)CC3)C2)cc1

>  <Name>  (295) 
nan

>  <Pocket>  (295) 
nan

>  <ATP_Site>  (295) 
nan

>  <Peripheral>  (295) 
nan

>  <Num_H_Atoms_ProtBoundConf>  (295) 
nan

>  <Num_Resolved_Atoms>  (295) 
nan

>  <Num_Not_Resolved_Atoms>  (295) 
nan

$$$$
CHEMBL1547766
     RDKit          3D

  0  0  0  0  0  0  0  0  0  0999 V3000
M  V30 BEGIN CTAB
M  V30 COUNTS 59 61 0 0 0
M  V30 BEGIN ATOM
M  V30 1 C 3.972460 -2.643345 5.837748 0
M  V30 2 C 4.459232 -1.375304 5.141476 0
M  V30 3 C 5.967267 -1.435679 5.109934 0
M  V30 4 C 3.869969 -1.317659 3.744779 0
M  V30 5 C 4.345003 -0.071846 3.051608 0
M  V30 6 N 3.800561 0.006763 1.712817 0
M  V30 7 C 2.422773 0.061463 1.390931 0
M  V30 8 O 1.669849 0.036677 2.420964 0
M  V30 9 C 2.063786 0.137112 -0.050917 0
M  V30 10 N 0.640680 0.175770 -0.270403 0
M  V30 11 C 0.018241 1.431285 -0.271763 0
M  V30 12 O 1.016611 2.203210 -0.050204 0
M  V30 13 C -1.143902 2.299754 -0.390625 0
M  V30 14 N -2.403833 1.618830 -0.635436 0
M  V30 15 N -3.250388 1.172881 0.301614 0
M  V30 16 N -4.266243 0.622603 -0.340801 0
M  V30 17 C -4.083127 0.709337 -1.672536 0
M  V30 18 C -5.106383 0.153313 -2.568853 0
M  V30 19 C -5.679530 -1.074640 -2.291184 0
M  V30 20 C -6.648261 -1.557828 -3.175243 0
M  V30 21 C -7.036651 -0.854338 -4.292262 0
M  V30 22 F -7.982510 -1.393809 -5.097874 0
M  V30 23 C -6.439565 0.373326 -4.537735 0
M  V30 24 C -5.466404 0.902736 -3.687045 0
M  V30 25 N -2.901705 1.341307 -1.852812 0
M  V30 26 C -0.265010 -0.905906 -0.507272 0
M  V30 27 C 0.066085 -1.684861 -1.784473 0
M  V30 28 C -0.413988 -3.083832 -1.544533 0
M  V30 29 C -0.706434 -3.234236 -0.091660 0
M  V30 30 C -0.229599 -1.958779 0.584867 0
M  V30 31 H 4.120802 -3.529816 5.186718 0
M  V30 32 H 2.886917 -2.558885 6.054268 0
M  V30 33 H 4.516847 -2.819272 6.778956 0
M  V30 34 H 4.084434 -0.507660 5.709881 0
M  V30 35 H 6.311920 -1.899952 6.068481 0
M  V30 36 H 6.263239 -2.162881 4.313949 0
M  V30 37 H 6.445435 -0.463716 4.945742 0
M  V30 38 H 4.178352 -2.213570 3.185413 0
M  V30 39 H 2.775647 -1.372828 3.878902 0
M  V30 40 H 3.936936 0.795895 3.648844 0
M  V30 41 H 5.438907 -0.044097 3.036858 0
M  V30 42 H 4.505990 0.023816 0.914408 0
M  V30 43 H 2.496550 1.079478 -0.442189 0
M  V30 44 H 2.557152 -0.665954 -0.639729 0
M  V30 45 H -1.301705 2.887038 0.534937 0
M  V30 46 H -0.983385 3.038292 -1.203413 0
M  V30 47 H -5.384909 -1.640293 -1.416459 0
M  V30 48 H -7.089348 -2.520273 -2.947124 0
M  V30 49 H -6.756438 0.923036 -5.428551 0
M  V30 50 H -5.008468 1.863463 -3.891715 0
M  V30 51 H -1.303093 -0.596815 -0.638575 0
M  V30 52 H 1.148837 -1.608292 -2.019417 0
M  V30 53 H -0.478277 -1.277683 -2.660524 0
M  V30 54 H -1.367349 -3.292233 -2.113212 0
M  V30 55 H 0.393252 -3.780664 -1.906788 0
M  V30 56 H -1.774737 -3.391849 0.098883 0
M  V30 57 H -0.086121 -4.073350 0.332373 0
M  V30 58 H 0.776898 -2.104446 1.025307 0
M  V30 59 H -0.924401 -1.755730 1.420218 0
M  V30 END ATOM
M  V30 BEGIN BOND
M  V30 1 1 1 2
M  V30 2 1 2 3
M  V30 3 1 2 4
M  V30 4 1 4 5
M  V30 5 1 5 6
M  V30 6 1 6 7
M  V30 7 2 7 8
M  V30 8 1 7 9
M  V30 9 1 9 10
M  V30 10 1 10 11
M  V30 11 2 11 12
M  V30 12 1 11 13
M  V30 13 1 13 14
M  V30 14 1 14 15
M  V30 15 2 15 16
M  V30 16 1 16 17
M  V30 17 1 17 18
M  V30 18 2 18 19
M  V30 19 1 19 20
M  V30 20 2 20 21
M  V30 21 1 21 22
M  V30 22 1 21 23
M  V30 23 2 23 24
M  V30 24 2 17 25
M  V30 25 1 10 26
M  V30 26 1 26 27
M  V30 27 1 27 28
M  V30 28 1 28 29
M  V30 29 1 29 30
M  V30 30 1 25 14
M  V30 31 1 30 26
M  V30 32 1 24 18
M  V30 33 1 1 31
M  V30 34 1 1 32
M  V30 35 1 1 33
M  V30 36 1 2 34
M  V30 37 1 3 35
M  V30 38 1 3 36
M  V30 39 1 3 37
M  V30 40 1 4 38
M  V30 41 1 4 39
M  V30 42 1 5 40
M  V30 43 1 5 41
M  V30 44 1 6 42
M  V30 45 1 9 43
M  V30 46 1 9 44
M  V30 47 1 13 45
M  V30 48 1 13 46
M  V30 49 1 19 47
M  V30 50 1 20 48
M  V30 51 1 23 49
M  V30 52 1 24 50
M  V30 53 1 26 51
M  V30 54 1 27 52
M  V30 55 1 27 53
M  V30 56 1 28 54
M  V30 57 1 28 55
M  V30 58 1 29 56
M  V30 59 1 29 57
M  V30 60 1 30 58
M  V30 61 1 30 59
M  V30 END BOND
M  V30 END CTAB
M  END
>  <Dataset>  (296) 
ChEMBL_Kinases

>  <Ligand_Instance>  (296) 
nan

>  <PDB_ID>  (296) 
nan

>  <Standardized_SMILES>  (296) 
CC(C)CCNC(=O)CN(C(=O)Cn1nnc(-c2ccc(F)cc2)n1)C1CCCC1

>  <Name>  (296) 
nan

>  <Pocket>  (296) 
nan

>  <ATP_Site>  (296) 
nan

>  <Peripheral>  (296) 
nan

>  <Num_H_Atoms_ProtBoundConf>  (296) 
nan

>  <Num_Resolved_Atoms>  (296) 
nan

>  <Num_Not_Resolved_Atoms>  (296) 
nan

$$$$
CHEMBL1547695
     RDKit          3D

  0  0  0  0  0  0  0  0  0  0999 V3000
M  V30 BEGIN CTAB
M  V30 COUNTS 36 39 0 0 0
M  V30 BEGIN ATOM
M  V30 1 C -1.211681 -3.567675 3.304634 0
M  V30 2 N -0.242573 -2.619202 2.820398 0
M  V30 3 N 0.940655 -2.218638 3.224611 0
M  V30 4 C 1.462151 -1.287444 2.411048 0
M  V30 5 C 2.793400 -0.698944 2.684651 0
M  V30 6 C 3.876001 -1.473636 3.042751 0
M  V30 7 C 5.123617 -0.945931 3.301747 0
M  V30 8 C 5.237330 0.429621 3.181729 0
M  V30 9 Cl 6.792366 1.157667 3.496943 0
M  V30 10 C 4.182171 1.254157 2.825188 0
M  V30 11 C 2.956275 0.673111 2.577467 0
M  V30 12 C 0.598615 -1.012980 1.371191 0
M  V30 13 C 0.457951 -0.246035 0.252670 0
M  V30 14 C -0.673185 -0.373670 -0.469247 0
M  V30 15 C -0.956731 0.433836 -1.753454 0
M  V30 16 O -0.233004 1.289552 -2.308795 0
M  V30 17 N -2.195523 0.137413 -2.338208 0
M  V30 18 C -2.619306 0.805918 -3.550043 0
M  V30 19 C -4.102521 1.244122 -3.538313 0
M  V30 20 C -3.594132 0.187656 -4.465216 0
M  V30 21 S -1.657741 -1.544654 0.295242 0
M  V30 22 C -0.430369 -1.876138 1.696203 0
M  V30 23 H -1.747813 -4.078122 2.490433 0
M  V30 24 H -0.634242 -4.350809 3.840720 0
M  V30 25 H -1.912200 -3.114062 4.038433 0
M  V30 26 H 3.708549 -2.550688 3.116851 0
M  V30 27 H 5.926857 -1.596910 3.575682 0
M  V30 28 H 4.358307 2.338619 2.752480 0
M  V30 29 H 2.119999 1.320298 2.295579 0
M  V30 30 H 1.253476 0.457749 -0.046514 0
M  V30 31 H -2.902142 -0.563928 -1.972273 0
M  V30 32 H -1.921007 1.557954 -3.989141 0
M  V30 33 H -4.366473 2.218405 -3.968884 0
M  V30 34 H -4.706370 0.940524 -2.642915 0
M  V30 35 H -3.546240 0.406285 -5.551144 0
M  V30 36 H -3.920801 -0.860291 -4.207521 0
M  V30 END ATOM
M  V30 BEGIN BOND
M  V30 1 1 1 2
M  V30 2 1 2 3
M  V30 3 2 3 4
M  V30 4 1 4 5
M  V30 5 2 5 6
M  V30 6 1 6 7
M  V30 7 2 7 8
M  V30 8 1 8 9
M  V30 9 1 8 10
M  V30 10 2 10 11
M  V30 11 1 4 12
M  V30 12 1 12 13
M  V30 13 2 13 14
M  V30 14 1 14 15
M  V30 15 2 15 16
M  V30 16 1 15 17
M  V30 17 1 17 18
M  V30 18 1 18 19
M  V30 19 1 19 20
M  V30 20 1 14 21
M  V30 21 1 21 22
M  V30 22 1 22 2
M  V30 23 1 11 5
M  V30 24 2 22 12
M  V30 25 1 20 18
M  V30 26 1 1 23
M  V30 27 1 1 24
M  V30 28 1 1 25
M  V30 29 1 6 26
M  V30 30 1 7 27
M  V30 31 1 10 28
M  V30 32 1 11 29
M  V30 33 1 13 30
M  V30 34 1 17 31
M  V30 35 1 18 32
M  V30 36 1 19 33
M  V30 37 1 19 34
M  V30 38 1 20 35
M  V30 39 1 20 36
M  V30 END BOND
M  V30 END CTAB
M  END
>  <Dataset>  (297) 
ChEMBL_Kinases

>  <Ligand_Instance>  (297) 
nan

>  <PDB_ID>  (297) 
nan

>  <Standardized_SMILES>  (297) 
Cn1nc(-c2ccc(Cl)cc2)c2cc(C(=O)NC3CC3)sc21

>  <Name>  (297) 
nan

>  <Pocket>  (297) 
nan

>  <ATP_Site>  (297) 
nan

>  <Peripheral>  (297) 
nan

>  <Num_H_Atoms_ProtBoundConf>  (297) 
nan

>  <Num_Resolved_Atoms>  (297) 
nan

>  <Num_Not_Resolved_Atoms>  (297) 
nan

$$$$
CHEMBL1547543
     RDKit          3D

  0  0  0  0  0  0  0  0  0  0999 V3000
M  V30 BEGIN CTAB
M  V30 COUNTS 48 50 0 0 0
M  V30 BEGIN ATOM
M  V30 1 C 2.566773 -4.385710 4.123720 0
M  V30 2 C 2.771449 -4.721231 2.685867 0
M  V30 3 N 2.538491 -3.587711 1.804066 0
M  V30 4 C 3.386468 -2.434388 2.021365 0
M  V30 5 O 4.293949 -2.270516 2.852279 0
M  V30 6 N 2.799045 -1.646452 0.985753 0
M  V30 7 C 3.430270 -0.283374 0.968665 0
M  V30 8 O 4.366333 -0.012167 1.817242 0
M  V30 9 C 3.428069 1.087979 0.286076 0
M  V30 10 C 4.752835 1.390228 -0.329660 0
M  V30 11 O 2.479416 0.917963 -0.760650 0
M  V30 12 C 1.209631 1.462191 -0.740310 0
M  V30 13 O 0.766519 2.156854 0.221965 0
M  V30 14 C 0.307077 1.213324 -1.921407 0
M  V30 15 C -0.769787 0.273982 -1.600008 0
M  V30 16 C -0.684585 -1.020241 -2.134828 0
M  V30 17 O -1.730704 -1.719148 -1.755965 0
M  V30 18 C -2.533163 -0.997185 -0.995806 0
M  V30 19 C -3.726872 -1.200996 -0.338709 0
M  V30 20 C -4.261222 -0.155112 0.381737 0
M  V30 21 C -3.658219 1.104254 0.482583 0
M  V30 22 C -2.446635 1.332099 -0.177435 0
M  V30 23 C -1.943928 0.252120 -0.890508 0
M  V30 24 C -4.545035 1.956973 1.352434 0
M  V30 25 C -5.116506 0.860728 2.264387 0
M  V30 26 C -5.539010 -0.141378 1.179682 0
M  V30 27 H 3.410052 -4.670245 4.793701 0
M  V30 28 H 1.671847 -4.966750 4.490534 0
M  V30 29 H 2.303673 -3.326823 4.330170 0
M  V30 30 H 2.121158 -5.557387 2.383217 0
M  V30 31 H 3.825492 -5.079769 2.581311 0
M  V30 32 H 1.756085 -3.740404 1.086970 0
M  V30 33 H 2.400067 -1.105816 0.279279 0
M  V30 34 H 3.064746 1.774716 1.055756 0
M  V30 35 H 4.663415 2.361956 -0.845605 0
M  V30 36 H 4.882206 0.640900 -1.166612 0
M  V30 37 H 5.596196 1.357210 0.394908 0
M  V30 38 H 0.915240 0.947080 -2.792730 0
M  V30 39 H -0.197433 2.216035 -2.064455 0
M  V30 40 H 0.067965 -1.496677 -2.772541 0
M  V30 41 H -4.194889 -2.172046 -0.417014 0
M  V30 42 H -1.958617 2.280028 -0.125135 0
M  V30 43 H -3.999482 2.702297 1.928854 0
M  V30 44 H -5.361260 2.409199 0.740840 0
M  V30 45 H -5.948643 1.211624 2.873112 0
M  V30 46 H -4.270233 0.407290 2.795172 0
M  V30 47 H -6.340148 0.329757 0.580327 0
M  V30 48 H -5.804069 -1.122472 1.582128 0
M  V30 END ATOM
M  V30 BEGIN BOND
M  V30 1 1 1 2
M  V30 2 1 2 3
M  V30 3 1 3 4
M  V30 4 2 4 5
M  V30 5 1 4 6
M  V30 6 1 6 7
M  V30 7 2 7 8
M  V30 8 1 7 9
M  V30 9 1 9 10
M  V30 10 1 9 11
M  V30 11 1 11 12
M  V30 12 2 12 13
M  V30 13 1 12 14
M  V30 14 1 14 15
M  V30 15 2 15 16
M  V30 16 1 16 17
M  V30 17 1 17 18
M  V30 18 2 18 19
M  V30 19 1 19 20
M  V30 20 2 20 21
M  V30 21 1 21 22
M  V30 22 2 22 23
M  V30 23 1 21 24
M  V30 24 1 24 25
M  V30 25 1 25 26
M  V30 26 1 23 15
M  V30 27 1 23 18
M  V30 28 1 26 20
M  V30 29 1 1 27
M  V30 30 1 1 28
M  V30 31 1 1 29
M  V30 32 1 2 30
M  V30 33 1 2 31
M  V30 34 1 3 32
M  V30 35 1 6 33
M  V30 36 1 9 34
M  V30 37 1 10 35
M  V30 38 1 10 36
M  V30 39 1 10 37
M  V30 40 1 14 38
M  V30 41 1 14 39
M  V30 42 1 16 40
M  V30 43 1 19 41
M  V30 44 1 22 42
M  V30 45 1 24 43
M  V30 46 1 24 44
M  V30 47 1 25 45
M  V30 48 1 25 46
M  V30 49 1 26 47
M  V30 50 1 26 48
M  V30 END BOND
M  V30 END CTAB
M  END
>  <Dataset>  (298) 
ChEMBL_Kinases

>  <Ligand_Instance>  (298) 
nan

>  <PDB_ID>  (298) 
nan

>  <Standardized_SMILES>  (298) 
CCNC(=O)NC(=O)C(C)OC(=O)Cc1coc2cc3c(cc12)CCC3

>  <Name>  (298) 
nan

>  <Pocket>  (298) 
nan

>  <ATP_Site>  (298) 
nan

>  <Peripheral>  (298) 
nan

>  <Num_H_Atoms_ProtBoundConf>  (298) 
nan

>  <Num_Resolved_Atoms>  (298) 
nan

>  <Num_Not_Resolved_Atoms>  (298) 
nan

$$$$
CHEMBL1547290
     RDKit          3D

  0  0  0  0  0  0  0  0  0  0999 V3000
M  V30 BEGIN CTAB
M  V30 COUNTS 36 37 0 0 0
M  V30 BEGIN ATOM
M  V30 1 C -1.886518 -2.077823 4.378806 0
M  V30 2 C -1.268624 -2.925644 3.563944 0
M  V30 3 C -1.348839 -3.461285 2.177593 0
M  V30 4 S 0.173903 -3.064855 1.312678 0
M  V30 5 C 0.370985 -1.288127 1.057415 0
M  V30 6 N 0.991482 -0.497873 1.967711 0
M  V30 7 C 0.983582 0.764120 1.499869 0
M  V30 8 C 0.333555 0.657869 0.287688 0
M  V30 9 C 0.165743 1.812704 -0.444284 0
M  V30 10 O -0.406144 1.796417 -1.536130 0
M  V30 11 N 0.618802 2.996253 0.006450 0
M  V30 12 C 1.253233 3.094234 1.190635 0
M  V30 13 O 1.699356 4.152584 1.671745 0
M  V30 14 N 1.422919 1.964948 1.917579 0
M  V30 15 C 2.092681 2.003197 3.192361 0
M  V30 16 N -0.052007 -0.582483 -0.009835 0
M  V30 17 C -0.727984 -1.193393 -1.117387 0
M  V30 18 C 0.222414 -1.687694 -2.155183 0
M  V30 19 C 0.437292 -1.473969 -3.450448 0
M  V30 20 C 1.564027 -2.240460 -4.081002 0
M  V30 21 Cl -0.728635 -0.313563 -4.060843 0
M  V30 22 H -1.802501 -1.709875 5.385069 0
M  V30 23 H -2.709520 -1.660482 3.815939 0
M  V30 24 H -0.419463 -3.376535 4.096535 0
M  V30 25 H -2.215872 -3.013137 1.641010 0
M  V30 26 H -1.454661 -4.548310 2.177048 0
M  V30 27 H 0.490555 3.853532 -0.544356 0
M  V30 28 H 2.537784 1.023803 3.441050 0
M  V30 29 H 1.435690 2.372488 4.005379 0
M  V30 30 H 2.900423 2.787171 3.099126 0
M  V30 31 H -1.287206 -2.073841 -0.744119 0
M  V30 32 H -1.506130 -0.536395 -1.558163 0
M  V30 33 H 0.880923 -2.407006 -1.624831 0
M  V30 34 H 2.550700 -1.838895 -3.791789 0
M  V30 35 H 1.473550 -3.327865 -3.800231 0
M  V30 36 H 1.428172 -2.106682 -5.172046 0
M  V30 END ATOM
M  V30 BEGIN BOND
M  V30 1 2 1 2
M  V30 2 1 2 3
M  V30 3 1 3 4
M  V30 4 1 4 5
M  V30 5 2 5 6
M  V30 6 1 6 7
M  V30 7 2 7 8
M  V30 8 1 8 9
M  V30 9 2 9 10
M  V30 10 1 9 11
M  V30 11 1 11 12
M  V30 12 2 12 13
M  V30 13 1 12 14
M  V30 14 1 14 15
M  V30 15 1 8 16
M  V30 16 1 16 17
M  V30 17 1 17 18
M  V30 18 2 18 19
M  V30 19 1 19 20
M  V30 20 1 19 21
M  V30 21 1 16 5
M  V30 22 1 14 7
M  V30 23 1 1 22
M  V30 24 1 1 23
M  V30 25 1 2 24
M  V30 26 1 3 25
M  V30 27 1 3 26
M  V30 28 1 11 27
M  V30 29 1 15 28
M  V30 30 1 15 29
M  V30 31 1 15 30
M  V30 32 1 17 31
M  V30 33 1 17 32
M  V30 34 1 18 33
M  V30 35 1 20 34
M  V30 36 1 20 35
M  V30 37 1 20 36
M  V30 END BOND
M  V30 END CTAB
M  END
>  <Dataset>  (299) 
ChEMBL_Kinases

>  <Ligand_Instance>  (299) 
nan

>  <PDB_ID>  (299) 
nan

>  <Standardized_SMILES>  (299) 
C=CCSc1nc2c(c(=O)[nH]c(=O)n2C)n1C/C=C(/C)Cl

>  <Name>  (299) 
nan

>  <Pocket>  (299) 
nan

>  <ATP_Site>  (299) 
nan

>  <Peripheral>  (299) 
nan

>  <Num_H_Atoms_ProtBoundConf>  (299) 
nan

>  <Num_Resolved_Atoms>  (299) 
nan

>  <Num_Not_Resolved_Atoms>  (299) 
nan

$$$$
CHEMBL1547221
     RDKit          3D

  0  0  0  0  0  0  0  0  0  0999 V3000
M  V30 BEGIN CTAB
M  V30 COUNTS 47 49 0 0 0
M  V30 BEGIN ATOM
M  V30 1 C 0.768491 -5.471226 0.277026 0
M  V30 2 N 0.515095 -4.199031 0.926954 0
M  V30 3 C 1.562644 -3.291865 0.554278 0
M  V30 4 C 0.947807 -2.361175 -0.413116 0
M  V30 5 C 1.660957 -1.073180 -0.541341 0
M  V30 6 O 2.574233 -1.248546 0.304947 0
M  V30 7 C 1.441982 0.098822 -1.370193 0
M  V30 8 C 0.458902 0.316571 -2.311376 0
M  V30 9 C 0.381010 1.488929 -3.019327 0
M  V30 10 C 1.319146 2.464982 -2.770421 0
M  V30 11 Cl 1.146370 3.933231 -3.719979 0
M  V30 12 C 2.307938 2.277920 -1.841373 0
M  V30 13 C 2.370945 1.097027 -1.141139 0
M  V30 14 C -0.474747 -2.227160 0.075430 0
M  V30 15 C -0.640141 -1.220136 1.155398 0
M  V30 16 C -0.278025 -1.294532 2.481012 0
M  V30 17 C -0.498891 -0.250883 3.352979 0
M  V30 18 C -1.094070 0.928195 2.954889 0
M  V30 19 N -1.301526 1.977909 3.889452 0
M  V30 20 C -1.922868 3.244047 3.537381 0
M  V30 21 C -0.882313 1.803029 5.266657 0
M  V30 22 C -1.475754 1.052781 1.637193 0
M  V30 23 C -1.239636 -0.009624 0.793963 0
M  V30 24 C -0.739487 -3.628735 0.566669 0
M  V30 25 H -0.127824 -6.114956 0.207867 0
M  V30 26 H 1.108587 -5.326669 -0.780415 0
M  V30 27 H 1.606087 -5.985538 0.784537 0
M  V30 28 H 2.424252 -3.871572 0.132810 0
M  V30 29 H 2.010032 -2.720589 1.393698 0
M  V30 30 H 0.872186 -2.877037 -1.405765 0
M  V30 31 H -0.224334 -0.491457 -2.441480 0
M  V30 32 H -0.438913 1.553527 -3.740064 0
M  V30 33 H 3.002371 3.102340 -1.713011 0
M  V30 34 H 3.191468 1.054536 -0.432002 0
M  V30 35 H -1.123469 -1.974304 -0.805152 0
M  V30 36 H 0.178939 -2.225295 2.779160 0
M  V30 37 H -0.177886 -0.406586 4.375505 0
M  V30 38 H -1.165122 3.858181 3.033867 0
M  V30 39 H -2.325931 3.756555 4.434164 0
M  V30 40 H -2.753128 2.997288 2.822283 0
M  V30 41 H 0.230158 1.706349 5.259038 0
M  V30 42 H -1.266102 0.803454 5.605160 0
M  V30 43 H -1.211750 2.616948 5.918387 0
M  V30 44 H -1.945742 1.953488 1.271106 0
M  V30 45 H -1.561484 0.137680 -0.243172 0
M  V30 46 H -1.102646 -4.207371 -0.331984 0
M  V30 47 H -1.517727 -3.690594 1.351098 0
M  V30 END ATOM
M  V30 BEGIN BOND
M  V30 1 1 1 2
M  V30 2 1 2 3
M  V30 3 1 3 4
M  V30 4 1 4 5
M  V30 5 2 5 6
M  V30 6 1 5 7
M  V30 7 2 7 8
M  V30 8 1 8 9
M  V30 9 2 9 10
M  V30 10 1 10 11
M  V30 11 1 10 12
M  V30 12 2 12 13
M  V30 13 1 4 14
M  V30 14 1 14 15
M  V30 15 2 15 16
M  V30 16 1 16 17
M  V30 17 2 17 18
M  V30 18 1 18 19
M  V30 19 1 19 20
M  V30 20 1 19 21
M  V30 21 1 18 22
M  V30 22 2 22 23
M  V30 23 1 14 24
M  V30 24 1 24 2
M  V30 25 1 13 7
M  V30 26 1 23 15
M  V30 27 1 1 25
M  V30 28 1 1 26
M  V30 29 1 1 27
M  V30 30 1 3 28
M  V30 31 1 3 29
M  V30 32 1 4 30
M  V30 33 1 8 31
M  V30 34 1 9 32
M  V30 35 1 12 33
M  V30 36 1 13 34
M  V30 37 1 14 35
M  V30 38 1 16 36
M  V30 39 1 17 37
M  V30 40 1 20 38
M  V30 41 1 20 39
M  V30 42 1 20 40
M  V30 43 1 21 41
M  V30 44 1 21 42
M  V30 45 1 21 43
M  V30 46 1 22 44
M  V30 47 1 23 45
M  V30 48 1 24 46
M  V30 49 1 24 47
M  V30 END BOND
M  V30 END CTAB
M  END
>  <Dataset>  (300) 
ChEMBL_Kinases

>  <Ligand_Instance>  (300) 
nan

>  <PDB_ID>  (300) 
nan

>  <Standardized_SMILES>  (300) 
CN1CC(C(=O)c2ccc(Cl)cc2)C(c2ccc(N(C)C)cc2)C1

>  <Name>  (300) 
nan

>  <Pocket>  (300) 
nan

>  <ATP_Site>  (300) 
nan

>  <Peripheral>  (300) 
nan

>  <Num_H_Atoms_ProtBoundConf>  (300) 
nan

>  <Num_Resolved_Atoms>  (300) 
nan

>  <Num_Not_Resolved_Atoms>  (300) 
nan

$$$$
CHEMBL1547186
     RDKit          3D

  0  0  0  0  0  0  0  0  0  0999 V3000
M  V30 BEGIN CTAB
M  V30 COUNTS 46 50 0 0 0
M  V30 BEGIN ATOM
M  V30 1 C -0.473799 -2.155596 2.969915 0
M  V30 2 N 0.430407 -1.737215 1.916430 0
M  V30 3 C 1.501894 -0.898322 2.035770 0
M  V30 4 S 1.946864 -0.174564 3.605722 0
M  V30 5 C 3.405273 0.895131 3.448942 0
M  V30 6 C 3.005219 2.054937 2.606958 0
M  V30 7 N 2.483644 3.209278 3.102318 0
M  V30 8 N 2.243743 4.020555 2.082952 0
M  V30 9 C 2.610602 3.386975 0.940898 0
M  V30 10 C 2.492785 3.970943 -0.389965 0
M  V30 11 C 2.879559 3.282949 -1.520789 0
M  V30 12 C 2.769714 3.834484 -2.783230 0
M  V30 13 C 2.252851 5.125144 -2.923315 0
M  V30 14 F 2.083819 5.799392 -4.091093 0
M  V30 15 C 1.848389 5.858441 -1.801639 0
M  V30 16 C 1.987833 5.241112 -0.567938 0
M  V30 17 O 3.065413 2.206343 1.283904 0
M  V30 18 N 2.055690 -0.788280 0.806151 0
M  V30 19 N 1.372777 -1.520678 -0.058548 0
M  V30 20 C 0.356885 -2.116509 0.623925 0
M  V30 21 C -0.673145 -3.033203 0.061164 0
M  V30 22 C -0.297821 -4.464901 0.378152 0
M  V30 23 O -1.118317 -4.987248 1.432292 0
M  V30 24 C -2.485314 -4.920609 1.269638 0
M  V30 25 C -3.444275 -5.895869 1.542835 0
M  V30 26 C -4.783274 -5.660207 1.318749 0
M  V30 27 C -5.178463 -4.436340 0.815121 0
M  V30 28 C -4.247334 -3.439188 0.530966 0
M  V30 29 C -2.895434 -3.702799 0.766971 0
M  V30 30 O -1.962565 -2.715266 0.486928 0
M  V30 31 H -0.304730 -1.497381 3.859631 0
M  V30 32 H -1.541824 -2.035391 2.715123 0
M  V30 33 H -0.233540 -3.184113 3.334867 0
M  V30 34 H 3.688501 1.273991 4.438307 0
M  V30 35 H 4.242447 0.360642 2.932250 0
M  V30 36 H 3.286908 2.274361 -1.452579 0
M  V30 37 H 3.040930 3.379791 -3.703258 0
M  V30 38 H 1.444447 6.856291 -1.856520 0
M  V30 39 H 1.689214 5.769050 0.326253 0
M  V30 40 H -0.626076 -2.930517 -1.062445 0
M  V30 41 H 0.736879 -4.480468 0.766738 0
M  V30 42 H -0.397825 -5.105002 -0.538694 0
M  V30 43 H -3.033966 -6.831766 1.939619 0
M  V30 44 H -5.494265 -6.434555 1.540945 0
M  V30 45 H -6.229457 -4.209241 0.622783 0
M  V30 46 H -4.612967 -2.491058 0.134696 0
M  V30 END ATOM
M  V30 BEGIN BOND
M  V30 1 1 1 2
M  V30 2 1 2 3
M  V30 3 1 3 4
M  V30 4 1 4 5
M  V30 5 1 5 6
M  V30 6 2 6 7
M  V30 7 1 7 8
M  V30 8 2 8 9
M  V30 9 1 9 10
M  V30 10 2 10 11
M  V30 11 1 11 12
M  V30 12 2 12 13
M  V30 13 1 13 14
M  V30 14 1 13 15
M  V30 15 2 15 16
M  V30 16 1 9 17
M  V30 17 2 3 18
M  V30 18 1 18 19
M  V30 19 2 19 20
M  V30 20 1 20 21
M  V30 21 1 21 22
M  V30 22 1 22 23
M  V30 23 1 23 24
M  V30 24 2 24 25
M  V30 25 1 25 26
M  V30 26 2 26 27
M  V30 27 1 27 28
M  V30 28 2 28 29
M  V30 29 1 29 30
M  V30 30 1 20 2
M  V30 31 1 30 21
M  V30 32 1 17 6
M  V30 33 1 29 24
M  V30 34 1 16 10
M  V30 35 1 1 31
M  V30 36 1 1 32
M  V30 37 1 1 33
M  V30 38 1 5 34
M  V30 39 1 5 35
M  V30 40 1 11 36
M  V30 41 1 12 37
M  V30 42 1 15 38
M  V30 43 1 16 39
M  V30 44 1 21 40
M  V30 45 1 22 41
M  V30 46 1 22 42
M  V30 47 1 25 43
M  V30 48 1 26 44
M  V30 49 1 27 45
M  V30 50 1 28 46
M  V30 END BOND
M  V30 END CTAB
M  END
>  <Dataset>  (301) 
ChEMBL_Kinases

>  <Ligand_Instance>  (301) 
nan

>  <PDB_ID>  (301) 
nan

>  <Standardized_SMILES>  (301) 
Cn1c(SCc2nnc(-c3ccc(F)cc3)o2)nnc1C1COc2ccccc2O1

>  <Name>  (301) 
nan

>  <Pocket>  (301) 
nan

>  <ATP_Site>  (301) 
nan

>  <Peripheral>  (301) 
nan

>  <Num_H_Atoms_ProtBoundConf>  (301) 
nan

>  <Num_Resolved_Atoms>  (301) 
nan

>  <Num_Not_Resolved_Atoms>  (301) 
nan

$$$$
CHEMBL1547015
     RDKit          3D

  0  0  0  0  0  0  0  0  0  0999 V3000
M  V30 BEGIN CTAB
M  V30 COUNTS 48 49 0 0 0
M  V30 BEGIN ATOM
M  V30 1 C 0.849031 -7.518841 2.744716 0
M  V30 2 O -0.221906 -6.900186 2.032952 0
M  V30 3 C 0.029761 -5.646597 1.499584 0
M  V30 4 C 1.215306 -4.917487 1.570019 0
M  V30 5 C 1.337553 -3.674874 0.995678 0
M  V30 6 C 0.272625 -3.113045 0.326694 0
M  V30 7 C 0.566367 -1.806381 -0.203078 0
M  V30 8 O 1.694420 -1.298406 -0.189000 0
M  V30 9 N -0.309587 -0.886362 -0.805425 0
M  V30 10 C -0.589730 0.366130 -1.405157 0
M  V30 11 C -0.714903 1.554531 -0.561283 0
M  V30 12 C -0.063592 2.553202 0.116303 0
M  V30 13 C 1.363372 2.747814 0.253626 0
M  V30 14 C 2.041153 2.314867 1.478686 0
M  V30 15 C 2.020152 0.926400 1.937145 0
M  V30 16 C 3.521504 2.754523 1.453439 0
M  V30 17 O -0.863979 3.403060 0.702294 0
M  V30 18 C -2.120964 3.103509 0.509237 0
M  V30 19 C -3.281955 3.867804 1.040628 0
M  V30 20 C -2.028355 1.967874 -0.265368 0
M  V30 21 C -3.312575 1.369568 -0.651264 0
M  V30 22 O -3.753139 1.866853 -1.748782 0
M  V30 23 O -4.430673 0.586607 -0.635347 0
M  V30 24 C -0.925658 -3.781296 0.219340 0
M  V30 25 C -1.019177 -5.042341 0.814246 0
M  V30 26 H 1.746605 -7.621059 2.068067 0
M  V30 27 H 0.559683 -8.505581 3.176105 0
M  V30 28 H 1.160518 -6.785866 3.532033 0
M  V30 29 H 2.015986 -5.395212 2.099396 0
M  V30 30 H 2.313545 -3.221806 1.122798 0
M  V30 31 H -1.263916 -1.399131 -0.812726 0
M  V30 32 H 0.299531 0.576199 -2.147576 0
M  V30 33 H -1.435954 0.337370 -2.125260 0
M  V30 34 H 1.582130 3.834125 0.020025 0
M  V30 35 H 1.884771 2.209269 -0.607626 0
M  V30 36 H 1.623334 2.944621 2.342181 0
M  V30 37 H 2.882318 0.338844 1.498282 0
M  V30 38 H 1.061065 0.411072 1.908703 0
M  V30 39 H 2.314063 0.950029 3.043159 0
M  V30 40 H 3.636055 3.835527 1.568310 0
M  V30 41 H 4.086962 2.230531 2.272233 0
M  V30 42 H 3.989215 2.438583 0.499067 0
M  V30 43 H -2.944797 4.791234 1.508068 0
M  V30 44 H -3.958623 4.057969 0.164852 0
M  V30 45 H -3.882826 3.205862 1.737465 0
M  V30 46 H -4.481275 -0.364249 -0.994651 0
M  V30 47 H -1.732870 -3.307207 -0.312223 0
M  V30 48 H -1.986547 -5.525264 0.704161 0
M  V30 END ATOM
M  V30 BEGIN BOND
M  V30 1 1 1 2
M  V30 2 1 2 3
M  V30 3 2 3 4
M  V30 4 1 4 5
M  V30 5 2 5 6
M  V30 6 1 6 7
M  V30 7 2 7 8
M  V30 8 1 7 9
M  V30 9 1 9 10
M  V30 10 1 10 11
M  V30 11 2 11 12
M  V30 12 1 12 13
M  V30 13 1 13 14
M  V30 14 1 14 15
M  V30 15 1 14 16
M  V30 16 1 12 17
M  V30 17 1 17 18
M  V30 18 1 18 19
M  V30 19 2 18 20
M  V30 20 1 20 21
M  V30 21 2 21 22
M  V30 22 1 21 23
M  V30 23 1 6 24
M  V30 24 2 24 25
M  V30 25 1 25 3
M  V30 26 1 20 11
M  V30 27 1 1 26
M  V30 28 1 1 27
M  V30 29 1 1 28
M  V30 30 1 4 29
M  V30 31 1 5 30
M  V30 32 1 9 31
M  V30 33 1 10 32
M  V30 34 1 10 33
M  V30 35 1 13 34
M  V30 36 1 13 35
M  V30 37 1 14 36
M  V30 38 1 15 37
M  V30 39 1 15 38
M  V30 40 1 15 39
M  V30 41 1 16 40
M  V30 42 1 16 41
M  V30 43 1 16 42
M  V30 44 1 19 43
M  V30 45 1 19 44
M  V30 46 1 19 45
M  V30 47 1 23 46
M  V30 48 1 24 47
M  V30 49 1 25 48
M  V30 END BOND
M  V30 END CTAB
M  END
>  <Dataset>  (302) 
ChEMBL_Kinases

>  <Ligand_Instance>  (302) 
nan

>  <PDB_ID>  (302) 
nan

>  <Standardized_SMILES>  (302) 
COc1ccc(C(=O)NCc2c(CC(C)C)oc(C)c2C(=O)O)cc1

>  <Name>  (302) 
nan

>  <Pocket>  (302) 
nan

>  <ATP_Site>  (302) 
nan

>  <Peripheral>  (302) 
nan

>  <Num_H_Atoms_ProtBoundConf>  (302) 
nan

>  <Num_Resolved_Atoms>  (302) 
nan

>  <Num_Not_Resolved_Atoms>  (302) 
nan

$$$$
CHEMBL1546987
     RDKit          3D

  0  0  0  0  0  0  0  0  0  0999 V3000
M  V30 BEGIN CTAB
M  V30 COUNTS 35 37 0 0 0
M  V30 BEGIN ATOM
M  V30 1 O -2.282932 -0.059112 2.783652 0
M  V30 2 C -1.412957 0.678829 3.323215 0
M  V30 3 N -0.119776 0.921229 2.761265 0
M  V30 4 C 0.239841 0.310244 1.522143 0
M  V30 5 C 0.850325 -0.927837 1.446455 0
M  V30 6 C 1.189722 -1.501029 0.239103 0
M  V30 7 C 0.932526 -0.858583 -0.952249 0
M  V30 8 N 1.300007 -1.512465 -2.158677 0
M  V30 9 C 2.024459 -2.763154 -2.277030 0
M  V30 10 C 0.970895 -3.574537 -3.045708 0
M  V30 11 C 0.815869 -2.638969 -4.221145 0
M  V30 12 C 1.158434 -1.303661 -3.580884 0
M  V30 13 C 0.324229 0.372130 -0.840921 0
M  V30 14 Cl -0.031415 1.264769 -2.286759 0
M  V30 15 C -0.030574 0.978623 0.344572 0
M  V30 16 C -1.721993 1.341157 4.607189 0
M  V30 17 C -0.909586 2.178659 5.347904 0
M  V30 18 C -1.565919 2.592661 6.490324 0
M  V30 19 C -2.793585 1.961197 6.383190 0
M  V30 20 Br -4.192962 2.130687 7.680535 0
M  V30 21 O -2.849408 1.242013 5.276187 0
M  V30 22 H 0.582315 1.543483 3.239345 0
M  V30 23 H 1.022858 -1.375243 2.410053 0
M  V30 24 H 1.646202 -2.447053 0.374725 0
M  V30 25 H 2.876174 -2.678308 -2.993203 0
M  V30 26 H 2.303817 -3.239225 -1.345093 0
M  V30 27 H 1.292167 -4.581876 -3.288031 0
M  V30 28 H 0.027318 -3.511171 -2.469469 0
M  V30 29 H 1.645088 -2.884919 -4.917572 0
M  V30 30 H -0.168664 -2.678613 -4.682444 0
M  V30 31 H 0.298397 -0.649421 -3.826924 0
M  V30 32 H 2.073779 -0.860461 -4.029200 0
M  V30 33 H -0.503574 1.940478 0.376941 0
M  V30 34 H 0.098834 2.467357 5.068779 0
M  V30 35 H -1.195746 3.250667 7.269023 0
M  V30 END ATOM
M  V30 BEGIN BOND
M  V30 1 2 1 2
M  V30 2 1 2 3
M  V30 3 1 3 4
M  V30 4 2 4 5
M  V30 5 1 5 6
M  V30 6 2 6 7
M  V30 7 1 7 8
M  V30 8 1 8 9
M  V30 9 1 9 10
M  V30 10 1 10 11
M  V30 11 1 11 12
M  V30 12 1 7 13
M  V30 13 1 13 14
M  V30 14 2 13 15
M  V30 15 1 2 16
M  V30 16 2 16 17
M  V30 17 1 17 18
M  V30 18 2 18 19
M  V30 19 1 19 20
M  V30 20 1 19 21
M  V30 21 1 15 4
M  V30 22 1 21 16
M  V30 23 1 12 8
M  V30 24 1 3 22
M  V30 25 1 5 23
M  V30 26 1 6 24
M  V30 27 1 9 25
M  V30 28 1 9 26
M  V30 29 1 10 27
M  V30 30 1 10 28
M  V30 31 1 11 29
M  V30 32 1 11 30
M  V30 33 1 12 31
M  V30 34 1 12 32
M  V30 35 1 15 33
M  V30 36 1 17 34
M  V30 37 1 18 35
M  V30 END BOND
M  V30 END CTAB
M  END
>  <Dataset>  (303) 
ChEMBL_Kinases

>  <Ligand_Instance>  (303) 
nan

>  <PDB_ID>  (303) 
nan

>  <Standardized_SMILES>  (303) 
O=C(Nc1ccc(N2CCCC2)c(Cl)c1)c1ccc(Br)o1

>  <Name>  (303) 
nan

>  <Pocket>  (303) 
nan

>  <ATP_Site>  (303) 
nan

>  <Peripheral>  (303) 
nan

>  <Num_H_Atoms_ProtBoundConf>  (303) 
nan

>  <Num_Resolved_Atoms>  (303) 
nan

>  <Num_Not_Resolved_Atoms>  (303) 
nan

$$$$
CHEMBL1546938
     RDKit          3D

  0  0  0  0  0  0  0  0  0  0999 V3000
M  V30 BEGIN CTAB
M  V30 COUNTS 40 42 0 0 0
M  V30 BEGIN ATOM
M  V30 1 O 0.682647 0.852790 4.795039 0
M  V30 2 S 0.278952 -0.169828 3.771133 0
M  V30 3 O 0.103252 -1.511212 4.425960 0
M  V30 4 N 1.601477 -0.302357 2.670354 0
M  V30 5 C 1.823384 -1.095376 1.513562 0
M  V30 6 C 1.495223 -2.453235 1.610485 0
M  V30 7 N 1.652868 -3.339848 0.592473 0
M  V30 8 C 2.146784 -2.952953 -0.599285 0
M  V30 9 C 2.336521 -3.789175 -1.678694 0
M  V30 10 C 2.852228 -3.289412 -2.862449 0
M  V30 11 C 3.179843 -1.946546 -2.967252 0
M  V30 12 C 2.993752 -1.100859 -1.892478 0
M  V30 13 C 2.476869 -1.619016 -0.716898 0
M  V30 14 C 2.329943 -0.693397 0.294584 0
M  V30 15 N -1.120974 0.357209 2.965657 0
M  V30 16 C -1.583406 -0.525891 1.933739 0
M  V30 17 C -2.884162 -0.082491 1.327639 0
M  V30 18 C -2.688142 0.796240 0.115412 0
M  V30 19 C -1.961727 2.067850 0.391972 0
M  V30 20 C -0.666058 1.830161 1.136661 0
M  V30 21 C -0.985408 1.727677 2.598718 0
M  V30 22 H 2.492645 0.262455 2.754227 0
M  V30 23 H 1.086599 -2.906178 2.512599 0
M  V30 24 H 2.070803 -4.833111 -1.565138 0
M  V30 25 H 3.006874 -3.938130 -3.721438 0
M  V30 26 H 3.588942 -1.529481 -3.893301 0
M  V30 27 H 3.263442 -0.062143 -2.020854 0
M  V30 28 H 2.578978 0.349839 0.229114 0
M  V30 29 H -1.822674 -1.497092 2.460651 0
M  V30 30 H -0.836724 -0.804967 1.178311 0
M  V30 31 H -3.425927 -0.986778 0.950950 0
M  V30 32 H -3.491196 0.433128 2.067553 0
M  V30 33 H -3.711081 1.065447 -0.227940 0
M  V30 34 H -2.192697 0.268470 -0.702291 0
M  V30 35 H -2.536233 2.809629 0.995583 0
M  V30 36 H -1.694408 2.528676 -0.571922 0
M  V30 37 H -0.053631 1.019589 0.748614 0
M  V30 38 H -0.072409 2.761656 1.006185 0
M  V30 39 H -0.187820 2.189634 3.214351 0
M  V30 40 H -1.923870 2.260583 2.864240 0
M  V30 END ATOM
M  V30 BEGIN BOND
M  V30 1 2 1 2
M  V30 2 2 2 3
M  V30 3 1 2 4
M  V30 4 1 4 5
M  V30 5 2 5 6
M  V30 6 1 6 7
M  V30 7 2 7 8
M  V30 8 1 8 9
M  V30 9 2 9 10
M  V30 10 1 10 11
M  V30 11 2 11 12
M  V30 12 1 12 13
M  V30 13 2 13 14
M  V30 14 1 2 15
M  V30 15 1 15 16
M  V30 16 1 16 17
M  V30 17 1 17 18
M  V30 18 1 18 19
M  V30 19 1 19 20
M  V30 20 1 20 21
M  V30 21 1 14 5
M  V30 22 1 21 15
M  V30 23 1 13 8
M  V30 24 1 4 22
M  V30 25 1 6 23
M  V30 26 1 9 24
M  V30 27 1 10 25
M  V30 28 1 11 26
M  V30 29 1 12 27
M  V30 30 1 14 28
M  V30 31 1 16 29
M  V30 32 1 16 30
M  V30 33 1 17 31
M  V30 34 1 17 32
M  V30 35 1 18 33
M  V30 36 1 18 34
M  V30 37 1 19 35
M  V30 38 1 19 36
M  V30 39 1 20 37
M  V30 40 1 20 38
M  V30 41 1 21 39
M  V30 42 1 21 40
M  V30 END BOND
M  V30 END CTAB
M  END
>  <Dataset>  (304) 
ChEMBL_Kinases

>  <Ligand_Instance>  (304) 
nan

>  <PDB_ID>  (304) 
nan

>  <Standardized_SMILES>  (304) 
O=S(=O)(Nc1cnc2ccccc2c1)N1CCCCCC1

>  <Name>  (304) 
nan

>  <Pocket>  (304) 
nan

>  <ATP_Site>  (304) 
nan

>  <Peripheral>  (304) 
nan

>  <Num_H_Atoms_ProtBoundConf>  (304) 
nan

>  <Num_Resolved_Atoms>  (304) 
nan

>  <Num_Not_Resolved_Atoms>  (304) 
nan

$$$$
CHEMBL1546824
     RDKit          3D

  0  0  0  0  0  0  0  0  0  0999 V3000
M  V30 BEGIN CTAB
M  V30 COUNTS 41 43 0 0 0
M  V30 BEGIN ATOM
M  V30 1 N 0.467374 -0.980855 5.607201 0
M  V30 2 C 0.689002 -1.281964 4.518460 0
M  V30 3 C 0.984679 -1.646910 3.188070 0
M  V30 4 N 2.193344 -1.948798 2.692589 0
M  V30 5 C 2.017915 -2.237565 1.368905 0
M  V30 6 C 3.196976 -2.612267 0.553213 0
M  V30 7 O 3.847405 -1.502541 0.000529 0
M  V30 8 C 3.377529 -0.574685 -0.872162 0
M  V30 9 C 2.200292 -0.354310 -1.520564 0
M  V30 10 C 1.953579 0.686635 -2.384319 0
M  V30 11 C 2.983058 1.574661 -2.608618 0
M  V30 12 C 4.211174 1.420785 -1.988313 0
M  V30 13 C 4.405847 0.338730 -1.115761 0
M  V30 14 Cl 6.028112 0.344338 -0.448975 0
M  V30 15 O 0.755688 -2.107774 1.108512 0
M  V30 16 C 0.076124 -1.752317 2.166444 0
M  V30 17 N -1.322997 -1.560379 2.081481 0
M  V30 18 C -1.949067 -1.746834 0.782743 0
M  V30 19 C -2.597940 -0.523065 0.230516 0
M  V30 20 C -1.900926 0.758596 0.631904 0
M  V30 21 C -1.855898 0.976647 2.118714 0
M  V30 22 C -2.866634 0.172411 2.866681 0
M  V30 23 C -2.228562 -1.202292 3.113996 0
M  V30 24 H 2.795546 -3.256296 -0.268413 0
M  V30 25 H 3.888184 -3.218515 1.185105 0
M  V30 26 H 1.465433 -1.105488 -1.284680 0
M  V30 27 H 0.963661 0.720394 -2.818376 0
M  V30 28 H 2.783063 2.390097 -3.288180 0
M  V30 29 H 4.935774 2.179181 -2.244176 0
M  V30 30 H -1.179125 -2.086442 0.025888 0
M  V30 31 H -2.697643 -2.563240 0.822311 0
M  V30 32 H -3.704634 -0.491528 0.417858 0
M  V30 33 H -2.523355 -0.556521 -0.879365 0
M  V30 34 H -0.850755 0.645626 0.251983 0
M  V30 35 H -2.372581 1.594896 0.118594 0
M  V30 36 H -2.014249 2.049561 2.370970 0
M  V30 37 H -0.844350 0.709290 2.527350 0
M  V30 38 H -3.852251 0.081022 2.360187 0
M  V30 39 H -3.093757 0.641910 3.845196 0
M  V30 40 H -1.763798 -1.113038 4.112698 0
M  V30 41 H -3.048402 -1.957207 3.208886 0
M  V30 END ATOM
M  V30 BEGIN BOND
M  V30 1 3 1 2
M  V30 2 1 2 3
M  V30 3 1 3 4
M  V30 4 2 4 5
M  V30 5 1 5 6
M  V30 6 1 6 7
M  V30 7 1 7 8
M  V30 8 2 8 9
M  V30 9 1 9 10
M  V30 10 2 10 11
M  V30 11 1 11 12
M  V30 12 2 12 13
M  V30 13 1 13 14
M  V30 14 1 5 15
M  V30 15 1 15 16
M  V30 16 1 16 17
M  V30 17 1 17 18
M  V30 18 1 18 19
M  V30 19 1 19 20
M  V30 20 1 20 21
M  V30 21 1 21 22
M  V30 22 1 22 23
M  V30 23 2 16 3
M  V30 24 1 23 17
M  V30 25 1 13 8
M  V30 26 1 6 24
M  V30 27 1 6 25
M  V30 28 1 9 26
M  V30 29 1 10 27
M  V30 30 1 11 28
M  V30 31 1 12 29
M  V30 32 1 18 30
M  V30 33 1 18 31
M  V30 34 1 19 32
M  V30 35 1 19 33
M  V30 36 1 20 34
M  V30 37 1 20 35
M  V30 38 1 21 36
M  V30 39 1 21 37
M  V30 40 1 22 38
M  V30 41 1 22 39
M  V30 42 1 23 40
M  V30 43 1 23 41
M  V30 END BOND
M  V30 END CTAB
M  END
>  <Dataset>  (305) 
ChEMBL_Kinases

>  <Ligand_Instance>  (305) 
nan

>  <PDB_ID>  (305) 
nan

>  <Standardized_SMILES>  (305) 
N#Cc1nc(COc2ccccc2Cl)oc1N1CCCCCC1

>  <Name>  (305) 
nan

>  <Pocket>  (305) 
nan

>  <ATP_Site>  (305) 
nan

>  <Peripheral>  (305) 
nan

>  <Num_H_Atoms_ProtBoundConf>  (305) 
nan

>  <Num_Resolved_Atoms>  (305) 
nan

>  <Num_Not_Resolved_Atoms>  (305) 
nan

$$$$
CHEMBL1546809
     RDKit          3D

  0  0  0  0  0  0  0  0  0  0999 V3000
M  V30 BEGIN CTAB
M  V30 COUNTS 30 30 0 0 0
M  V30 BEGIN ATOM
M  V30 1 C -2.065170 -1.225235 1.479485 0
M  V30 2 C -1.721517 -2.551000 2.071170 0
M  V30 3 C -0.269838 -2.812701 2.282376 0
M  V30 4 C 0.581788 -2.783330 1.062251 0
M  V30 5 C 0.124364 -3.817971 0.070230 0
M  V30 6 C 0.698761 -1.486544 0.389097 0
M  V30 7 O 0.320193 -1.361812 -0.794342 0
M  V30 8 N 1.225088 -0.345325 1.010527 0
M  V30 9 C 1.415412 0.972018 0.530806 0
M  V30 10 C 1.111802 1.453265 -0.715051 0
M  V30 11 C 1.308366 2.737603 -1.151128 0
M  V30 12 C 1.859970 3.657723 -0.284904 0
M  V30 13 Cl 2.154937 5.311556 -0.726330 0
M  V30 14 C 2.164513 3.170007 0.968656 0
M  V30 15 N 1.949550 1.898676 1.341809 0
M  V30 16 H -1.445790 -0.379925 1.811809 0
M  V30 17 H -2.164421 -1.300135 0.360780 0
M  V30 18 H -3.115395 -0.942269 1.794987 0
M  V30 19 H -2.210193 -3.322034 1.424616 0
M  V30 20 H -2.273408 -2.628090 3.038928 0
M  V30 21 H -0.188748 -3.866991 2.681313 0
M  V30 22 H 0.139333 -2.192521 3.093152 0
M  V30 23 H 1.617825 -3.123185 1.377213 0
M  V30 24 H 1.001356 -4.117711 -0.539703 0
M  V30 25 H -0.288304 -4.716140 0.532295 0
M  V30 26 H -0.583013 -3.368215 -0.687284 0
M  V30 27 H 1.524241 -0.532644 2.014662 0
M  V30 28 H 0.679435 0.787478 -1.437186 0
M  V30 29 H 1.047461 3.052279 -2.144728 0
M  V30 30 H 2.604277 3.816030 1.727397 0
M  V30 END ATOM
M  V30 BEGIN BOND
M  V30 1 1 1 2
M  V30 2 1 2 3
M  V30 3 1 3 4
M  V30 4 1 4 5
M  V30 5 1 4 6
M  V30 6 2 6 7
M  V30 7 1 6 8
M  V30 8 1 8 9
M  V30 9 2 9 10
M  V30 10 1 10 11
M  V30 11 2 11 12
M  V30 12 1 12 13
M  V30 13 1 12 14
M  V30 14 2 14 15
M  V30 15 1 15 9
M  V30 16 1 1 16
M  V30 17 1 1 17
M  V30 18 1 1 18
M  V30 19 1 2 19
M  V30 20 1 2 20
M  V30 21 1 3 21
M  V30 22 1 3 22
M  V30 23 1 4 23
M  V30 24 1 5 24
M  V30 25 1 5 25
M  V30 26 1 5 26
M  V30 27 1 8 27
M  V30 28 1 10 28
M  V30 29 1 11 29
M  V30 30 1 14 30
M  V30 END BOND
M  V30 END CTAB
M  END
>  <Dataset>  (306) 
ChEMBL_Kinases

>  <Ligand_Instance>  (306) 
nan

>  <PDB_ID>  (306) 
nan

>  <Standardized_SMILES>  (306) 
CCCC(C)C(=O)Nc1ccc(Cl)cn1

>  <Name>  (306) 
nan

>  <Pocket>  (306) 
nan

>  <ATP_Site>  (306) 
nan

>  <Peripheral>  (306) 
nan

>  <Num_H_Atoms_ProtBoundConf>  (306) 
nan

>  <Num_Resolved_Atoms>  (306) 
nan

>  <Num_Not_Resolved_Atoms>  (306) 
nan

$$$$
CHEMBL1546778
     RDKit          3D

  0  0  0  0  0  0  0  0  0  0999 V3000
M  V30 BEGIN CTAB
M  V30 COUNTS 42 44 0 0 0
M  V30 BEGIN ATOM
M  V30 1 O -0.046001 -4.429693 4.219311 0
M  V30 2 C -0.671184 -4.014538 3.211571 0
M  V30 3 N 0.088920 -3.057109 2.516796 0
M  V30 4 C 1.374806 -2.540015 2.783045 0
M  V30 5 S 1.946173 -3.276461 4.150431 0
M  V30 6 N 2.088348 -1.578310 2.085754 0
M  V30 7 C 2.099711 -0.696539 1.008684 0
M  V30 8 C 3.262740 -0.005342 0.644092 0
M  V30 9 C 3.257123 0.874480 -0.407360 0
M  V30 10 C 2.098510 1.081503 -1.111389 0
M  V30 11 C 2.214174 2.052054 -2.230003 0
M  V30 12 C 2.027666 3.457145 -1.799721 0
M  V30 13 C 0.874030 4.197723 -1.694268 0
M  V30 14 C 0.993001 5.502935 -1.259652 0
M  V30 15 N 2.165857 6.078670 -0.939229 0
M  V30 16 C 3.313855 5.362606 -1.037126 0
M  V30 17 C 3.237271 4.045158 -1.470328 0
M  V30 18 C 0.922104 0.430558 -0.800649 0
M  V30 19 C 0.974036 -0.443789 0.262700 0
M  V30 20 C -1.996426 -4.504564 2.875652 0
M  V30 21 C -2.574936 -5.360784 3.799060 0
M  V30 22 C -3.823435 -5.921195 3.666868 0
M  V30 23 C -4.543296 -5.606883 2.537389 0
M  V30 24 C -4.026039 -4.763222 1.582859 0
M  V30 25 C -2.763002 -4.236545 1.782805 0
M  V30 26 F -2.257479 -3.417646 0.844575 0
M  V30 27 H -0.353885 -2.668950 1.678432 0
M  V30 28 H 3.003392 -1.511198 2.636056 0
M  V30 29 H 4.175465 -0.163048 1.187773 0
M  V30 30 H 4.189718 1.373168 -0.634743 0
M  V30 31 H 3.126750 1.914883 -2.843110 0
M  V30 32 H 1.338957 1.814084 -2.902683 0
M  V30 33 H -0.008134 3.669933 -1.966612 0
M  V30 34 H 0.023242 6.018236 -1.204648 0
M  V30 35 H 4.229761 5.874499 -0.765492 0
M  V30 36 H 4.225579 3.589988 -1.504305 0
M  V30 37 H 0.085255 0.676924 -1.426734 0
M  V30 38 H 0.014497 -0.866029 0.399809 0
M  V30 39 H -2.053019 -5.650211 4.715496 0
M  V30 40 H -4.279729 -6.588410 4.380902 0
M  V30 41 H -5.538387 -6.031127 2.396215 0
M  V30 42 H -4.551096 -4.475487 0.663491 0
M  V30 END ATOM
M  V30 BEGIN BOND
M  V30 1 2 1 2
M  V30 2 1 2 3
M  V30 3 1 3 4
M  V30 4 2 4 5
M  V30 5 1 4 6
M  V30 6 1 6 7
M  V30 7 2 7 8
M  V30 8 1 8 9
M  V30 9 2 9 10
M  V30 10 1 10 11
M  V30 11 1 11 12
M  V30 12 2 12 13
M  V30 13 1 13 14
M  V30 14 2 14 15
M  V30 15 1 15 16
M  V30 16 2 16 17
M  V30 17 1 10 18
M  V30 18 2 18 19
M  V30 19 1 2 20
M  V30 20 2 20 21
M  V30 21 1 21 22
M  V30 22 2 22 23
M  V30 23 1 23 24
M  V30 24 2 24 25
M  V30 25 1 25 26
M  V30 26 1 19 7
M  V30 27 1 25 20
M  V30 28 1 17 12
M  V30 29 1 3 27
M  V30 30 1 6 28
M  V30 31 1 8 29
M  V30 32 1 9 30
M  V30 33 1 11 31
M  V30 34 1 11 32
M  V30 35 1 13 33
M  V30 36 1 14 34
M  V30 37 1 16 35
M  V30 38 1 17 36
M  V30 39 1 18 37
M  V30 40 1 19 38
M  V30 41 1 21 39
M  V30 42 1 22 40
M  V30 43 1 23 41
M  V30 44 1 24 42
M  V30 END BOND
M  V30 END CTAB
M  END
>  <Dataset>  (307) 
ChEMBL_Kinases

>  <Ligand_Instance>  (307) 
nan

>  <PDB_ID>  (307) 
nan

>  <Standardized_SMILES>  (307) 
O=C(NC(=S)Nc1ccc(Cc2ccncc2)cc1)c1ccccc1F

>  <Name>  (307) 
nan

>  <Pocket>  (307) 
nan

>  <ATP_Site>  (307) 
nan

>  <Peripheral>  (307) 
nan

>  <Num_H_Atoms_ProtBoundConf>  (307) 
nan

>  <Num_Resolved_Atoms>  (307) 
nan

>  <Num_Not_Resolved_Atoms>  (307) 
nan

$$$$
CHEMBL1546768
     RDKit          3D

  0  0  0  0  0  0  0  0  0  0999 V3000
M  V30 BEGIN CTAB
M  V30 COUNTS 51 53 0 0 0
M  V30 BEGIN ATOM
M  V30 1 C 0.626989 -4.534943 2.039276 0
M  V30 2 C 0.525015 -3.702686 0.806283 0
M  V30 3 C -0.574721 -3.940442 0.012887 0
M  V30 4 C -0.693280 -3.184078 -1.134009 0
M  V30 5 C -1.858012 -3.383396 -2.045506 0
M  V30 6 N 0.239983 -2.264878 -1.434456 0
M  V30 7 C 1.305280 -2.040415 -0.657972 0
M  V30 8 N 2.300542 -1.051527 -0.990232 0
M  V30 9 C 3.430993 -0.866498 -0.092274 0
M  V30 10 C 3.732564 0.598422 0.071069 0
M  V30 11 C 2.720472 1.473406 -0.625736 0
M  V30 12 C 1.368879 1.417392 -0.079598 0
M  V30 13 O 0.295627 1.078443 -0.640261 0
M  V30 14 N 1.196051 1.792263 1.280181 0
M  V30 15 C -0.096261 1.777654 1.936831 0
M  V30 16 C -0.752840 0.433119 1.975159 0
M  V30 17 C -2.087475 0.495156 2.671230 0
M  V30 18 C -3.189616 0.763527 1.853361 0
M  V30 19 C -4.474191 0.851264 2.343399 0
M  V30 20 C -4.707720 0.672208 3.683033 0
M  V30 21 Cl -6.318342 0.770401 4.373160 0
M  V30 22 C -3.615022 0.407452 4.485455 0
M  V30 23 C -2.337289 0.316418 4.022177 0
M  V30 24 C 2.658197 1.108098 -2.091311 0
M  V30 25 C 2.123957 -0.296758 -2.196034 0
M  V30 26 N 1.438043 -2.779856 0.480375 0
M  V30 27 H 0.827853 -5.596794 1.780638 0
M  V30 28 H 1.451351 -4.150471 2.671853 0
M  V30 29 H -0.326873 -4.478351 2.599193 0
M  V30 30 H -1.348631 -4.665821 0.211985 0
M  V30 31 H -1.666433 -4.202628 -2.759990 0
M  V30 32 H -2.784752 -3.601159 -1.457044 0
M  V30 33 H -2.090652 -2.457362 -2.616126 0
M  V30 34 H 3.229973 -1.379091 0.858906 0
M  V30 35 H 4.292918 -1.387768 -0.554055 0
M  V30 36 H 3.842733 0.885464 1.121725 0
M  V30 37 H 4.696550 0.802552 -0.436620 0
M  V30 38 H 3.140915 2.508711 -0.574440 0
M  V30 39 H 2.039815 2.098456 1.852887 0
M  V30 40 H -0.797132 2.472029 1.396710 0
M  V30 41 H -0.009305 2.141584 2.976450 0
M  V30 42 H -0.174047 -0.309389 2.568258 0
M  V30 43 H -0.921818 -0.039684 0.997077 0
M  V30 44 H -3.049899 0.913423 0.777630 0
M  V30 45 H -5.325285 1.058910 1.709313 0
M  V30 46 H -3.792338 0.265680 5.539906 0
M  V30 47 H -1.458098 0.113116 4.605435 0
M  V30 48 H 3.643468 1.223093 -2.590886 0
M  V30 49 H 1.917425 1.808116 -2.544293 0
M  V30 50 H 2.627125 -0.827249 -3.035145 0
M  V30 51 H 1.025017 -0.231822 -2.421196 0
M  V30 END ATOM
M  V30 BEGIN BOND
M  V30 1 1 1 2
M  V30 2 2 2 3
M  V30 3 1 3 4
M  V30 4 1 4 5
M  V30 5 2 4 6
M  V30 6 1 6 7
M  V30 7 1 7 8
M  V30 8 1 8 9
M  V30 9 1 9 10
M  V30 10 1 10 11
M  V30 11 1 11 12
M  V30 12 2 12 13
M  V30 13 1 12 14
M  V30 14 1 14 15
M  V30 15 1 15 16
M  V30 16 1 16 17
M  V30 17 2 17 18
M  V30 18 1 18 19
M  V30 19 2 19 20
M  V30 20 1 20 21
M  V30 21 1 20 22
M  V30 22 2 22 23
M  V30 23 1 11 24
M  V30 24 1 24 25
M  V30 25 2 7 26
M  V30 26 1 26 2
M  V30 27 1 25 8
M  V30 28 1 23 17
M  V30 29 1 1 27
M  V30 30 1 1 28
M  V30 31 1 1 29
M  V30 32 1 3 30
M  V30 33 1 5 31
M  V30 34 1 5 32
M  V30 35 1 5 33
M  V30 36 1 9 34
M  V30 37 1 9 35
M  V30 38 1 10 36
M  V30 39 1 10 37
M  V30 40 1 11 38
M  V30 41 1 14 39
M  V30 42 1 15 40
M  V30 43 1 15 41
M  V30 44 1 16 42
M  V30 45 1 16 43
M  V30 46 1 18 44
M  V30 47 1 19 45
M  V30 48 1 22 46
M  V30 49 1 23 47
M  V30 50 1 24 48
M  V30 51 1 24 49
M  V30 52 1 25 50
M  V30 53 1 25 51
M  V30 END BOND
M  V30 END CTAB
M  END
>  <Dataset>  (308) 
ChEMBL_Kinases

>  <Ligand_Instance>  (308) 
nan

>  <PDB_ID>  (308) 
nan

>  <Standardized_SMILES>  (308) 
Cc1cc(C)nc(N2CCC(C(=O)NCCc3ccc(Cl)cc3)CC2)n1

>  <Name>  (308) 
nan

>  <Pocket>  (308) 
nan

>  <ATP_Site>  (308) 
nan

>  <Peripheral>  (308) 
nan

>  <Num_H_Atoms_ProtBoundConf>  (308) 
nan

>  <Num_Resolved_Atoms>  (308) 
nan

>  <Num_Not_Resolved_Atoms>  (308) 
nan

$$$$
CHEMBL1550718
     RDKit          3D

  0  0  0  0  0  0  0  0  0  0999 V3000
M  V30 BEGIN CTAB
M  V30 COUNTS 45 47 0 0 0
M  V30 BEGIN ATOM
M  V30 1 C -0.770397 -6.474573 1.529493 0
M  V30 2 O -1.600406 -5.504805 0.942161 0
M  V30 3 C -1.203384 -4.233324 0.560344 0
M  V30 4 C 0.091237 -3.790452 0.728422 0
M  V30 5 C 0.354117 -2.506186 0.306776 0
M  V30 6 N 1.590086 -1.997078 0.432509 0
M  V30 7 C 1.920081 -0.761293 0.046113 0
M  V30 8 S 3.451038 -0.235330 0.189886 0
M  V30 9 N 1.080055 0.117740 -0.505897 0
M  V30 10 C 1.155533 1.486262 -0.958145 0
M  V30 11 C 0.666051 2.395386 0.129212 0
M  V30 12 N 1.463403 2.362170 1.296360 0
M  V30 13 C 2.756833 3.001711 1.158169 0
M  V30 14 C 3.554328 2.645421 2.394183 0
M  V30 15 O 2.999804 3.260726 3.520134 0
M  V30 16 C 1.743773 3.770197 3.298576 0
M  V30 17 C 0.842288 2.897543 2.470240 0
M  V30 18 C -0.180288 -0.375350 -0.645043 0
M  V30 19 O -1.147044 0.266710 -1.140674 0
M  V30 20 C -0.567142 -1.653361 -0.258494 0
M  V30 21 C -1.848843 -2.139218 -0.406871 0
M  V30 22 C -2.178185 -3.431642 0.000344 0
M  V30 23 O -3.472670 -3.913760 -0.153022 0
M  V30 24 C -4.500829 -3.127341 -0.721646 0
M  V30 25 H -1.006134 -6.645628 2.615805 0
M  V30 26 H -1.047488 -7.448931 1.029071 0
M  V30 27 H 0.301275 -6.354626 1.338999 0
M  V30 28 H 0.847124 -4.402408 1.159016 0
M  V30 29 H 2.356036 -2.565384 0.848188 0
M  V30 30 H 0.503136 1.622657 -1.842223 0
M  V30 31 H 2.227237 1.687254 -1.212324 0
M  V30 32 H 0.474837 3.434397 -0.246013 0
M  V30 33 H -0.356040 1.986084 0.413363 0
M  V30 34 H 2.642456 4.122385 1.208556 0
M  V30 35 H 3.270816 2.683127 0.259153 0
M  V30 36 H 3.459643 1.558330 2.557673 0
M  V30 37 H 4.629246 2.904636 2.299126 0
M  V30 38 H 1.729322 4.814269 2.902500 0
M  V30 39 H 1.257889 3.834863 4.317034 0
M  V30 40 H -0.041761 3.537011 2.204174 0
M  V30 41 H 0.395132 2.106591 3.138360 0
M  V30 42 H -2.599091 -1.519024 -0.838749 0
M  V30 43 H -4.673330 -2.170399 -0.195770 0
M  V30 44 H -5.447475 -3.718602 -0.661713 0
M  V30 45 H -4.293435 -2.899760 -1.787209 0
M  V30 END ATOM
M  V30 BEGIN BOND
M  V30 1 1 1 2
M  V30 2 1 2 3
M  V30 3 2 3 4
M  V30 4 1 4 5
M  V30 5 1 5 6
M  V30 6 1 6 7
M  V30 7 2 7 8
M  V30 8 1 7 9
M  V30 9 1 9 10
M  V30 10 1 10 11
M  V30 11 1 11 12
M  V30 12 1 12 13
M  V30 13 1 13 14
M  V30 14 1 14 15
M  V30 15 1 15 16
M  V30 16 1 16 17
M  V30 17 1 9 18
M  V30 18 2 18 19
M  V30 19 1 18 20
M  V30 20 1 20 21
M  V30 21 2 21 22
M  V30 22 1 22 23
M  V30 23 1 23 24
M  V30 24 1 22 3
M  V30 25 2 20 5
M  V30 26 1 17 12
M  V30 27 1 1 25
M  V30 28 1 1 26
M  V30 29 1 1 27
M  V30 30 1 4 28
M  V30 31 1 6 29
M  V30 32 1 10 30
M  V30 33 1 10 31
M  V30 34 1 11 32
M  V30 35 1 11 33
M  V30 36 1 13 34
M  V30 37 1 13 35
M  V30 38 1 14 36
M  V30 39 1 14 37
M  V30 40 1 16 38
M  V30 41 1 16 39
M  V30 42 1 17 40
M  V30 43 1 17 41
M  V30 44 1 21 42
M  V30 45 1 24 43
M  V30 46 1 24 44
M  V30 47 1 24 45
M  V30 END BOND
M  V30 END CTAB
M  END
>  <Dataset>  (309) 
ChEMBL_Kinases

>  <Ligand_Instance>  (309) 
nan

>  <PDB_ID>  (309) 
nan

>  <Standardized_SMILES>  (309) 
COc1cc2[nH]c(=S)n(CCN3CCOCC3)c(=O)c2cc1OC

>  <Name>  (309) 
nan

>  <Pocket>  (309) 
nan

>  <ATP_Site>  (309) 
nan

>  <Peripheral>  (309) 
nan

>  <Num_H_Atoms_ProtBoundConf>  (309) 
nan

>  <Num_Resolved_Atoms>  (309) 
nan

>  <Num_Not_Resolved_Atoms>  (309) 
nan

$$$$
CHEMBL1545599
     RDKit          3D

  0  0  0  0  0  0  0  0  0  0999 V3000
M  V30 BEGIN CTAB
M  V30 COUNTS 66 68 0 0 0
M  V30 BEGIN ATOM
M  V30 1 C 4.763428 -0.850811 8.258253 0
M  V30 2 O 5.027718 0.067831 7.186032 0
M  V30 3 C 4.180719 0.163850 6.097970 0
M  V30 4 O 3.142240 -0.560692 6.016705 0
M  V30 5 C 4.497680 1.120697 5.028020 0
M  V30 6 C 5.629197 1.946116 5.062874 0
M  V30 7 C 5.851025 2.821941 4.007914 0
M  V30 8 C 5.004242 2.919136 2.918542 0
M  V30 9 C 3.873454 2.113032 2.855312 0
M  V30 10 N 2.899463 2.074704 1.822809 0
M  V30 11 C 1.690290 2.805409 1.663767 0
M  V30 12 O 1.344122 3.648743 2.530929 0
M  V30 13 C 1.048985 2.379110 0.409850 0
M  V30 14 N -0.178134 3.020053 0.118583 0
M  V30 15 C -1.283064 2.734583 0.963604 0
M  V30 16 C -1.710297 1.320397 0.719822 0
M  V30 17 C -2.249066 1.250485 -0.675815 0
M  V30 18 N -2.205224 -0.158085 -1.109562 0
M  V30 19 C -3.316084 -1.011935 -1.311841 0
M  V30 20 O -4.477438 -0.585978 -1.119186 0
M  V30 21 C -3.131863 -2.391888 -1.744228 0
M  V30 22 C -4.259031 -3.190922 -1.893289 0
M  V30 23 C -4.087605 -4.497558 -2.302585 0
M  V30 24 O -5.171387 -5.340606 -2.467792 0
M  V30 25 C -6.501332 -4.965550 -2.243369 0
M  V30 26 C -2.858770 -5.076243 -2.578993 0
M  V30 27 O -2.715480 -6.395201 -2.989269 0
M  V30 28 C -2.757766 -6.692935 -4.372045 0
M  V30 29 C -1.726477 -4.263678 -2.426398 0
M  V30 30 O -0.482744 -4.817565 -2.696666 0
M  V30 31 C 0.672672 -4.013570 -2.548682 0
M  V30 32 C -1.906410 -2.959346 -2.016673 0
M  V30 33 C -1.617609 2.124908 -1.680267 0
M  V30 34 C -0.534124 3.040333 -1.269992 0
M  V30 35 C 3.686798 1.254813 3.923312 0
M  V30 36 H 4.620395 -1.882856 7.865682 0
M  V30 37 H 5.547479 -0.801178 9.015101 0
M  V30 38 H 3.780650 -0.534118 8.681715 0
M  V30 39 H 6.296676 1.878321 5.908296 0
M  V30 40 H 6.733462 3.476165 4.018087 0
M  V30 41 H 5.136787 3.582411 2.081748 0
M  V30 42 H 3.351430 1.347487 1.227733 0
M  V30 43 H 0.950255 1.283864 0.293026 0
M  V30 44 H 1.774228 2.670302 -0.408665 0
M  V30 45 H -1.132678 3.002645 2.011978 0
M  V30 46 H -2.129820 3.382876 0.612358 0
M  V30 47 H -2.541295 1.043952 1.436830 0
M  V30 48 H -0.857964 0.604659 0.876473 0
M  V30 49 H -3.362347 1.441185 -0.594065 0
M  V30 50 H -1.216541 -0.454554 -1.252496 0
M  V30 51 H -5.229601 -2.776119 -1.687923 0
M  V30 52 H -7.080249 -5.892403 -1.980570 0
M  V30 53 H -6.622943 -4.283549 -1.366540 0
M  V30 54 H -6.927995 -4.459407 -3.131768 0
M  V30 55 H -3.605994 -6.138439 -4.864752 0
M  V30 56 H -2.971478 -7.773075 -4.531522 0
M  V30 57 H -1.853312 -6.393923 -4.901041 0
M  V30 58 H 0.714502 -3.469830 -1.583944 0
M  V30 59 H 1.600380 -4.632276 -2.585442 0
M  V30 60 H 0.704711 -3.209192 -3.338552 0
M  V30 61 H -1.014830 -2.365253 -1.911105 0
M  V30 62 H -1.247879 1.484327 -2.534481 0
M  V30 63 H -2.432846 2.724625 -2.183293 0
M  V30 64 H 0.404346 2.837513 -1.829003 0
M  V30 65 H -0.791467 4.099637 -1.495322 0
M  V30 66 H 2.818590 0.598326 3.931049 0
M  V30 END ATOM
M  V30 BEGIN BOND
M  V30 1 1 1 2
M  V30 2 1 2 3
M  V30 3 2 3 4
M  V30 4 1 3 5
M  V30 5 2 5 6
M  V30 6 1 6 7
M  V30 7 2 7 8
M  V30 8 1 8 9
M  V30 9 1 9 10
M  V30 10 1 10 11
M  V30 11 2 11 12
M  V30 12 1 11 13
M  V30 13 1 13 14
M  V30 14 1 14 15
M  V30 15 1 15 16
M  V30 16 1 16 17
M  V30 17 1 17 18
M  V30 18 1 18 19
M  V30 19 2 19 20
M  V30 20 1 19 21
M  V30 21 2 21 22
M  V30 22 1 22 23
M  V30 23 1 23 24
M  V30 24 1 24 25
M  V30 25 2 23 26
M  V30 26 1 26 27
M  V30 27 1 27 28
M  V30 28 1 26 29
M  V30 29 1 29 30
M  V30 30 1 30 31
M  V30 31 2 29 32
M  V30 32 1 17 33
M  V30 33 1 33 34
M  V30 34 2 9 35
M  V30 35 1 35 5
M  V30 36 1 34 14
M  V30 37 1 32 21
M  V30 38 1 1 36
M  V30 39 1 1 37
M  V30 40 1 1 38
M  V30 41 1 6 39
M  V30 42 1 7 40
M  V30 43 1 8 41
M  V30 44 1 10 42
M  V30 45 1 13 43
M  V30 46 1 13 44
M  V30 47 1 15 45
M  V30 48 1 15 46
M  V30 49 1 16 47
M  V30 50 1 16 48
M  V30 51 1 17 49
M  V30 52 1 18 50
M  V30 53 1 22 51
M  V30 54 1 25 52
M  V30 55 1 25 53
M  V30 56 1 25 54
M  V30 57 1 28 55
M  V30 58 1 28 56
M  V30 59 1 28 57
M  V30 60 1 31 58
M  V30 61 1 31 59
M  V30 62 1 31 60
M  V30 63 1 32 61
M  V30 64 1 33 62
M  V30 65 1 33 63
M  V30 66 1 34 64
M  V30 67 1 34 65
M  V30 68 1 35 66
M  V30 END BOND
M  V30 END CTAB
M  END
>  <Dataset>  (310) 
ChEMBL_Kinases

>  <Ligand_Instance>  (310) 
nan

>  <PDB_ID>  (310) 
nan

>  <Standardized_SMILES>  (310) 
COC(=O)c1cccc(NC(=O)CN2CCC(NC(=O)c3cc(OC)c(OC)c(OC)c3)CC2)c1

>  <Name>  (310) 
nan

>  <Pocket>  (310) 
nan

>  <ATP_Site>  (310) 
nan

>  <Peripheral>  (310) 
nan

>  <Num_H_Atoms_ProtBoundConf>  (310) 
nan

>  <Num_Resolved_Atoms>  (310) 
nan

>  <Num_Not_Resolved_Atoms>  (310) 
nan

$$$$
CHEMBL1545601
     RDKit          3D

  0  0  0  0  0  0  0  0  0  0999 V3000
M  V30 BEGIN CTAB
M  V30 COUNTS 48 51 0 0 0
M  V30 BEGIN ATOM
M  V30 1 C -4.194216 -2.078957 3.318645 0
M  V30 2 C -3.032683 -2.666868 2.628230 0
M  V30 3 C -2.718604 -3.954747 3.010600 0
M  V30 4 C -1.649707 -4.611838 2.457322 0
M  V30 5 C -1.298643 -5.971109 2.844076 0
M  V30 6 O -0.357743 -6.678147 2.421872 0
M  V30 7 O -2.096427 -6.605763 3.815118 0
M  V30 8 C -0.917204 -3.932922 1.516541 0
M  V30 9 C -1.264739 -2.655219 1.166410 0
M  V30 10 C -2.328876 -1.958386 1.695245 0
M  V30 11 C -2.616058 -0.620245 1.228650 0
M  V30 12 C -3.581507 0.324614 1.424440 0
M  V30 13 C -3.368801 1.468159 0.708170 0
M  V30 14 C -2.198250 1.171909 0.047211 0
M  V30 15 C -1.507938 2.086526 -0.885112 0
M  V30 16 C -0.899997 1.612289 -1.961238 0
M  V30 17 N -0.775471 0.276490 -2.428311 0
M  V30 18 C -0.024143 0.314069 -3.633138 0
M  V30 19 O 0.195544 -0.789117 -4.207679 0
M  V30 20 N 0.355089 1.667936 -3.975160 0
M  V30 21 C 1.113588 1.835363 -5.192868 0
M  V30 22 C 2.575344 1.739023 -5.029599 0
M  V30 23 C 3.136838 0.507560 -5.372743 0
M  V30 24 C 4.475122 0.177722 -5.287360 0
M  V30 25 C 5.342869 1.122390 -4.830278 0
M  V30 26 C 4.850805 2.349289 -4.478821 0
M  V30 27 C 3.512159 2.631239 -4.581211 0
M  V30 28 Cl 2.906858 4.209948 -4.149279 0
M  V30 29 C -0.204338 2.432342 -2.921264 0
M  V30 30 O -0.067983 3.660050 -2.900123 0
M  V30 31 O -1.828539 -0.020140 0.385708 0
M  V30 32 H -4.521426 -2.734596 4.187847 0
M  V30 33 H -3.928887 -1.125065 3.814813 0
M  V30 34 H -5.068743 -1.909470 2.670629 0
M  V30 35 H -3.286811 -4.489883 3.745021 0
M  V30 36 H -1.904017 -7.562472 4.135787 0
M  V30 37 H -0.075524 -4.427199 1.069659 0
M  V30 38 H -0.612149 -2.209665 0.407382 0
M  V30 39 H -4.430447 0.199289 2.062954 0
M  V30 40 H -3.986784 2.353566 0.694584 0
M  V30 41 H -1.506310 3.147485 -0.676143 0
M  V30 42 H -1.201199 -0.512566 -1.897999 0
M  V30 43 H 0.772727 1.122849 -5.992036 0
M  V30 44 H 0.930750 2.888379 -5.558524 0
M  V30 45 H 2.508074 -0.312127 -5.750966 0
M  V30 46 H 4.846495 -0.793544 -5.568705 0
M  V30 47 H 6.406647 0.994528 -4.715320 0
M  V30 48 H 5.490301 3.155093 -4.104073 0
M  V30 END ATOM
M  V30 BEGIN BOND
M  V30 1 1 1 2
M  V30 2 2 2 3
M  V30 3 1 3 4
M  V30 4 1 4 5
M  V30 5 2 5 6
M  V30 6 1 5 7
M  V30 7 2 4 8
M  V30 8 1 8 9
M  V30 9 2 9 10
M  V30 10 1 10 11
M  V30 11 2 11 12
M  V30 12 1 12 13
M  V30 13 2 13 14
M  V30 14 1 14 15
M  V30 15 2 15 16
M  V30 16 1 16 17
M  V30 17 1 17 18
M  V30 18 2 18 19
M  V30 19 1 18 20
M  V30 20 1 20 21
M  V30 21 1 21 22
M  V30 22 2 22 23
M  V30 23 1 23 24
M  V30 24 2 24 25
M  V30 25 1 25 26
M  V30 26 2 26 27
M  V30 27 1 27 28
M  V30 28 1 20 29
M  V30 29 2 29 30
M  V30 30 1 14 31
M  V30 31 1 10 2
M  V30 32 1 31 11
M  V30 33 1 29 16
M  V30 34 1 27 22
M  V30 35 1 1 32
M  V30 36 1 1 33
M  V30 37 1 1 34
M  V30 38 1 3 35
M  V30 39 1 7 36
M  V30 40 1 8 37
M  V30 41 1 9 38
M  V30 42 1 12 39
M  V30 43 1 13 40
M  V30 44 1 15 41
M  V30 45 1 17 42
M  V30 46 1 21 43
M  V30 47 1 21 44
M  V30 48 1 23 45
M  V30 49 1 24 46
M  V30 50 1 25 47
M  V30 51 1 26 48
M  V30 END BOND
M  V30 END CTAB
M  END
>  <Dataset>  (311) 
ChEMBL_Kinases

>  <Ligand_Instance>  (311) 
nan

>  <PDB_ID>  (311) 
nan

>  <Standardized_SMILES>  (311) 
Cc1cc(C(=O)O)ccc1-c1ccc(/C=C2\NC(=O)N(Cc3ccccc3Cl)C2=O)o1

>  <Name>  (311) 
nan

>  <Pocket>  (311) 
nan

>  <ATP_Site>  (311) 
nan

>  <Peripheral>  (311) 
nan

>  <Num_H_Atoms_ProtBoundConf>  (311) 
nan

>  <Num_Resolved_Atoms>  (311) 
nan

>  <Num_Not_Resolved_Atoms>  (311) 
nan

$$$$
CHEMBL1545668
     RDKit          3D

  0  0  0  0  0  0  0  0  0  0999 V3000
M  V30 BEGIN CTAB
M  V30 COUNTS 61 63 0 0 0
M  V30 BEGIN ATOM
M  V30 1 C 0.040915 0.477520 5.465012 0
M  V30 2 C -0.933310 -0.602153 5.122096 0
M  V30 3 O -0.926601 -0.942702 3.746290 0
M  V30 4 C 0.254723 -1.413922 3.188726 0
M  V30 5 O 1.286936 -1.529044 3.906582 0
M  V30 6 C 0.113232 -1.734571 1.723516 0
M  V30 7 C -0.286518 -0.448278 1.054875 0
M  V30 8 C 0.694999 0.670980 1.215784 0
M  V30 9 C 0.144153 1.891619 0.486801 0
M  V30 10 C 1.094903 3.044715 0.618003 0
M  V30 11 C 2.105673 3.265426 -0.301592 0
M  V30 12 C 2.979312 4.340812 -0.164386 0
M  V30 13 C 2.836836 5.207326 0.910877 0
M  V30 14 C 1.821617 4.989821 1.838893 0
M  V30 15 C 0.972203 3.919386 1.679283 0
M  V30 16 C -0.991768 -2.761712 1.659117 0
M  V30 17 C -1.168323 -3.355724 0.271296 0
M  V30 18 N 0.090318 -3.415525 -0.356810 0
M  V30 19 C 0.174865 -3.747507 -1.721563 0
M  V30 20 C -0.585586 -2.761904 -2.528279 0
M  V30 21 N -0.104817 -1.579903 -2.978702 0
M  V30 22 C -1.054266 -0.939456 -3.686136 0
M  V30 23 C -2.121065 -1.788330 -3.639090 0
M  V30 24 N -1.851679 -2.919459 -2.929158 0
M  V30 25 C -2.821546 -3.964767 -2.757024 0
M  V30 26 C -2.688759 -4.949043 -3.930208 0
M  V30 27 C 1.240619 -3.570728 0.454664 0
M  V30 28 C 1.411700 -2.228157 1.190393 0
M  V30 29 H 1.029645 0.102933 5.810749 0
M  V30 30 H -0.386998 1.064859 6.312751 0
M  V30 31 H 0.152138 1.209552 4.629202 0
M  V30 32 H -0.699291 -1.541140 5.696813 0
M  V30 33 H -1.949957 -0.317813 5.458206 0
M  V30 34 H -0.404104 -0.581995 -0.060055 0
M  V30 35 H -1.260467 -0.141820 1.480544 0
M  V30 36 H 1.705444 0.448694 0.824244 0
M  V30 37 H 0.829773 0.988299 2.268482 0
M  V30 38 H -0.023548 1.698385 -0.581125 0
M  V30 39 H -0.826777 2.193316 0.930767 0
M  V30 40 H 2.165138 2.546552 -1.126727 0
M  V30 41 H 3.752595 4.479882 -0.899504 0
M  V30 42 H 3.563722 6.020201 0.938255 0
M  V30 43 H 1.759700 5.692618 2.649866 0
M  V30 44 H 0.171173 3.751469 2.415701 0
M  V30 45 H -1.909272 -2.300923 2.054093 0
M  V30 46 H -0.715652 -3.593432 2.342105 0
M  V30 47 H -1.835762 -2.692435 -0.349108 0
M  V30 48 H -1.703517 -4.337622 0.327545 0
M  V30 49 H -0.179481 -4.766453 -1.982102 0
M  V30 50 H 1.257822 -3.631923 -2.022141 0
M  V30 51 H -0.993230 0.006787 -4.170582 0
M  V30 52 H -3.070427 -1.537077 -4.137303 0
M  V30 53 H -3.854294 -3.564061 -2.845648 0
M  V30 54 H -2.658930 -4.558536 -1.858393 0
M  V30 55 H -2.984269 -4.406472 -4.846888 0
M  V30 56 H -3.340622 -5.835747 -3.743633 0
M  V30 57 H -1.622699 -5.248274 -4.027006 0
M  V30 58 H 2.109022 -3.783913 -0.191030 0
M  V30 59 H 1.179265 -4.338743 1.243949 0
M  V30 60 H 2.218385 -2.314674 1.943521 0
M  V30 61 H 1.768892 -1.525831 0.410621 0
M  V30 END ATOM
M  V30 BEGIN BOND
M  V30 1 1 1 2
M  V30 2 1 2 3
M  V30 3 1 3 4
M  V30 4 2 4 5
M  V30 5 1 4 6
M  V30 6 1 6 7
M  V30 7 1 7 8
M  V30 8 1 8 9
M  V30 9 1 9 10
M  V30 10 2 10 11
M  V30 11 1 11 12
M  V30 12 2 12 13
M  V30 13 1 13 14
M  V30 14 2 14 15
M  V30 15 1 6 16
M  V30 16 1 16 17
M  V30 17 1 17 18
M  V30 18 1 18 19
M  V30 19 1 19 20
M  V30 20 2 20 21
M  V30 21 1 21 22
M  V30 22 2 22 23
M  V30 23 1 23 24
M  V30 24 1 24 25
M  V30 25 1 25 26
M  V30 26 1 18 27
M  V30 27 1 27 28
M  V30 28 1 28 6
M  V30 29 1 15 10
M  V30 30 1 24 20
M  V30 31 1 1 29
M  V30 32 1 1 30
M  V30 33 1 1 31
M  V30 34 1 2 32
M  V30 35 1 2 33
M  V30 36 1 7 34
M  V30 37 1 7 35
M  V30 38 1 8 36
M  V30 39 1 8 37
M  V30 40 1 9 38
M  V30 41 1 9 39
M  V30 42 1 11 40
M  V30 43 1 12 41
M  V30 44 1 13 42
M  V30 45 1 14 43
M  V30 46 1 15 44
M  V30 47 1 16 45
M  V30 48 1 16 46
M  V30 49 1 17 47
M  V30 50 1 17 48
M  V30 51 1 19 49
M  V30 52 1 19 50
M  V30 53 1 22 51
M  V30 54 1 23 52
M  V30 55 1 25 53
M  V30 56 1 25 54
M  V30 57 1 26 55
M  V30 58 1 26 56
M  V30 59 1 26 57
M  V30 60 1 27 58
M  V30 61 1 27 59
M  V30 62 1 28 60
M  V30 63 1 28 61
M  V30 END BOND
M  V30 END CTAB
M  END
>  <Dataset>  (312) 
ChEMBL_Kinases

>  <Ligand_Instance>  (312) 
nan

>  <PDB_ID>  (312) 
nan

>  <Standardized_SMILES>  (312) 
CCOC(=O)C1(CCCc2ccccc2)CCN(Cc2nccn2CC)CC1

>  <Name>  (312) 
nan

>  <Pocket>  (312) 
nan

>  <ATP_Site>  (312) 
nan

>  <Peripheral>  (312) 
nan

>  <Num_H_Atoms_ProtBoundConf>  (312) 
nan

>  <Num_Resolved_Atoms>  (312) 
nan

>  <Num_Not_Resolved_Atoms>  (312) 
nan

$$$$
CHEMBL154580
     RDKit          3D

  0  0  0  0  0  0  0  0  0  0999 V3000
M  V30 BEGIN CTAB
M  V30 COUNTS 24 25 0 0 0
M  V30 BEGIN ATOM
M  V30 1 C 1.398000 0.047727 4.671733 0
M  V30 2 C 1.802720 -1.029805 4.025665 0
M  V30 3 C 1.868704 -1.757375 2.773969 0
M  V30 4 O 2.457095 -2.867404 2.782944 0
M  V30 5 C 1.300903 -1.276633 1.538869 0
M  V30 6 C 1.413987 -2.041155 0.395772 0
M  V30 7 C 0.907264 -1.673310 -0.833549 0
M  V30 8 C 0.240843 -0.468048 -0.951741 0
M  V30 9 C -0.293472 -0.030735 -2.145319 0
M  V30 10 C -0.960708 1.175281 -2.265152 0
M  V30 11 C -1.075780 1.949437 -1.109868 0
M  V30 12 C -0.550299 1.537989 0.102681 0
M  V30 13 C 0.108141 0.323632 0.170591 0
M  V30 14 C 0.630104 -0.082210 1.380944 0
M  V30 15 H 0.876971 0.981306 4.561240 0
M  V30 16 H 0.874574 0.981966 4.553181 0
M  V30 17 H 2.231360 -1.399913 4.943137 0
M  V30 18 H 1.927708 -2.977126 0.472609 0
M  V30 19 H 1.010912 -2.285424 -1.697207 0
M  V30 20 H -0.188041 -0.649146 -3.015037 0
M  V30 21 H -1.383689 1.524958 -3.202788 0
M  V30 22 H -1.599712 2.890860 -1.215541 0
M  V30 23 H -0.654823 2.161524 0.986614 0
M  V30 24 H 0.509376 0.555348 2.230264 0
M  V30 END ATOM
M  V30 BEGIN BOND
M  V30 1 2 1 2
M  V30 2 1 2 3
M  V30 3 2 3 4
M  V30 4 1 3 5
M  V30 5 2 5 6
M  V30 6 1 6 7
M  V30 7 2 7 8
M  V30 8 1 8 9
M  V30 9 2 9 10
M  V30 10 1 10 11
M  V30 11 2 11 12
M  V30 12 1 12 13
M  V30 13 2 13 14
M  V30 14 1 14 5
M  V30 15 1 13 8
M  V30 16 1 1 15
M  V30 17 1 1 16
M  V30 18 1 2 17
M  V30 19 1 6 18
M  V30 20 1 7 19
M  V30 21 1 9 20
M  V30 22 1 10 21
M  V30 23 1 11 22
M  V30 24 1 12 23
M  V30 25 1 14 24
M  V30 END BOND
M  V30 END CTAB
M  END
>  <Dataset>  (313) 
ChEMBL_Kinases

>  <Ligand_Instance>  (313) 
nan

>  <PDB_ID>  (313) 
nan

>  <Standardized_SMILES>  (313) 
C=CC(=O)c1ccc2ccccc2c1

>  <Name>  (313) 
nan

>  <Pocket>  (313) 
nan

>  <ATP_Site>  (313) 
nan

>  <Peripheral>  (313) 
nan

>  <Num_H_Atoms_ProtBoundConf>  (313) 
nan

>  <Num_Resolved_Atoms>  (313) 
nan

>  <Num_Not_Resolved_Atoms>  (313) 
nan

$$$$
CHEMBL1546004
     RDKit          3D

  0  0  0  0  0  0  0  0  0  0999 V3000
M  V30 BEGIN CTAB
M  V30 COUNTS 39 41 0 0 0
M  V30 BEGIN ATOM
M  V30 1 C -1.113468 -5.881374 2.379679 0
M  V30 2 C -0.693768 -4.565969 1.841839 0
M  V30 3 C 0.082281 -4.335780 0.758109 0
M  V30 4 C 0.221127 -2.963944 0.618224 0
M  V30 5 C 1.005211 -2.376396 -0.459832 0
M  V30 6 O 1.560841 -3.196397 -1.279837 0
M  V30 7 C 1.439690 -1.126426 -1.015507 0
M  V30 8 O 1.019506 0.059742 -0.341921 0
M  V30 9 C 1.437345 1.304720 -0.874033 0
M  V30 10 N 2.207024 1.344260 -1.982633 0
M  V30 11 N 2.643996 2.455215 -2.550073 0
M  V30 12 C 2.348569 3.670442 -2.054529 0
M  V30 13 C 1.563365 3.694956 -0.919862 0
M  V30 14 C 1.200493 4.889581 -0.327940 0
M  V30 15 C 0.410045 4.958006 0.817019 0
M  V30 16 C -0.031424 3.758695 1.385950 0
M  V30 17 C 0.343267 2.583132 0.778049 0
M  V30 18 C 1.115006 2.526846 -0.339233 0
M  V30 19 C -0.511883 -2.452418 1.671340 0
M  V30 20 C -0.653677 -1.013159 1.928069 0
M  V30 21 N -1.065272 -3.418039 2.411659 0
M  V30 22 C -1.893461 -3.235621 3.585614 0
M  V30 23 H -2.168445 -6.041314 2.077412 0
M  V30 24 H -1.009330 -5.847908 3.495411 0
M  V30 25 H -0.450157 -6.649059 1.977764 0
M  V30 26 H 0.479446 -5.162408 0.165150 0
M  V30 27 H 1.207916 -1.019742 -2.108140 0
M  V30 28 H 2.572372 -1.064266 -0.966922 0
M  V30 29 H 2.708351 4.576860 -2.522208 0
M  V30 30 H 1.573691 5.788495 -0.815421 0
M  V30 31 H 0.206388 5.946195 1.167340 0
M  V30 32 H -0.641187 3.878364 2.273008 0
M  V30 33 H -0.015449 1.688755 1.245145 0
M  V30 34 H -1.347314 -0.883298 2.805816 0
M  V30 35 H -1.193462 -0.581240 1.072494 0
M  V30 36 H 0.294135 -0.520753 2.197757 0
M  V30 37 H -1.949496 -4.157755 4.189004 0
M  V30 38 H -2.868591 -2.856210 3.256915 0
M  V30 39 H -1.446717 -2.415594 4.205437 0
M  V30 END ATOM
M  V30 BEGIN BOND
M  V30 1 1 1 2
M  V30 2 2 2 3
M  V30 3 1 3 4
M  V30 4 1 4 5
M  V30 5 2 5 6
M  V30 6 1 5 7
M  V30 7 1 7 8
M  V30 8 1 8 9
M  V30 9 2 9 10
M  V30 10 1 10 11
M  V30 11 2 11 12
M  V30 12 1 12 13
M  V30 13 2 13 14
M  V30 14 1 14 15
M  V30 15 2 15 16
M  V30 16 1 16 17
M  V30 17 2 17 18
M  V30 18 2 4 19
M  V30 19 1 19 20
M  V30 20 1 19 21
M  V30 21 1 21 22
M  V30 22 1 21 2
M  V30 23 1 18 9
M  V30 24 1 18 13
M  V30 25 1 1 23
M  V30 26 1 1 24
M  V30 27 1 1 25
M  V30 28 1 3 26
M  V30 29 1 7 27
M  V30 30 1 7 28
M  V30 31 1 12 29
M  V30 32 1 14 30
M  V30 33 1 15 31
M  V30 34 1 16 32
M  V30 35 1 17 33
M  V30 36 1 20 34
M  V30 37 1 20 35
M  V30 38 1 20 36
M  V30 39 1 22 37
M  V30 40 1 22 38
M  V30 41 1 22 39
M  V30 END BOND
M  V30 END CTAB
M  END
>  <Dataset>  (314) 
ChEMBL_Kinases

>  <Ligand_Instance>  (314) 
nan

>  <PDB_ID>  (314) 
nan

>  <Standardized_SMILES>  (314) 
Cc1cc(C(=O)COc2nncc3ccccc23)c(C)n1C

>  <Name>  (314) 
nan

>  <Pocket>  (314) 
nan

>  <ATP_Site>  (314) 
nan

>  <Peripheral>  (314) 
nan

>  <Num_H_Atoms_ProtBoundConf>  (314) 
nan

>  <Num_Resolved_Atoms>  (314) 
nan

>  <Num_Not_Resolved_Atoms>  (314) 
nan

$$$$
CHEMBL1546090
     RDKit          3D

  0  0  0  0  0  0  0  0  0  0999 V3000
M  V30 BEGIN CTAB
M  V30 COUNTS 55 59 0 0 0
M  V30 BEGIN ATOM
M  V30 1 O 0.407064 2.288357 1.214557 0
M  V30 2 C 0.061739 1.129955 0.845336 0
M  V30 3 N 1.113486 0.244133 1.152635 0
M  V30 4 C 2.362692 0.577400 1.773720 0
M  V30 5 C 2.592846 0.575111 3.138442 0
M  V30 6 C 3.862603 0.923715 3.570488 0
M  V30 7 C 4.889762 1.267123 2.714957 0
M  V30 8 C 4.648335 1.266220 1.348575 0
M  V30 9 C 3.378077 0.919525 0.875016 0
M  V30 10 C 3.193544 0.940352 -0.595488 0
M  V30 11 C 3.805123 2.131949 -1.270204 0
M  V30 12 C 4.999330 2.682052 -0.554897 0
M  V30 13 C 5.678497 1.619749 0.312224 0
M  V30 14 C -1.054524 0.397409 0.209485 0
M  V30 15 C -2.189354 1.325633 -0.125908 0
M  V30 16 C -3.180970 0.557250 -0.957643 0
M  V30 17 C -3.514252 -0.787252 -0.417714 0
M  V30 18 N -2.835293 -1.206228 0.730105 0
M  V30 19 S -3.562544 -2.296396 1.774862 0
M  V30 20 O -4.903761 -1.756788 2.216976 0
M  V30 21 O -2.764186 -2.664888 2.963349 0
M  V30 22 C -3.858120 -3.798437 0.887791 0
M  V30 23 C -5.135342 -4.294485 0.732722 0
M  V30 24 C -5.432585 -5.459730 0.051413 0
M  V30 25 C -4.368097 -6.169895 -0.509947 0
M  V30 26 C -3.099527 -5.670574 -0.351738 0
M  V30 27 N -1.903503 -6.118055 -0.766393 0
M  V30 28 O -0.985857 -5.288868 -0.364087 0
M  V30 29 N -1.492880 -4.296278 0.304978 0
M  V30 30 C -2.816542 -4.505548 0.331093 0
M  V30 31 C -1.522990 -0.782962 0.983073 0
M  V30 32 H 1.192555 -0.800595 0.994828 0
M  V30 33 H 1.783622 0.306504 3.776144 0
M  V30 34 H 4.055692 0.925389 4.640865 0
M  V30 35 H 5.879542 1.538909 3.049241 0
M  V30 36 H 2.131223 0.814228 -0.879669 0
M  V30 37 H 3.733177 0.028697 -0.986695 0
M  V30 38 H 4.100941 1.854331 -2.310109 0
M  V30 39 H 3.023272 2.926557 -1.351169 0
M  V30 40 H 5.674022 3.125374 -1.298729 0
M  V30 41 H 4.628792 3.486600 0.141616 0
M  V30 42 H 5.849192 0.711455 -0.273987 0
M  V30 43 H 6.562202 2.063093 0.765664 0
M  V30 44 H -0.690887 0.010365 -0.788325 0
M  V30 45 H -1.814637 2.190374 -0.687734 0
M  V30 46 H -2.681381 1.735947 0.776960 0
M  V30 47 H -2.754535 0.512258 -2.000250 0
M  V30 48 H -4.102697 1.195049 -1.099538 0
M  V30 49 H -4.616447 -0.899578 -0.236141 0
M  V30 50 H -3.313174 -1.540933 -1.234207 0
M  V30 51 H -5.977131 -3.749501 1.166668 0
M  V30 52 H -6.430385 -5.852251 -0.072948 0
M  V30 53 H -4.479274 -7.086626 -1.060858 0
M  V30 54 H -0.803675 -1.626932 0.789528 0
M  V30 55 H -1.377695 -0.559199 2.068311 0
M  V30 END ATOM
M  V30 BEGIN BOND
M  V30 1 2 1 2
M  V30 2 1 2 3
M  V30 3 1 3 4
M  V30 4 2 4 5
M  V30 5 1 5 6
M  V30 6 2 6 7
M  V30 7 1 7 8
M  V30 8 2 8 9
M  V30 9 1 9 10
M  V30 10 1 10 11
M  V30 11 1 11 12
M  V30 12 1 12 13
M  V30 13 1 2 14
M  V30 14 1 14 15
M  V30 15 1 15 16
M  V30 16 1 16 17
M  V30 17 1 17 18
M  V30 18 1 18 19
M  V30 19 2 19 20
M  V30 20 2 19 21
M  V30 21 1 19 22
M  V30 22 2 22 23
M  V30 23 1 23 24
M  V30 24 2 24 25
M  V30 25 1 25 26
M  V30 26 2 26 27
M  V30 27 1 27 28
M  V30 28 1 28 29
M  V30 29 2 29 30
M  V30 30 1 18 31
M  V30 31 1 9 4
M  V30 32 1 31 14
M  V30 33 1 13 8
M  V30 34 1 30 22
M  V30 35 1 30 26
M  V30 36 1 3 32
M  V30 37 1 5 33
M  V30 38 1 6 34
M  V30 39 1 7 35
M  V30 40 1 10 36
M  V30 41 1 10 37
M  V30 42 1 11 38
M  V30 43 1 11 39
M  V30 44 1 12 40
M  V30 45 1 12 41
M  V30 46 1 13 42
M  V30 47 1 13 43
M  V30 48 1 14 44
M  V30 49 1 15 45
M  V30 50 1 15 46
M  V30 51 1 16 47
M  V30 52 1 16 48
M  V30 53 1 17 49
M  V30 54 1 17 50
M  V30 55 1 23 51
M  V30 56 1 24 52
M  V30 57 1 25 53
M  V30 58 1 31 54
M  V30 59 1 31 55
M  V30 END BOND
M  V30 END CTAB
M  END
>  <Dataset>  (315) 
ChEMBL_Kinases

>  <Ligand_Instance>  (315) 
nan

>  <PDB_ID>  (315) 
nan

>  <Standardized_SMILES>  (315) 
O=C(Nc1cccc2c1CCCC2)C1CCCN(S(=O)(=O)c2cccc3nonc23)C1

>  <Name>  (315) 
nan

>  <Pocket>  (315) 
nan

>  <ATP_Site>  (315) 
nan

>  <Peripheral>  (315) 
nan

>  <Num_H_Atoms_ProtBoundConf>  (315) 
nan

>  <Num_Resolved_Atoms>  (315) 
nan

>  <Num_Not_Resolved_Atoms>  (315) 
nan

$$$$
CHEMBL1546161
     RDKit          3D

  0  0  0  0  0  0  0  0  0  0999 V3000
M  V30 BEGIN CTAB
M  V30 COUNTS 34 36 0 0 0
M  V30 BEGIN ATOM
M  V30 1 C -2.037612 -1.556919 3.842638 0
M  V30 2 C -1.057330 -1.964394 2.813980 0
M  V30 3 N -0.441320 -3.154720 2.689919 0
M  V30 4 N 0.372864 -3.118379 1.627739 0
M  V30 5 C 0.273617 -1.895194 1.072092 0
M  V30 6 C 1.082103 -1.627885 -0.112214 0
M  V30 7 C 2.453875 -1.711887 0.033164 0
M  V30 8 C 3.327655 -1.479954 -1.021050 0
M  V30 9 C 2.811764 -1.151335 -2.269199 0
M  V30 10 O 3.647956 -0.915943 -3.332582 0
M  V30 11 C 1.439973 -1.073111 -2.391329 0
M  V30 12 C 0.574078 -1.302307 -1.349082 0
M  V30 13 O -0.815116 -1.221200 -1.479591 0
M  V30 14 C -0.622955 -1.139342 1.797637 0
M  V30 15 C -0.944417 0.217985 1.451936 0
M  V30 16 C -0.121503 1.333416 1.423291 0
M  V30 17 C -0.609762 2.571683 1.061524 0
M  V30 18 C -1.932069 2.748484 0.715108 0
M  V30 19 Cl -2.509411 4.340572 0.262551 0
M  V30 20 C -2.764881 1.654659 0.737158 0
M  V30 21 C -2.284945 0.415969 1.096978 0
M  V30 22 H -2.747255 -0.859532 3.385635 0
M  V30 23 H -2.498614 -2.409389 4.348658 0
M  V30 24 H -1.471315 -1.009494 4.649133 0
M  V30 25 H 0.898509 -3.997071 1.445334 0
M  V30 26 H 2.957223 -1.960222 0.960084 0
M  V30 27 H 4.400957 -1.543642 -0.915384 0
M  V30 28 H 4.605756 -0.614176 -3.245255 0
M  V30 29 H 1.033458 -0.818827 -3.357434 0
M  V30 30 H -1.181201 -0.312827 -1.780299 0
M  V30 31 H 0.903308 1.101347 1.711100 0
M  V30 32 H 0.107892 3.395788 1.065861 0
M  V30 33 H -3.783995 1.861891 0.455792 0
M  V30 34 H -3.068893 -0.347529 1.064349 0
M  V30 END ATOM
M  V30 BEGIN BOND
M  V30 1 1 1 2
M  V30 2 2 2 3
M  V30 3 1 3 4
M  V30 4 1 4 5
M  V30 5 1 5 6
M  V30 6 2 6 7
M  V30 7 1 7 8
M  V30 8 2 8 9
M  V30 9 1 9 10
M  V30 10 1 9 11
M  V30 11 2 11 12
M  V30 12 1 12 13
M  V30 13 2 5 14
M  V30 14 1 14 15
M  V30 15 2 15 16
M  V30 16 1 16 17
M  V30 17 2 17 18
M  V30 18 1 18 19
M  V30 19 1 18 20
M  V30 20 2 20 21
M  V30 21 1 14 2
M  V30 22 1 21 15
M  V30 23 1 12 6
M  V30 24 1 1 22
M  V30 25 1 1 23
M  V30 26 1 1 24
M  V30 27 1 4 25
M  V30 28 1 7 26
M  V30 29 1 8 27
M  V30 30 1 10 28
M  V30 31 1 11 29
M  V30 32 1 13 30
M  V30 33 1 16 31
M  V30 34 1 17 32
M  V30 35 1 20 33
M  V30 36 1 21 34
M  V30 END BOND
M  V30 END CTAB
M  END
>  <Dataset>  (316) 
ChEMBL_Kinases

>  <Ligand_Instance>  (316) 
nan

>  <PDB_ID>  (316) 
nan

>  <Standardized_SMILES>  (316) 
Cc1n[nH]c(-c2ccc(O)cc2O)c1-c1ccc(Cl)cc1

>  <Name>  (316) 
nan

>  <Pocket>  (316) 
nan

>  <ATP_Site>  (316) 
nan

>  <Peripheral>  (316) 
nan

>  <Num_H_Atoms_ProtBoundConf>  (316) 
nan

>  <Num_Resolved_Atoms>  (316) 
nan

>  <Num_Not_Resolved_Atoms>  (316) 
nan

$$$$
CHEMBL1546734
     RDKit          3D

  0  0  0  0  0  0  0  0  0  0999 V3000
M  V30 BEGIN CTAB
M  V30 COUNTS 40 42 0 0 0
M  V30 BEGIN ATOM
M  V30 1 C 2.761115 -6.393753 0.378505 0
M  V30 2 C 3.478048 -5.163490 0.879723 0
M  V30 3 O 2.844958 -4.024345 0.342192 0
M  V30 4 C 3.279035 -2.746944 0.623029 0
M  V30 5 O 4.272058 -2.657731 1.386227 0
M  V30 6 C 2.541632 -1.649619 0.006704 0
M  V30 7 C 1.457532 -1.760696 -0.825965 0
M  V30 8 C 0.866997 -0.620876 -1.330639 0
M  V30 9 C 1.338530 0.660026 -1.020940 0
M  V30 10 N 0.577274 1.681759 -1.652280 0
M  V30 11 S 0.114416 3.046834 -0.702158 0
M  V30 12 O -0.675834 4.035678 -1.504082 0
M  V30 13 O 1.340958 3.656429 -0.115123 0
M  V30 14 C -0.906765 2.466370 0.616444 0
M  V30 15 C -0.449702 2.066009 1.855336 0
M  V30 16 C -1.342812 1.629076 2.812583 0
M  V30 17 C -2.697102 1.582195 2.558325 0
M  V30 18 N -3.721181 1.190544 3.352958 0
M  V30 19 C -4.846790 1.339933 2.619772 0
M  V30 20 O -6.136821 1.046849 3.065870 0
M  V30 21 N -4.509902 1.814172 1.401394 0
M  V30 22 C -3.177241 1.977686 1.326372 0
M  V30 23 C -2.276282 2.413572 0.374259 0
M  V30 24 C 2.429542 0.752428 -0.182141 0
M  V30 25 C 3.008363 -0.390877 0.313638 0
M  V30 26 H 1.706347 -6.109722 0.181863 0
M  V30 27 H 3.280041 -6.770280 -0.502960 0
M  V30 28 H 2.683731 -7.168646 1.189801 0
M  V30 29 H 3.451967 -5.184066 1.994350 0
M  V30 30 H 4.540343 -5.241487 0.591771 0
M  V30 31 H 1.119359 -2.761135 -1.044602 0
M  V30 32 H 0.019508 -0.830495 -1.976362 0
M  V30 33 H 0.310170 1.603439 -2.657416 0
M  V30 34 H 0.609521 2.117391 2.013435 0
M  V30 35 H -0.917386 1.325928 3.773186 0
M  V30 36 H -3.636912 0.839969 4.348176 0
M  V30 37 H -6.439894 0.092857 2.840299 0
M  V30 38 H -2.678758 2.721209 -0.592242 0
M  V30 39 H 2.721669 1.775295 -0.000138 0
M  V30 40 H 3.863745 -0.209932 0.966662 0
M  V30 END ATOM
M  V30 BEGIN BOND
M  V30 1 1 1 2
M  V30 2 1 2 3
M  V30 3 1 3 4
M  V30 4 2 4 5
M  V30 5 1 4 6
M  V30 6 2 6 7
M  V30 7 1 7 8
M  V30 8 2 8 9
M  V30 9 1 9 10
M  V30 10 1 10 11
M  V30 11 2 11 12
M  V30 12 2 11 13
M  V30 13 1 11 14
M  V30 14 2 14 15
M  V30 15 1 15 16
M  V30 16 2 16 17
M  V30 17 1 17 18
M  V30 18 1 18 19
M  V30 19 1 19 20
M  V30 20 2 19 21
M  V30 21 1 21 22
M  V30 22 2 22 23
M  V30 23 1 9 24
M  V30 24 2 24 25
M  V30 25 1 25 6
M  V30 26 1 23 14
M  V30 27 1 22 17
M  V30 28 1 1 26
M  V30 29 1 1 27
M  V30 30 1 1 28
M  V30 31 1 2 29
M  V30 32 1 2 30
M  V30 33 1 7 31
M  V30 34 1 8 32
M  V30 35 1 10 33
M  V30 36 1 15 34
M  V30 37 1 16 35
M  V30 38 1 18 36
M  V30 39 1 20 37
M  V30 40 1 23 38
M  V30 41 1 24 39
M  V30 42 1 25 40
M  V30 END BOND
M  V30 END CTAB
M  END
>  <Dataset>  (317) 
ChEMBL_Kinases

>  <Ligand_Instance>  (317) 
nan

>  <PDB_ID>  (317) 
nan

>  <Standardized_SMILES>  (317) 
CCOC(=O)c1ccc(NS(=O)(=O)c2ccc3[nH]c(O)nc3c2)cc1

>  <Name>  (317) 
nan

>  <Pocket>  (317) 
nan

>  <ATP_Site>  (317) 
nan

>  <Peripheral>  (317) 
nan

>  <Num_H_Atoms_ProtBoundConf>  (317) 
nan

>  <Num_Resolved_Atoms>  (317) 
nan

>  <Num_Not_Resolved_Atoms>  (317) 
nan

$$$$
CHEMBL1546294
     RDKit          3D

  0  0  0  0  0  0  0  0  0  0999 V3000
M  V30 BEGIN CTAB
M  V30 COUNTS 48 50 0 0 0
M  V30 BEGIN ATOM
M  V30 1 C 0.682262 -4.616968 3.121171 0
M  V30 2 O 1.448674 -4.371923 1.971380 0
M  V30 3 C 0.669325 -4.300863 0.846796 0
M  V30 4 C 1.503145 -3.970030 -0.407067 0
M  V30 5 N 2.179427 -2.700202 -0.178799 0
M  V30 6 C 3.501619 -2.560310 0.349437 0
M  V30 7 C 3.672801 -1.088148 0.560034 0
M  V30 8 C 4.654471 -0.314628 1.108101 0
M  V30 9 C 4.619045 1.072392 1.180201 0
M  V30 10 C 3.502185 1.685419 0.654732 0
M  V30 11 C 2.511033 0.885989 0.102167 0
M  V30 12 C 1.311742 1.622375 -0.372170 0
M  V30 13 O 0.866273 2.272440 -1.345721 0
M  V30 14 N 0.282377 1.586705 0.643851 0
M  V30 15 C -1.047465 2.007437 0.946853 0
M  V30 16 C -2.154660 1.446605 0.187553 0
M  V30 17 C -2.258467 0.833887 -1.032835 0
M  V30 18 C -3.385717 0.339352 -1.630342 0
M  V30 19 C -4.596487 0.448554 -0.950227 0
M  V30 20 C -4.566484 1.054721 0.286505 0
M  V30 21 C -3.399126 1.536435 0.839092 0
M  V30 22 O -3.485532 2.125302 2.083253 0
M  V30 23 C -4.703771 2.249906 2.778335 0
M  V30 24 C 2.560610 -0.486169 0.037516 0
M  V30 25 C 1.569756 -1.441154 -0.461020 0
M  V30 26 O 0.453829 -1.274151 -1.005448 0
M  V30 27 H 0.154415 -5.579760 3.044198 0
M  V30 28 H 1.334610 -4.626118 4.007400 0
M  V30 29 H -0.036912 -3.750461 3.279163 0
M  V30 30 H -0.168367 -3.590680 0.901789 0
M  V30 31 H 0.226216 -5.314214 0.649276 0
M  V30 32 H 0.801965 -3.911807 -1.255826 0
M  V30 33 H 2.271991 -4.743907 -0.599325 0
M  V30 34 H 3.695848 -3.090337 1.290513 0
M  V30 35 H 4.245202 -2.923705 -0.413284 0
M  V30 36 H 5.507724 -0.849097 1.513247 0
M  V30 37 H 5.424700 1.643688 1.628754 0
M  V30 38 H 3.424779 2.759769 0.684780 0
M  V30 39 H 0.561048 1.039203 1.534041 0
M  V30 40 H -1.284106 1.954479 2.034180 0
M  V30 41 H -1.007019 3.151500 0.783589 0
M  V30 42 H -1.329784 0.747838 -1.554260 0
M  V30 43 H -3.329876 -0.117082 -2.594229 0
M  V30 44 H -5.465964 0.052179 -1.445450 0
M  V30 45 H -5.559592 1.083965 0.715719 0
M  V30 46 H -4.589111 3.012722 3.592791 0
M  V30 47 H -5.013808 1.305190 3.300631 0
M  V30 48 H -5.510801 2.536453 2.083679 0
M  V30 END ATOM
M  V30 BEGIN BOND
M  V30 1 1 1 2
M  V30 2 1 2 3
M  V30 3 1 3 4
M  V30 4 1 4 5
M  V30 5 1 5 6
M  V30 6 1 6 7
M  V30 7 2 7 8
M  V30 8 1 8 9
M  V30 9 2 9 10
M  V30 10 1 10 11
M  V30 11 1 11 12
M  V30 12 2 12 13
M  V30 13 1 12 14
M  V30 14 1 14 15
M  V30 15 1 15 16
M  V30 16 2 16 17
M  V30 17 1 17 18
M  V30 18 2 18 19
M  V30 19 1 19 20
M  V30 20 2 20 21
M  V30 21 1 21 22
M  V30 22 1 22 23
M  V30 23 2 11 24
M  V30 24 1 24 25
M  V30 25 2 25 26
M  V30 26 1 25 5
M  V30 27 1 24 7
M  V30 28 1 21 16
M  V30 29 1 1 27
M  V30 30 1 1 28
M  V30 31 1 1 29
M  V30 32 1 3 30
M  V30 33 1 3 31
M  V30 34 1 4 32
M  V30 35 1 4 33
M  V30 36 1 6 34
M  V30 37 1 6 35
M  V30 38 1 8 36
M  V30 39 1 9 37
M  V30 40 1 10 38
M  V30 41 1 14 39
M  V30 42 1 15 40
M  V30 43 1 15 41
M  V30 44 1 17 42
M  V30 45 1 18 43
M  V30 46 1 19 44
M  V30 47 1 20 45
M  V30 48 1 23 46
M  V30 49 1 23 47
M  V30 50 1 23 48
M  V30 END BOND
M  V30 END CTAB
M  END
>  <Dataset>  (318) 
ChEMBL_Kinases

>  <Ligand_Instance>  (318) 
nan

>  <PDB_ID>  (318) 
nan

>  <Standardized_SMILES>  (318) 
COCCN1Cc2cccc(C(=O)NCc3ccccc3OC)c2C1=O

>  <Name>  (318) 
nan

>  <Pocket>  (318) 
nan

>  <ATP_Site>  (318) 
nan

>  <Peripheral>  (318) 
nan

>  <Num_H_Atoms_ProtBoundConf>  (318) 
nan

>  <Num_Resolved_Atoms>  (318) 
nan

>  <Num_Not_Resolved_Atoms>  (318) 
nan

$$$$
CHEMBL1546336
     RDKit          3D

  0  0  0  0  0  0  0  0  0  0999 V3000
M  V30 BEGIN CTAB
M  V30 COUNTS 49 51 0 0 0
M  V30 BEGIN ATOM
M  V30 1 C 5.301489 -2.911632 -0.908364 0
M  V30 2 O 4.839428 -2.528612 0.392072 0
M  V30 3 C 3.667894 -1.803539 0.558931 0
M  V30 4 C 2.902884 -1.423747 -0.525215 0
M  V30 5 C 1.739621 -0.695991 -0.260059 0
M  V30 6 C 1.358790 -0.363890 1.022124 0
M  V30 7 C 2.151512 -0.762695 2.078610 0
M  V30 8 C 3.318138 -1.488879 1.859422 0
M  V30 9 O 4.130051 -1.898429 2.927435 0
M  V30 10 C 3.706497 -1.538174 4.238172 0
M  V30 11 C 0.136157 0.404236 1.342622 0
M  V30 12 C 0.597211 1.760165 1.781008 0
M  V30 13 O 0.352294 2.240025 2.918676 0
M  V30 14 O 1.335450 2.596137 0.958278 0
M  V30 15 C -0.840521 0.524080 0.224084 0
M  V30 16 C -2.003588 -0.413320 0.368790 0
M  V30 17 C -1.873613 -1.697196 -0.124971 0
M  V30 18 C -2.937497 -2.577436 -0.000455 0
M  V30 19 Br -2.716717 -4.342851 -0.696304 0
M  V30 20 C -4.124532 -2.225010 0.597465 0
M  V30 21 O -5.185981 -3.132980 0.711469 0
M  V30 22 C -4.226066 -0.925272 1.085258 0
M  V30 23 O -5.419411 -0.543595 1.695764 0
M  V30 24 C -5.515357 0.780118 2.189557 0
M  V30 25 C -3.187762 -0.015221 0.981271 0
M  V30 26 N -0.272102 0.461133 -1.096314 0
M  V30 27 C -0.885119 1.165250 -2.211169 0
M  V30 28 C 0.903696 -0.277387 -1.400249 0
M  V30 29 O 1.194265 -0.547664 -2.593700 0
M  V30 30 H 4.381210 -3.309542 -1.428843 0
M  V30 31 H 5.664954 -2.067242 -1.505796 0
M  V30 32 H 5.981848 -3.766994 -0.859474 0
M  V30 33 H 3.174872 -1.668295 -1.534912 0
M  V30 34 H 1.862743 -0.506524 3.106224 0
M  V30 35 H 3.598059 -0.432594 4.284359 0
M  V30 36 H 4.532194 -1.792283 4.956476 0
M  V30 37 H 2.766269 -2.067987 4.526525 0
M  V30 38 H -0.408111 -0.021012 2.213823 0
M  V30 39 H 1.107368 3.581037 0.834292 0
M  V30 40 H -1.294275 1.552023 0.299178 0
M  V30 41 H -0.964313 -1.994852 -0.592533 0
M  V30 42 H -5.253651 -3.882464 0.037025 0
M  V30 43 H -5.455500 1.537095 1.371941 0
M  V30 44 H -6.462318 0.923557 2.747630 0
M  V30 45 H -4.639019 0.929219 2.849070 0
M  V30 46 H -3.247853 1.000252 1.354668 0
M  V30 47 H -0.448896 2.182373 -2.346265 0
M  V30 48 H -1.977930 1.267982 -2.032167 0
M  V30 49 H -0.771861 0.611175 -3.149828 0
M  V30 END ATOM
M  V30 BEGIN BOND
M  V30 1 1 1 2
M  V30 2 1 2 3
M  V30 3 2 3 4
M  V30 4 1 4 5
M  V30 5 2 5 6
M  V30 6 1 6 7
M  V30 7 2 7 8
M  V30 8 1 8 9
M  V30 9 1 9 10
M  V30 10 1 6 11
M  V30 11 1 11 12
M  V30 12 2 12 13
M  V30 13 1 12 14
M  V30 14 1 11 15
M  V30 15 1 15 16
M  V30 16 2 16 17
M  V30 17 1 17 18
M  V30 18 1 18 19
M  V30 19 2 18 20
M  V30 20 1 20 21
M  V30 21 1 20 22
M  V30 22 1 22 23
M  V30 23 1 23 24
M  V30 24 2 22 25
M  V30 25 1 15 26
M  V30 26 1 26 27
M  V30 27 1 26 28
M  V30 28 2 28 29
M  V30 29 1 8 3
M  V30 30 1 25 16
M  V30 31 1 28 5
M  V30 32 1 1 30
M  V30 33 1 1 31
M  V30 34 1 1 32
M  V30 35 1 4 33
M  V30 36 1 7 34
M  V30 37 1 10 35
M  V30 38 1 10 36
M  V30 39 1 10 37
M  V30 40 1 11 38
M  V30 41 1 14 39
M  V30 42 1 15 40
M  V30 43 1 17 41
M  V30 44 1 21 42
M  V30 45 1 24 43
M  V30 46 1 24 44
M  V30 47 1 24 45
M  V30 48 1 25 46
M  V30 49 1 27 47
M  V30 50 1 27 48
M  V30 51 1 27 49
M  V30 END BOND
M  V30 END CTAB
M  END
>  <Dataset>  (319) 
ChEMBL_Kinases

>  <Ligand_Instance>  (319) 
nan

>  <PDB_ID>  (319) 
nan

>  <Standardized_SMILES>  (319) 
COc1cc2c(cc1OC)C(C(=O)O)C(c1cc(Br)c(O)c(OC)c1)N(C)C2=O

>  <Name>  (319) 
nan

>  <Pocket>  (319) 
nan

>  <ATP_Site>  (319) 
nan

>  <Peripheral>  (319) 
nan

>  <Num_H_Atoms_ProtBoundConf>  (319) 
nan

>  <Num_Resolved_Atoms>  (319) 
nan

>  <Num_Not_Resolved_Atoms>  (319) 
nan

$$$$
CHEMBL1546344
     RDKit          3D

  0  0  0  0  0  0  0  0  0  0999 V3000
M  V30 BEGIN CTAB
M  V30 COUNTS 49 51 0 0 0
M  V30 BEGIN ATOM
M  V30 1 O 0.281548 -0.769389 0.890675 0
M  V30 2 C 0.977878 -1.461433 1.699187 0
M  V30 3 C 2.470919 -1.461377 1.836055 0
M  V30 4 C 2.937860 -0.455466 0.789338 0
M  V30 5 C 4.420477 -0.287421 0.742219 0
M  V30 6 O 4.682733 0.670614 -0.271800 0
M  V30 7 C 5.940003 1.101646 -0.624464 0
M  V30 8 C 5.941104 2.036627 -1.637318 0
M  V30 9 C 7.118879 2.572974 -2.111619 0
M  V30 10 C 8.306682 2.166032 -1.562925 0
M  V30 11 Cl 9.890473 2.752728 -2.055430 0
M  V30 12 C 8.308592 1.228006 -0.546433 0
M  V30 13 C 7.139042 0.674972 -0.053339 0
M  V30 14 N 0.153789 -2.286962 2.511627 0
M  V30 15 C -1.223048 -2.111368 2.196146 0
M  V30 16 C -2.004104 -1.163741 2.834671 0
M  V30 17 C -3.338713 -0.961529 2.559571 0
M  V30 18 C -3.957678 -1.731824 1.598708 0
M  V30 19 N -5.330341 -1.583209 1.257895 0
M  V30 20 C -6.097885 -2.335507 0.285164 0
M  V30 21 C -6.491806 -1.394114 -0.847450 0
M  V30 22 O -6.868691 -0.147541 -0.352863 0
M  V30 23 C -7.293417 -0.227647 0.972725 0
M  V30 24 C -6.144924 -0.578429 1.913602 0
M  V30 25 C -3.183179 -2.677195 0.960014 0
M  V30 26 C -1.845456 -2.881302 1.234493 0
M  V30 27 H 2.879093 -2.445114 1.577892 0
M  V30 28 H 2.773599 -1.119065 2.844383 0
M  V30 29 H 2.500863 0.513428 1.089595 0
M  V30 30 H 2.568913 -0.808968 -0.183346 0
M  V30 31 H 4.768228 0.185747 1.690943 0
M  V30 32 H 4.938902 -1.224353 0.538403 0
M  V30 33 H 5.049030 2.414285 -2.127374 0
M  V30 34 H 7.186790 3.317026 -2.911361 0
M  V30 35 H 9.239494 0.877288 -0.082038 0
M  V30 36 H 7.064966 -0.055732 0.731834 0
M  V30 37 H 0.587779 -2.927862 3.240607 0
M  V30 38 H -1.554132 -0.524098 3.610180 0
M  V30 39 H -3.879859 -0.209621 3.094433 0
M  V30 40 H -7.046407 -2.675934 0.769719 0
M  V30 41 H -5.547565 -3.160055 -0.168271 0
M  V30 42 H -7.350261 -1.853570 -1.375656 0
M  V30 43 H -5.637338 -1.303868 -1.515425 0
M  V30 44 H -7.673485 0.774035 1.234835 0
M  V30 45 H -8.102768 -0.962908 1.107348 0
M  V30 46 H -6.621507 -0.992942 2.836538 0
M  V30 47 H -5.559967 0.342245 2.090099 0
M  V30 48 H -3.554767 -3.336835 0.192680 0
M  V30 49 H -1.227439 -3.618726 0.741133 0
M  V30 END ATOM
M  V30 BEGIN BOND
M  V30 1 2 1 2
M  V30 2 1 2 3
M  V30 3 1 3 4
M  V30 4 1 4 5
M  V30 5 1 5 6
M  V30 6 1 6 7
M  V30 7 2 7 8
M  V30 8 1 8 9
M  V30 9 2 9 10
M  V30 10 1 10 11
M  V30 11 1 10 12
M  V30 12 2 12 13
M  V30 13 1 2 14
M  V30 14 1 14 15
M  V30 15 2 15 16
M  V30 16 1 16 17
M  V30 17 2 17 18
M  V30 18 1 18 19
M  V30 19 1 19 20
M  V30 20 1 20 21
M  V30 21 1 21 22
M  V30 22 1 22 23
M  V30 23 1 23 24
M  V30 24 1 18 25
M  V30 25 2 25 26
M  V30 26 1 13 7
M  V30 27 1 26 15
M  V30 28 1 24 19
M  V30 29 1 3 27
M  V30 30 1 3 28
M  V30 31 1 4 29
M  V30 32 1 4 30
M  V30 33 1 5 31
M  V30 34 1 5 32
M  V30 35 1 8 33
M  V30 36 1 9 34
M  V30 37 1 12 35
M  V30 38 1 13 36
M  V30 39 1 14 37
M  V30 40 1 16 38
M  V30 41 1 17 39
M  V30 42 1 20 40
M  V30 43 1 20 41
M  V30 44 1 21 42
M  V30 45 1 21 43
M  V30 46 1 23 44
M  V30 47 1 23 45
M  V30 48 1 24 46
M  V30 49 1 24 47
M  V30 50 1 25 48
M  V30 51 1 26 49
M  V30 END BOND
M  V30 END CTAB
M  END
>  <Dataset>  (320) 
ChEMBL_Kinases

>  <Ligand_Instance>  (320) 
nan

>  <PDB_ID>  (320) 
nan

>  <Standardized_SMILES>  (320) 
O=C(CCCOc1ccc(Cl)cc1)Nc1ccc(N2CCOCC2)cc1

>  <Name>  (320) 
nan

>  <Pocket>  (320) 
nan

>  <ATP_Site>  (320) 
nan

>  <Peripheral>  (320) 
nan

>  <Num_H_Atoms_ProtBoundConf>  (320) 
nan

>  <Num_Resolved_Atoms>  (320) 
nan

>  <Num_Not_Resolved_Atoms>  (320) 
nan

$$$$
CHEMBL1546372
     RDKit          3D

  0  0  0  0  0  0  0  0  0  0999 V3000
M  V30 BEGIN CTAB
M  V30 COUNTS 47 50 0 0 0
M  V30 BEGIN ATOM
M  V30 1 C -4.983117 -2.610727 0.842636 0
M  V30 2 O -3.993917 -3.449807 0.289687 0
M  V30 3 C -2.757370 -3.004415 -0.116107 0
M  V30 4 C -2.540434 -1.653117 0.056932 0
M  V30 5 C -1.315664 -1.129824 -0.328948 0
M  V30 6 C -0.380233 -1.985295 -0.864473 0
M  V30 7 C 0.909643 -1.442248 -1.272837 0
M  V30 8 N 1.989120 -2.029839 -1.808795 0
M  V30 9 N 2.937800 -1.116910 -2.013771 0
M  V30 10 C 2.428572 0.056996 -1.594181 0
M  V30 11 C 3.097670 1.382606 -1.612275 0
M  V30 12 S 4.010413 1.717402 -0.074746 0
M  V30 13 C 2.893508 1.879921 1.305409 0
M  V30 14 N 2.404269 3.104488 1.591707 0
M  V30 15 C 1.549463 3.284851 2.634208 0
M  V30 16 C 1.060187 4.562092 2.905596 0
M  V30 17 C 0.198696 4.637720 3.985692 0
M  V30 18 C -0.193246 3.579320 4.779422 0
M  V30 19 C 0.316727 2.326408 4.474619 0
M  V30 20 C 1.182079 2.194918 3.405215 0
M  V30 21 C 1.686722 0.922161 3.112367 0
M  V30 22 O 1.334947 -0.049052 3.830773 0
M  V30 23 N 2.536811 0.820521 2.054279 0
M  V30 24 C 3.064769 -0.504315 1.745755 0
M  V30 25 O 1.217310 -0.172670 -1.158113 0
M  V30 26 C -0.633652 -3.330877 -1.021844 0
M  V30 27 C -1.839144 -3.900293 -0.652531 0
M  V30 28 O -2.230526 -5.202542 -0.747459 0
M  V30 29 C -1.438990 -6.224834 -1.259682 0
M  V30 30 H -5.811993 -3.250669 1.253831 0
M  V30 31 H -5.474135 -1.982427 0.077635 0
M  V30 32 H -4.591063 -1.980964 1.685280 0
M  V30 33 H -3.278796 -0.992082 0.476710 0
M  V30 34 H -1.119120 -0.073642 -0.204047 0
M  V30 35 H 2.318839 2.141443 -1.817488 0
M  V30 36 H 3.792885 1.373542 -2.474908 0
M  V30 37 H 1.329497 5.428253 2.321478 0
M  V30 38 H -0.191503 5.641339 4.207836 0
M  V30 39 H -0.868454 3.741932 5.597832 0
M  V30 40 H 0.019041 1.484877 5.087657 0
M  V30 41 H 3.418128 -0.983323 2.697632 0
M  V30 42 H 2.240196 -1.119071 1.367709 0
M  V30 43 H 3.905678 -0.387029 1.054776 0
M  V30 44 H 0.096898 -3.995512 -1.439062 0
M  V30 45 H -0.430717 -5.937945 -1.593065 0
M  V30 46 H -1.337770 -7.049153 -0.496647 0
M  V30 47 H -1.939934 -6.666477 -2.170099 0
M  V30 END ATOM
M  V30 BEGIN BOND
M  V30 1 1 1 2
M  V30 2 1 2 3
M  V30 3 2 3 4
M  V30 4 1 4 5
M  V30 5 2 5 6
M  V30 6 1 6 7
M  V30 7 2 7 8
M  V30 8 1 8 9
M  V30 9 2 9 10
M  V30 10 1 10 11
M  V30 11 1 11 12
M  V30 12 1 12 13
M  V30 13 2 13 14
M  V30 14 1 14 15
M  V30 15 2 15 16
M  V30 16 1 16 17
M  V30 17 2 17 18
M  V30 18 1 18 19
M  V30 19 2 19 20
M  V30 20 1 20 21
M  V30 21 2 21 22
M  V30 22 1 21 23
M  V30 23 1 23 24
M  V30 24 1 10 25
M  V30 25 1 6 26
M  V30 26 2 26 27
M  V30 27 1 27 28
M  V30 28 1 28 29
M  V30 29 1 27 3
M  V30 30 1 25 7
M  V30 31 1 23 13
M  V30 32 1 20 15
M  V30 33 1 1 30
M  V30 34 1 1 31
M  V30 35 1 1 32
M  V30 36 1 4 33
M  V30 37 1 5 34
M  V30 38 1 11 35
M  V30 39 1 11 36
M  V30 40 1 16 37
M  V30 41 1 17 38
M  V30 42 1 18 39
M  V30 43 1 19 40
M  V30 44 1 24 41
M  V30 45 1 24 42
M  V30 46 1 24 43
M  V30 47 1 26 44
M  V30 48 1 29 45
M  V30 49 1 29 46
M  V30 50 1 29 47
M  V30 END BOND
M  V30 END CTAB
M  END
>  <Dataset>  (321) 
ChEMBL_Kinases

>  <Ligand_Instance>  (321) 
nan

>  <PDB_ID>  (321) 
nan

>  <Standardized_SMILES>  (321) 
COc1ccc(-c2nnc(CSc3nc4ccccc4c(=O)n3C)o2)cc1OC

>  <Name>  (321) 
nan

>  <Pocket>  (321) 
nan

>  <ATP_Site>  (321) 
nan

>  <Peripheral>  (321) 
nan

>  <Num_H_Atoms_ProtBoundConf>  (321) 
nan

>  <Num_Resolved_Atoms>  (321) 
nan

>  <Num_Not_Resolved_Atoms>  (321) 
nan

$$$$
CHEMBL1546420
     RDKit          3D

  0  0  0  0  0  0  0  0  0  0999 V3000
M  V30 BEGIN CTAB
M  V30 COUNTS 38 39 0 0 0
M  V30 BEGIN ATOM
M  V30 1 C -2.288697 -3.729117 4.363899 0
M  V30 2 C -1.546360 -2.668206 3.571139 0
M  V30 3 O -1.296019 -3.200996 2.312468 0
M  V30 4 C -0.657944 -2.629945 1.251724 0
M  V30 5 C -0.104131 -1.366452 1.185828 0
M  V30 6 C 0.509246 -0.946962 0.022029 0
M  V30 7 C 1.091261 0.389922 -0.037147 0
M  V30 8 C 0.389643 1.507588 -0.445978 0
M  V30 9 C -1.025395 1.263545 -0.830981 0
M  V30 10 C 0.898866 2.770142 -0.514108 0
M  V30 11 C 0.024957 3.871642 -0.972192 0
M  V30 12 N 2.202603 2.904307 -0.143426 0
M  V30 13 C 2.911193 1.828896 0.260081 0
M  V30 14 N 4.249975 2.143330 0.609644 0
M  V30 15 C 2.422973 0.543033 0.338664 0
M  V30 16 C 3.241089 -0.528031 0.774540 0
M  V30 17 N 3.917053 -1.420050 1.117259 0
M  V30 18 C 0.605535 -1.733082 -1.109078 0
M  V30 19 C 0.043616 -3.012204 -1.039027 0
M  V30 20 C -0.573843 -3.434986 0.131960 0
M  V30 21 O -1.080147 -4.727121 0.039666 0
M  V30 22 H -1.565152 -4.310289 4.998790 0
M  V30 23 H -3.076244 -3.307562 5.020725 0
M  V30 24 H -2.814851 -4.442477 3.692135 0
M  V30 25 H -2.221430 -1.764616 3.543575 0
M  V30 26 H -0.668000 -2.352599 4.135903 0
M  V30 27 H -0.187910 -0.763700 2.079547 0
M  V30 28 H -1.444236 0.388625 -0.333538 0
M  V30 29 H -1.611898 2.152674 -0.518764 0
M  V30 30 H -1.140966 1.231256 -1.948451 0
M  V30 31 H -0.848648 4.036660 -0.321131 0
M  V30 32 H -0.321673 3.710496 -2.034894 0
M  V30 33 H 0.611374 4.830338 -1.037464 0
M  V30 34 H 4.398969 2.834635 1.401287 0
M  V30 35 H 5.268099 2.054796 0.499686 0
M  V30 36 H 1.094269 -1.375623 -2.010537 0
M  V30 37 H 0.128396 -3.613531 -1.933822 0
M  V30 38 H -2.060854 -4.955469 -0.037831 0
M  V30 END ATOM
M  V30 BEGIN BOND
M  V30 1 1 1 2
M  V30 2 1 2 3
M  V30 3 1 3 4
M  V30 4 2 4 5
M  V30 5 1 5 6
M  V30 6 1 6 7
M  V30 7 2 7 8
M  V30 8 1 8 9
M  V30 9 1 8 10
M  V30 10 1 10 11
M  V30 11 2 10 12
M  V30 12 1 12 13
M  V30 13 1 13 14
M  V30 14 2 13 15
M  V30 15 1 15 16
M  V30 16 3 16 17
M  V30 17 2 6 18
M  V30 18 1 18 19
M  V30 19 2 19 20
M  V30 20 1 20 21
M  V30 21 1 20 4
M  V30 22 1 15 7
M  V30 23 1 1 22
M  V30 24 1 1 23
M  V30 25 1 1 24
M  V30 26 1 2 25
M  V30 27 1 2 26
M  V30 28 1 5 27
M  V30 29 1 9 28
M  V30 30 1 9 29
M  V30 31 1 9 30
M  V30 32 1 11 31
M  V30 33 1 11 32
M  V30 34 1 11 33
M  V30 35 1 14 34
M  V30 36 1 14 35
M  V30 37 1 18 36
M  V30 38 1 19 37
M  V30 39 1 21 38
M  V30 END BOND
M  V30 END CTAB
M  END
>  <Dataset>  (322) 
ChEMBL_Kinases

>  <Ligand_Instance>  (322) 
nan

>  <PDB_ID>  (322) 
nan

>  <Standardized_SMILES>  (322) 
CCOc1cc(-c2c(C)c(C)nc(N)c2C#N)ccc1O

>  <Name>  (322) 
nan

>  <Pocket>  (322) 
nan

>  <ATP_Site>  (322) 
nan

>  <Peripheral>  (322) 
nan

>  <Num_H_Atoms_ProtBoundConf>  (322) 
nan

>  <Num_Resolved_Atoms>  (322) 
nan

>  <Num_Not_Resolved_Atoms>  (322) 
nan

$$$$
CHEMBL1546553
     RDKit          3D

  0  0  0  0  0  0  0  0  0  0999 V3000
M  V30 BEGIN CTAB
M  V30 COUNTS 47 50 0 0 0
M  V30 BEGIN ATOM
M  V30 1 C 2.031893 -2.930628 -1.847990 0
M  V30 2 C 1.933139 -1.662622 -2.174126 0
M  V30 3 C 1.661662 -0.268746 -2.711700 0
M  V30 4 N 1.167363 0.589414 -1.693515 0
M  V30 5 C -0.138582 0.772003 -1.569461 0
M  V30 6 S -1.592073 0.321356 -2.366576 0
M  V30 7 C -1.696544 -0.687968 -3.765206 0
M  V30 8 C -1.452353 -2.158942 -3.634116 0
M  V30 9 N -2.383670 -2.789395 -2.722223 0
M  V30 10 C -3.734252 -2.823027 -3.192739 0
M  V30 11 C -4.387455 -3.773907 -2.208663 0
M  V30 12 C -3.345153 -4.872068 -2.115567 0
M  V30 13 C -2.041418 -4.159850 -2.444893 0
M  V30 14 N -0.528364 1.576829 -0.543690 0
M  V30 15 C 0.304386 2.178089 0.321189 0
M  V30 16 C 0.268129 3.027742 1.437062 0
M  V30 17 C -0.857516 3.555583 2.033372 0
M  V30 18 C -0.693102 4.376284 3.128104 0
M  V30 19 C 0.580301 4.663392 3.617254 0
M  V30 20 C 1.679095 4.096801 2.967759 0
M  V30 21 C 1.552654 3.271342 1.870060 0
M  V30 22 N 2.405869 2.607255 1.070492 0
M  V30 23 C 1.725011 1.935725 0.126648 0
M  V30 24 C 2.113034 1.122334 -0.909521 0
M  V30 25 O 3.448857 0.884802 -1.105094 0
M  V30 26 H 1.755340 -3.967530 -1.972727 0
M  V30 27 H 1.462259 -3.703226 -2.314461 0
M  V30 28 H 2.681530 -1.477978 -1.382667 0
M  V30 29 H 0.873382 -0.416169 -3.475344 0
M  V30 30 H 2.579885 0.092727 -3.199994 0
M  V30 31 H -1.138165 -0.264841 -4.661609 0
M  V30 32 H -2.778142 -0.611786 -4.167508 0
M  V30 33 H -0.449607 -2.361868 -3.278946 0
M  V30 34 H -1.540380 -2.681585 -4.630607 0
M  V30 35 H -3.795288 -3.330319 -4.191763 0
M  V30 36 H -4.237196 -1.841052 -3.173033 0
M  V30 37 H -4.438607 -3.297508 -1.204661 0
M  V30 38 H -5.372078 -4.124575 -2.558769 0
M  V30 39 H -3.557221 -5.663022 -2.873567 0
M  V30 40 H -3.295261 -5.329745 -1.107049 0
M  V30 41 H -1.354059 -4.187691 -1.574377 0
M  V30 42 H -1.530241 -4.588341 -3.326112 0
M  V30 43 H -1.856908 3.337079 1.657736 0
M  V30 44 H -1.527476 4.816938 3.634982 0
M  V30 45 H 0.700098 5.318817 4.490505 0
M  V30 46 H 2.686898 4.300153 3.323179 0
M  V30 47 H 4.038490 1.565057 -1.540657 0
M  V30 END ATOM
M  V30 BEGIN BOND
M  V30 1 2 1 2
M  V30 2 1 2 3
M  V30 3 1 3 4
M  V30 4 1 4 5
M  V30 5 1 5 6
M  V30 6 1 6 7
M  V30 7 1 7 8
M  V30 8 1 8 9
M  V30 9 1 9 10
M  V30 10 1 10 11
M  V30 11 1 11 12
M  V30 12 1 12 13
M  V30 13 2 5 14
M  V30 14 1 14 15
M  V30 15 2 15 16
M  V30 16 1 16 17
M  V30 17 2 17 18
M  V30 18 1 18 19
M  V30 19 2 19 20
M  V30 20 1 20 21
M  V30 21 2 21 22
M  V30 22 1 22 23
M  V30 23 2 23 24
M  V30 24 1 24 25
M  V30 25 1 24 4
M  V30 26 1 13 9
M  V30 27 1 23 15
M  V30 28 1 21 16
M  V30 29 1 1 26
M  V30 30 1 1 27
M  V30 31 1 2 28
M  V30 32 1 3 29
M  V30 33 1 3 30
M  V30 34 1 7 31
M  V30 35 1 7 32
M  V30 36 1 8 33
M  V30 37 1 8 34
M  V30 38 1 10 35
M  V30 39 1 10 36
M  V30 40 1 11 37
M  V30 41 1 11 38
M  V30 42 1 12 39
M  V30 43 1 12 40
M  V30 44 1 13 41
M  V30 45 1 13 42
M  V30 46 1 17 43
M  V30 47 1 18 44
M  V30 48 1 19 45
M  V30 49 1 20 46
M  V30 50 1 25 47
M  V30 END BOND
M  V30 END CTAB
M  END
>  <Dataset>  (323) 
ChEMBL_Kinases

>  <Ligand_Instance>  (323) 
nan

>  <PDB_ID>  (323) 
nan

>  <Standardized_SMILES>  (323) 
C=CCn1c(SCCN2CCCC2)nc2c3ccccc3nc-2c1O

>  <Name>  (323) 
nan

>  <Pocket>  (323) 
nan

>  <ATP_Site>  (323) 
nan

>  <Peripheral>  (323) 
nan

>  <Num_H_Atoms_ProtBoundConf>  (323) 
nan

>  <Num_Resolved_Atoms>  (323) 
nan

>  <Num_Not_Resolved_Atoms>  (323) 
nan

$$$$
CHEMBL1546674
     RDKit          3D

  0  0  0  0  0  0  0  0  0  0999 V3000
M  V30 BEGIN CTAB
M  V30 COUNTS 37 39 0 0 0
M  V30 BEGIN ATOM
M  V30 1 C 0.946117 -3.541375 4.141764 0
M  V30 2 C 0.488963 -3.035751 2.813261 0
M  V30 3 C -0.756460 -3.420203 2.302604 0
M  V30 4 C -1.116346 -2.916417 1.070273 0
M  V30 5 C -0.315930 -2.058970 0.321605 0
M  V30 6 N -0.736141 -1.561202 -0.958542 0
M  V30 7 C 0.157861 -0.682251 -1.624486 0
M  V30 8 N 0.992117 -1.289777 -2.465497 0
M  V30 9 C 1.913320 -0.694506 -3.197133 0
M  V30 10 N 2.017988 0.617493 -3.086560 0
M  V30 11 C 1.150112 1.269594 -2.208211 0
M  V30 12 S 1.016767 3.104977 -1.797073 0
M  V30 13 C -0.297227 2.844239 -0.659730 0
M  V30 14 C -0.906597 3.976217 0.067474 0
M  V30 15 C -0.568180 1.502802 -0.630077 0
M  V30 16 C -1.647553 0.987071 0.257852 0
M  V30 17 C 0.163837 0.674243 -1.418238 0
M  V30 18 C 0.877133 -1.736766 0.892088 0
M  V30 19 C 1.323285 -2.188081 2.114139 0
M  V30 20 C 2.649158 -1.784320 2.666338 0
M  V30 21 H 1.940836 -4.032512 4.093046 0
M  V30 22 H 0.192137 -4.258536 4.524215 0
M  V30 23 H 0.996174 -2.720458 4.884638 0
M  V30 24 H -1.403354 -4.088052 2.863051 0
M  V30 25 H -2.077591 -3.227633 0.700562 0
M  V30 26 H -1.665041 -1.886244 -1.307072 0
M  V30 27 H 2.627560 -1.075032 -3.895146 0
M  V30 28 H -0.170121 4.254775 0.861955 0
M  V30 29 H -1.833929 3.713046 0.579049 0
M  V30 30 H -1.069046 4.847396 -0.606839 0
M  V30 31 H -2.202060 0.129533 -0.179683 0
M  V30 32 H -1.283653 0.723357 1.272952 0
M  V30 33 H -2.414794 1.776375 0.390009 0
M  V30 34 H 1.541961 -1.063085 0.338158 0
M  V30 35 H 3.350413 -1.492414 1.836907 0
M  V30 36 H 2.582008 -0.934950 3.369420 0
M  V30 37 H 3.133925 -2.689008 3.115895 0
M  V30 END ATOM
M  V30 BEGIN BOND
M  V30 1 1 1 2
M  V30 2 2 2 3
M  V30 3 1 3 4
M  V30 4 2 4 5
M  V30 5 1 5 6
M  V30 6 1 6 7
M  V30 7 2 7 8
M  V30 8 1 8 9
M  V30 9 2 9 10
M  V30 10 1 10 11
M  V30 11 1 11 12
M  V30 12 1 12 13
M  V30 13 1 13 14
M  V30 14 2 13 15
M  V30 15 1 15 16
M  V30 16 1 15 17
M  V30 17 1 5 18
M  V30 18 2 18 19
M  V30 19 1 19 20
M  V30 20 1 19 2
M  V30 21 1 17 7
M  V30 22 2 17 11
M  V30 23 1 1 21
M  V30 24 1 1 22
M  V30 25 1 1 23
M  V30 26 1 3 24
M  V30 27 1 4 25
M  V30 28 1 6 26
M  V30 29 1 9 27
M  V30 30 1 14 28
M  V30 31 1 14 29
M  V30 32 1 14 30
M  V30 33 1 16 31
M  V30 34 1 16 32
M  V30 35 1 16 33
M  V30 36 1 18 34
M  V30 37 1 20 35
M  V30 38 1 20 36
M  V30 39 1 20 37
M  V30 END BOND
M  V30 END CTAB
M  END
>  <Dataset>  (324) 
ChEMBL_Kinases

>  <Ligand_Instance>  (324) 
nan

>  <PDB_ID>  (324) 
nan

>  <Standardized_SMILES>  (324) 
Cc1ccc(Nc2ncnc3sc(C)c(C)c23)cc1C

>  <Name>  (324) 
nan

>  <Pocket>  (324) 
nan

>  <ATP_Site>  (324) 
nan

>  <Peripheral>  (324) 
nan

>  <Num_H_Atoms_ProtBoundConf>  (324) 
nan

>  <Num_Resolved_Atoms>  (324) 
nan

>  <Num_Not_Resolved_Atoms>  (324) 
nan

$$$$
CHEMBL1546680
     RDKit          3D

  0  0  0  0  0  0  0  0  0  0999 V3000
M  V30 BEGIN CTAB
M  V30 COUNTS 33 35 0 0 0
M  V30 BEGIN ATOM
M  V30 1 C -1.408144 -1.424814 4.264766 0
M  V30 2 C -0.873508 -2.369377 3.223800 0
M  V30 3 C -0.682167 -1.623521 1.946487 0
M  V30 4 N -0.198834 -2.361032 0.904695 0
M  V30 5 C 0.018311 -1.795885 -0.313797 0
M  V30 6 S 0.652161 -2.855097 -1.606896 0
M  V30 7 C 2.451486 -2.881289 -1.632952 0
M  V30 8 C 2.961202 -3.534520 -0.367175 0
M  V30 9 O 2.451375 -4.832632 -0.335944 0
M  V30 10 C -0.260658 -0.451980 -0.481117 0
M  V30 11 O -0.141412 0.307008 -1.525451 0
M  V30 12 C -0.524491 1.547225 -1.248527 0
M  V30 13 C -0.612181 2.734745 -1.940573 0
M  V30 14 C -1.080355 3.847316 -1.264379 0
M  V30 15 C -1.467269 3.847693 0.062176 0
M  V30 16 C -1.380985 2.659963 0.759402 0
M  V30 17 C -0.911492 1.532944 0.091433 0
M  V30 18 C -0.754725 0.260373 0.618492 0
M  V30 19 N -0.966917 -0.303844 1.819314 0
M  V30 20 H -0.823925 -1.535827 5.207885 0
M  V30 21 H -1.269725 -0.363082 3.940121 0
M  V30 22 H -2.467068 -1.589932 4.482869 0
M  V30 23 H -1.651864 -3.124464 3.022807 0
M  V30 24 H 0.040419 -2.861385 3.569669 0
M  V30 25 H 2.884830 -1.870016 -1.797641 0
M  V30 26 H 2.776250 -3.522130 -2.490039 0
M  V30 27 H 2.586297 -2.975859 0.496224 0
M  V30 28 H 4.084529 -3.604014 -0.400213 0
M  V30 29 H 1.484937 -4.733139 -0.165932 0
M  V30 30 H -0.317758 2.762479 -2.973780 0
M  V30 31 H -1.158565 4.806373 -1.797796 0
M  V30 32 H -1.825535 4.721690 0.560632 0
M  V30 33 H -1.673241 2.603960 1.806550 0
M  V30 END ATOM
M  V30 BEGIN BOND
M  V30 1 1 1 2
M  V30 2 1 2 3
M  V30 3 2 3 4
M  V30 4 1 4 5
M  V30 5 1 5 6
M  V30 6 1 6 7
M  V30 7 1 7 8
M  V30 8 1 8 9
M  V30 9 2 5 10
M  V30 10 1 10 11
M  V30 11 1 11 12
M  V30 12 2 12 13
M  V30 13 1 13 14
M  V30 14 2 14 15
M  V30 15 1 15 16
M  V30 16 2 16 17
M  V30 17 1 17 18
M  V30 18 2 18 19
M  V30 19 1 19 3
M  V30 20 1 18 10
M  V30 21 1 17 12
M  V30 22 1 1 20
M  V30 23 1 1 21
M  V30 24 1 1 22
M  V30 25 1 2 23
M  V30 26 1 2 24
M  V30 27 1 7 25
M  V30 28 1 7 26
M  V30 29 1 8 27
M  V30 30 1 8 28
M  V30 31 1 9 29
M  V30 32 1 13 30
M  V30 33 1 14 31
M  V30 34 1 15 32
M  V30 35 1 16 33
M  V30 END BOND
M  V30 END CTAB
M  END
>  <Dataset>  (325) 
ChEMBL_Kinases

>  <Ligand_Instance>  (325) 
nan

>  <PDB_ID>  (325) 
nan

>  <Standardized_SMILES>  (325) 
CCc1nc(SCCO)c2oc3ccccc3c2n1

>  <Name>  (325) 
nan

>  <Pocket>  (325) 
nan

>  <ATP_Site>  (325) 
nan

>  <Peripheral>  (325) 
nan

>  <Num_H_Atoms_ProtBoundConf>  (325) 
nan

>  <Num_Resolved_Atoms>  (325) 
nan

>  <Num_Not_Resolved_Atoms>  (325) 
nan

$$$$
CHEMBL1546263
     RDKit          3D

  0  0  0  0  0  0  0  0  0  0999 V3000
M  V30 BEGIN CTAB
M  V30 COUNTS 35 36 0 0 0
M  V30 BEGIN ATOM
M  V30 1 C -1.927998 -4.402308 1.254743 0
M  V30 2 C -0.475951 -4.677644 0.985777 0
M  V30 3 C 0.344467 -3.983182 2.046887 0
M  V30 4 O 0.162358 -2.596018 2.070490 0
M  V30 5 C 0.436614 -1.759049 0.996824 0
M  V30 6 N 0.911969 -2.134282 -0.216317 0
M  V30 7 C 1.105129 -1.148254 -1.113208 0
M  V30 8 N 1.610205 -1.616095 -2.377684 0
M  V30 9 C 0.874900 0.211518 -0.943603 0
M  V30 10 C 1.129099 1.137297 -1.992015 0
M  V30 11 N 1.323912 1.900995 -2.847553 0
M  V30 12 C 0.390991 0.567418 0.300632 0
M  V30 13 C 0.121620 1.985961 0.560242 0
M  V30 14 C -1.034929 2.665985 0.353358 0
M  V30 15 C -1.072810 4.018453 0.671482 0
M  V30 16 C 0.028300 4.679244 1.187983 0
M  V30 17 C 1.204814 3.987823 1.398523 0
M  V30 18 C 1.242825 2.636904 1.080820 0
M  V30 19 F 2.443055 2.044285 1.323149 0
M  V30 20 C 0.177593 -0.419295 1.255075 0
M  V30 21 C -0.328758 0.052264 2.521771 0
M  V30 22 N -0.749428 0.423396 3.536479 0
M  V30 23 H -2.574179 -4.969760 0.564611 0
M  V30 24 H -2.160129 -4.729270 2.279297 0
M  V30 25 H -2.177670 -3.342297 1.138774 0
M  V30 26 H -0.291625 -5.763758 1.081262 0
M  V30 27 H -0.148356 -4.364982 -0.016693 0
M  V30 28 H 1.423344 -4.228152 1.921406 0
M  V30 29 H 0.067045 -4.384094 3.041741 0
M  V30 30 H 1.353755 -2.524288 -2.798466 0
M  V30 31 H 2.281957 -1.011327 -2.921251 0
M  V30 32 H -1.836017 2.084584 -0.046986 0
M  V30 33 H -2.008517 4.530932 0.494894 0
M  V30 34 H -0.007198 5.728911 1.432929 0
M  V30 35 H 2.053777 4.526631 1.803916 0
M  V30 END ATOM
M  V30 BEGIN BOND
M  V30 1 1 1 2
M  V30 2 1 2 3
M  V30 3 1 3 4
M  V30 4 1 4 5
M  V30 5 2 5 6
M  V30 6 1 6 7
M  V30 7 1 7 8
M  V30 8 2 7 9
M  V30 9 1 9 10
M  V30 10 3 10 11
M  V30 11 1 9 12
M  V30 12 1 12 13
M  V30 13 2 13 14
M  V30 14 1 14 15
M  V30 15 2 15 16
M  V30 16 1 16 17
M  V30 17 2 17 18
M  V30 18 1 18 19
M  V30 19 2 12 20
M  V30 20 1 20 21
M  V30 21 3 21 22
M  V30 22 1 20 5
M  V30 23 1 18 13
M  V30 24 1 1 23
M  V30 25 1 1 24
M  V30 26 1 1 25
M  V30 27 1 2 26
M  V30 28 1 2 27
M  V30 29 1 3 28
M  V30 30 1 3 29
M  V30 31 1 8 30
M  V30 32 1 8 31
M  V30 33 1 14 32
M  V30 34 1 15 33
M  V30 35 1 16 34
M  V30 36 1 17 35
M  V30 END BOND
M  V30 END CTAB
M  END
>  <Dataset>  (326) 
ChEMBL_Kinases

>  <Ligand_Instance>  (326) 
nan

>  <PDB_ID>  (326) 
nan

>  <Standardized_SMILES>  (326) 
CCCOc1nc(N)c(C#N)c(-c2ccccc2F)c1C#N

>  <Name>  (326) 
nan

>  <Pocket>  (326) 
nan

>  <ATP_Site>  (326) 
nan

>  <Peripheral>  (326) 
nan

>  <Num_H_Atoms_ProtBoundConf>  (326) 
nan

>  <Num_Resolved_Atoms>  (326) 
nan

>  <Num_Not_Resolved_Atoms>  (326) 
nan

$$$$
CHEMBL1550515
     RDKit          3D

  0  0  0  0  0  0  0  0  0  0999 V3000
M  V30 BEGIN CTAB
M  V30 COUNTS 66 69 0 0 0
M  V30 BEGIN ATOM
M  V30 1 C 4.686611 1.039364 7.367072 0
M  V30 2 C 4.106383 1.312883 5.991208 0
M  V30 3 C 5.012419 0.913103 4.917843 0
M  V30 4 O 6.013467 0.476247 5.542196 0
M  V30 5 N 4.872251 0.970592 3.511707 0
M  V30 6 C 5.947622 0.504762 2.646575 0
M  V30 7 C 5.301219 0.214412 1.311178 0
M  V30 8 C 4.049618 0.996527 1.342558 0
M  V30 9 C 3.144443 1.334786 0.347300 0
M  V30 10 C 2.045364 2.095466 0.708645 0
M  V30 11 S 0.915593 2.518520 -0.528776 0
M  V30 12 O 0.260685 3.857617 -0.268920 0
M  V30 13 O 1.626625 2.631755 -1.840369 0
M  V30 14 N -0.340611 1.366190 -0.715839 0
M  V30 15 C -1.163203 1.190703 0.453196 0
M  V30 16 C -2.242169 0.165364 0.211810 0
M  V30 17 C -3.131077 0.571107 -0.907845 0
M  V30 18 O -3.234382 1.530218 -1.722620 0
M  V30 19 N -4.155667 -0.380075 -1.133386 0
M  V30 20 C -5.133694 -0.173052 -2.185831 0
M  V30 21 C -4.800849 -1.176277 -3.267511 0
M  V30 22 N -4.323394 -2.436667 -2.747004 0
M  V30 23 C -2.927976 -2.665662 -2.949535 0
M  V30 24 C -2.437990 -3.969835 -2.430737 0
M  V30 25 C -2.516337 -5.014032 -3.346072 0
M  V30 26 C -2.104626 -6.304634 -3.046143 0
M  V30 27 C -1.594214 -6.582959 -1.794735 0
M  V30 28 C -1.517641 -5.543257 -0.887494 0
M  V30 29 C -1.927772 -4.258729 -1.187258 0
M  V30 30 C -4.801587 -2.688587 -1.417849 0
M  V30 31 C -4.424668 -1.624285 -0.444409 0
M  V30 32 C 1.800430 2.537649 2.012221 0
M  V30 33 C 2.740698 2.165826 2.954158 0
M  V30 34 C 3.843677 1.412782 2.637733 0
M  V30 35 H 5.145321 1.958244 7.745891 0
M  V30 36 H 5.387320 0.176552 7.340460 0
M  V30 37 H 3.874419 0.743420 8.066391 0
M  V30 38 H 3.837710 2.390243 5.962261 0
M  V30 39 H 3.159891 0.741327 5.922440 0
M  V30 40 H 6.622613 1.378383 2.512200 0
M  V30 41 H 6.415567 -0.379748 3.076728 0
M  V30 42 H 5.053090 -0.876364 1.303683 0
M  V30 43 H 5.984877 0.469192 0.489396 0
M  V30 44 H 3.282950 1.020784 -0.678484 0
M  V30 45 H -0.887866 1.495150 -1.568476 0
M  V30 46 H -1.634052 2.189596 0.643973 0
M  V30 47 H -0.618712 0.898468 1.345287 0
M  V30 48 H -2.797164 0.039651 1.155516 0
M  V30 49 H -1.713958 -0.795051 0.002229 0
M  V30 50 H -6.172865 -0.375538 -1.823052 0
M  V30 51 H -5.124779 0.864233 -2.560421 0
M  V30 52 H -5.698882 -1.388981 -3.892626 0
M  V30 53 H -4.038387 -0.807210 -3.989864 0
M  V30 54 H -2.730592 -2.571885 -4.042905 0
M  V30 55 H -2.306926 -1.860869 -2.489015 0
M  V30 56 H -2.898948 -4.924738 -4.363624 0
M  V30 57 H -2.160484 -7.124196 -3.748563 0
M  V30 58 H -1.240058 -7.560742 -1.449193 0
M  V30 59 H -1.125111 -5.688442 0.120291 0
M  V30 60 H -1.887519 -3.417621 -0.517816 0
M  V30 61 H -4.434567 -3.652871 -1.006008 0
M  V30 62 H -5.913805 -2.795188 -1.432409 0
M  V30 63 H -5.315781 -1.418802 0.208677 0
M  V30 64 H -3.593479 -1.917793 0.229028 0
M  V30 65 H 0.941187 3.126428 2.268975 0
M  V30 66 H 2.556521 2.502241 3.953201 0
M  V30 END ATOM
M  V30 BEGIN BOND
M  V30 1 1 1 2
M  V30 2 1 2 3
M  V30 3 2 3 4
M  V30 4 1 3 5
M  V30 5 1 5 6
M  V30 6 1 6 7
M  V30 7 1 7 8
M  V30 8 2 8 9
M  V30 9 1 9 10
M  V30 10 1 10 11
M  V30 11 2 11 12
M  V30 12 2 11 13
M  V30 13 1 11 14
M  V30 14 1 14 15
M  V30 15 1 15 16
M  V30 16 1 16 17
M  V30 17 2 17 18
M  V30 18 1 17 19
M  V30 19 1 19 20
M  V30 20 1 20 21
M  V30 21 1 21 22
M  V30 22 1 22 23
M  V30 23 1 23 24
M  V30 24 2 24 25
M  V30 25 1 25 26
M  V30 26 2 26 27
M  V30 27 1 27 28
M  V30 28 2 28 29
M  V30 29 1 22 30
M  V30 30 1 30 31
M  V30 31 2 10 32
M  V30 32 1 32 33
M  V30 33 2 33 34
M  V30 34 1 34 5
M  V30 35 1 34 8
M  V30 36 1 31 19
M  V30 37 1 29 24
M  V30 38 1 1 35
M  V30 39 1 1 36
M  V30 40 1 1 37
M  V30 41 1 2 38
M  V30 42 1 2 39
M  V30 43 1 6 40
M  V30 44 1 6 41
M  V30 45 1 7 42
M  V30 46 1 7 43
M  V30 47 1 9 44
M  V30 48 1 14 45
M  V30 49 1 15 46
M  V30 50 1 15 47
M  V30 51 1 16 48
M  V30 52 1 16 49
M  V30 53 1 20 50
M  V30 54 1 20 51
M  V30 55 1 21 52
M  V30 56 1 21 53
M  V30 57 1 23 54
M  V30 58 1 23 55
M  V30 59 1 25 56
M  V30 60 1 26 57
M  V30 61 1 27 58
M  V30 62 1 28 59
M  V30 63 1 29 60
M  V30 64 1 30 61
M  V30 65 1 30 62
M  V30 66 1 31 63
M  V30 67 1 31 64
M  V30 68 1 32 65
M  V30 69 1 33 66
M  V30 END BOND
M  V30 END CTAB
M  END
>  <Dataset>  (327) 
ChEMBL_Kinases

>  <Ligand_Instance>  (327) 
nan

>  <PDB_ID>  (327) 
nan

>  <Standardized_SMILES>  (327) 
CCC(=O)N1CCc2cc(S(=O)(=O)NCCC(=O)N3CCN(Cc4ccccc4)CC3)ccc21

>  <Name>  (327) 
nan

>  <Pocket>  (327) 
nan

>  <ATP_Site>  (327) 
nan

>  <Peripheral>  (327) 
nan

>  <Num_H_Atoms_ProtBoundConf>  (327) 
nan

>  <Num_Resolved_Atoms>  (327) 
nan

>  <Num_Not_Resolved_Atoms>  (327) 
nan

$$$$
CHEMBL1550456
     RDKit          3D

  0  0  0  0  0  0  0  0  0  0999 V3000
M  V30 BEGIN CTAB
M  V30 COUNTS 43 45 0 0 0
M  V30 BEGIN ATOM
M  V30 1 O 1.483663 0.957282 1.208875 0
M  V30 2 C 0.551896 0.403524 1.827639 0
M  V30 3 N 0.868354 -0.865976 2.423140 0
M  V30 4 N 2.193010 -1.255751 2.194057 0
M  V30 5 C 2.411307 -2.029937 1.183654 0
M  V30 6 C 1.193533 -2.392142 0.407127 0
M  V30 7 C 1.536146 -2.769912 -1.017412 0
M  V30 8 C 2.141802 -1.577461 -1.697905 0
M  V30 9 C 3.458040 -1.926101 -2.324676 0
M  V30 10 C 4.473894 -2.454817 -1.355344 0
M  V30 11 C 4.516674 -1.635163 -0.070704 0
M  V30 12 C 3.832858 -2.364653 1.052237 0
M  V30 13 C -0.783754 0.979164 1.957690 0
M  V30 14 C -1.001726 2.202572 1.354721 0
M  V30 15 C -2.250582 2.782468 1.453321 0
M  V30 16 C -3.289758 2.181123 2.134365 0
M  V30 17 C -4.555279 2.771327 2.232862 0
M  V30 18 C -5.513694 2.071802 2.941074 0
M  V30 19 C -5.252454 0.846269 3.530701 0
M  V30 20 C -4.002007 0.266820 3.431316 0
M  V30 21 C -3.022427 0.941158 2.729921 0
M  V30 22 N -1.789929 0.383408 2.624575 0
M  V30 23 H 0.068030 -1.327039 2.946556 0
M  V30 24 H 0.440589 -1.578121 0.365716 0
M  V30 25 H 0.696953 -3.219487 0.952584 0
M  V30 26 H 0.609289 -3.115859 -1.504495 0
M  V30 27 H 2.260388 -3.606337 -0.969294 0
M  V30 28 H 2.193828 -0.706954 -1.014800 0
M  V30 29 H 1.463412 -1.292116 -2.541200 0
M  V30 30 H 3.852164 -1.006401 -2.840338 0
M  V30 31 H 3.267519 -2.733236 -3.061752 0
M  V30 32 H 4.293437 -3.523858 -1.130453 0
M  V30 33 H 5.465353 -2.414778 -1.877884 0
M  V30 34 H 5.591578 -1.492406 0.229827 0
M  V30 35 H 4.120719 -0.622470 -0.266627 0
M  V30 36 H 3.947768 -3.460643 0.804864 0
M  V30 37 H 4.352834 -2.183883 2.004015 0
M  V30 38 H -0.235322 2.728204 0.807053 0
M  V30 39 H -2.503799 3.739051 1.009616 0
M  V30 40 H -4.704062 3.727412 1.754383 0
M  V30 41 H -6.498256 2.511375 3.028536 0
M  V30 42 H -6.072703 0.372477 4.067785 0
M  V30 43 H -3.834319 -0.689317 3.903468 0
M  V30 END ATOM
M  V30 BEGIN BOND
M  V30 1 2 1 2
M  V30 2 1 2 3
M  V30 3 1 3 4
M  V30 4 2 4 5 CFG=2
M  V30 5 1 5 6
M  V30 6 1 6 7
M  V30 7 1 7 8
M  V30 8 1 8 9
M  V30 9 1 9 10
M  V30 10 1 10 11
M  V30 11 1 11 12
M  V30 12 1 2 13
M  V30 13 2 13 14
M  V30 14 1 14 15
M  V30 15 2 15 16
M  V30 16 1 16 17
M  V30 17 2 17 18
M  V30 18 1 18 19
M  V30 19 2 19 20
M  V30 20 1 20 21
M  V30 21 2 21 22
M  V30 22 1 12 5
M  V30 23 1 22 13
M  V30 24 1 21 16
M  V30 25 1 3 23
M  V30 26 1 6 24
M  V30 27 1 6 25
M  V30 28 1 7 26
M  V30 29 1 7 27
M  V30 30 1 8 28
M  V30 31 1 8 29
M  V30 32 1 9 30
M  V30 33 1 9 31
M  V30 34 1 10 32
M  V30 35 1 10 33
M  V30 36 1 11 34
M  V30 37 1 11 35
M  V30 38 1 12 36
M  V30 39 1 12 37
M  V30 40 1 14 38
M  V30 41 1 15 39
M  V30 42 1 17 40
M  V30 43 1 18 41
M  V30 44 1 19 42
M  V30 45 1 20 43
M  V30 END BOND
M  V30 END CTAB
M  END
>  <Dataset>  (328) 
ChEMBL_Kinases

>  <Ligand_Instance>  (328) 
nan

>  <PDB_ID>  (328) 
nan

>  <Standardized_SMILES>  (328) 
O=C(NN=C1CCCCCCC1)c1ccc2ccccc2n1

>  <Name>  (328) 
nan

>  <Pocket>  (328) 
nan

>  <ATP_Site>  (328) 
nan

>  <Peripheral>  (328) 
nan

>  <Num_H_Atoms_ProtBoundConf>  (328) 
nan

>  <Num_Resolved_Atoms>  (328) 
nan

>  <Num_Not_Resolved_Atoms>  (328) 
nan

$$$$
CHEMBL1550455
     RDKit          3D

  0  0  0  0  0  0  0  0  0  0999 V3000
M  V30 BEGIN CTAB
M  V30 COUNTS 49 52 0 0 0
M  V30 BEGIN ATOM
M  V30 1 C 2.574754 -4.846402 4.438996 0
M  V30 2 C 1.822336 -4.254934 3.310102 0
M  V30 3 O 0.927769 -4.941576 2.744275 0
M  V30 4 C 2.094418 -2.901573 2.843217 0
M  V30 5 C 3.059264 -2.117155 3.428112 0
M  V30 6 C 3.275615 -0.853692 2.954035 0
M  V30 7 C 2.546138 -0.365037 1.910410 0
M  V30 8 C 1.568321 -1.109173 1.289803 0
M  V30 9 N 0.872000 -0.504604 0.221812 0
M  V30 10 C -0.163835 -1.009993 -0.595518 0
M  V30 11 O -0.572558 -2.180446 -0.393688 0
M  V30 12 C -0.868537 -0.333121 -1.705332 0
M  V30 13 S -1.850441 1.098301 -1.169455 0
M  V30 14 C -0.905160 2.424990 -0.516363 0
M  V30 15 N -0.374437 3.413407 -1.287207 0
M  V30 16 C 0.309776 4.381838 -0.657195 0
M  V30 17 N 0.512360 4.450610 0.690690 0
M  V30 18 C -0.001472 3.483336 1.496518 0
M  V30 19 C 0.177278 3.517752 2.863699 0
M  V30 20 C -0.358239 2.525280 3.657528 0
M  V30 21 C -1.073534 1.498271 3.077160 0
M  V30 22 C -1.230362 1.498868 1.708012 0
M  V30 23 C -0.710956 2.473283 0.871843 0
M  V30 24 C -1.777420 -1.334635 -2.368830 0
M  V30 25 C -2.791049 -1.955188 -1.643679 0
M  V30 26 C -3.649606 -2.882057 -2.219328 0
M  V30 27 C -3.483312 -3.193686 -3.565501 0
M  V30 28 C -2.488187 -2.598148 -4.317003 0
M  V30 29 C -1.656012 -1.682868 -3.708245 0
M  V30 30 C 1.385375 -2.364210 1.794033 0
M  V30 31 H 1.991623 -4.739750 5.387019 0
M  V30 32 H 3.612676 -4.470850 4.512528 0
M  V30 33 H 2.637628 -5.962840 4.287274 0
M  V30 34 H 3.658845 -2.455206 4.249837 0
M  V30 35 H 4.021722 -0.227994 3.393787 0
M  V30 36 H 2.754018 0.658383 1.561433 0
M  V30 37 H 1.096001 0.465588 -0.084324 0
M  V30 38 H -0.135163 -0.030138 -2.468306 0
M  V30 39 H 0.777302 5.221002 -1.168329 0
M  V30 40 H 0.735038 4.315278 3.337348 0
M  V30 41 H -0.262709 2.480021 4.736428 0
M  V30 42 H -1.527480 0.676130 3.649495 0
M  V30 43 H -1.794927 0.690862 1.235540 0
M  V30 44 H -2.946209 -1.727436 -0.577564 0
M  V30 45 H -4.443705 -3.368153 -1.648929 0
M  V30 46 H -4.164611 -3.926744 -4.014519 0
M  V30 47 H -2.355089 -2.841101 -5.374005 0
M  V30 48 H -0.871651 -1.205335 -4.278312 0
M  V30 49 H 0.639306 -2.996607 1.356295 0
M  V30 END ATOM
M  V30 BEGIN BOND
M  V30 1 1 1 2
M  V30 2 2 2 3
M  V30 3 1 2 4
M  V30 4 2 4 5
M  V30 5 1 5 6
M  V30 6 2 6 7
M  V30 7 1 7 8
M  V30 8 1 8 9
M  V30 9 1 9 10
M  V30 10 2 10 11
M  V30 11 1 10 12
M  V30 12 1 12 13
M  V30 13 1 13 14
M  V30 14 2 14 15
M  V30 15 1 15 16
M  V30 16 2 16 17
M  V30 17 1 17 18
M  V30 18 2 18 19
M  V30 19 1 19 20
M  V30 20 2 20 21
M  V30 21 1 21 22
M  V30 22 2 22 23
M  V30 23 1 12 24
M  V30 24 2 24 25
M  V30 25 1 25 26
M  V30 26 2 26 27
M  V30 27 1 27 28
M  V30 28 2 28 29
M  V30 29 2 8 30
M  V30 30 1 30 4
M  V30 31 1 23 14
M  V30 32 1 29 24
M  V30 33 1 23 18
M  V30 34 1 1 31
M  V30 35 1 1 32
M  V30 36 1 1 33
M  V30 37 1 5 34
M  V30 38 1 6 35
M  V30 39 1 7 36
M  V30 40 1 9 37
M  V30 41 1 12 38
M  V30 42 1 16 39
M  V30 43 1 19 40
M  V30 44 1 20 41
M  V30 45 1 21 42
M  V30 46 1 22 43
M  V30 47 1 25 44
M  V30 48 1 26 45
M  V30 49 1 27 46
M  V30 50 1 28 47
M  V30 51 1 29 48
M  V30 52 1 30 49
M  V30 END BOND
M  V30 END CTAB
M  END
>  <Dataset>  (329) 
ChEMBL_Kinases

>  <Ligand_Instance>  (329) 
nan

>  <PDB_ID>  (329) 
nan

>  <Standardized_SMILES>  (329) 
CC(=O)c1cccc(NC(=O)C(Sc2ncnc3ccccc23)c2ccccc2)c1

>  <Name>  (329) 
nan

>  <Pocket>  (329) 
nan

>  <ATP_Site>  (329) 
nan

>  <Peripheral>  (329) 
nan

>  <Num_H_Atoms_ProtBoundConf>  (329) 
nan

>  <Num_Resolved_Atoms>  (329) 
nan

>  <Num_Not_Resolved_Atoms>  (329) 
nan

$$$$
CHEMBL1550363
     RDKit          3D

  0  0  0  0  0  0  0  0  0  0999 V3000
M  V30 BEGIN CTAB
M  V30 COUNTS 44 46 0 0 0
M  V30 BEGIN ATOM
M  V30 1 C 0.686942 -3.150404 3.539066 0
M  V30 2 C 0.051338 -2.369778 2.402060 0
M  V30 3 C 0.988899 -1.323606 1.917056 0
M  V30 4 C 1.621749 -1.558691 0.685526 0
M  V30 5 C 2.515477 -0.652587 0.166311 0
M  V30 6 C 3.058674 -0.973634 -1.042483 0
M  V30 7 C 3.950568 -0.108071 -1.634740 0
M  V30 8 C 4.264450 1.061923 -0.977742 0
M  V30 9 O 5.158297 1.961211 -1.548124 0
M  V30 10 C 5.716480 1.613603 -2.829357 0
M  V30 11 C 3.710700 1.395471 0.263055 0
M  V30 12 C 2.820000 0.525899 0.849270 0
M  V30 13 N 2.204318 0.734827 2.027935 0
M  V30 14 C 1.326719 -0.135341 2.553443 0
M  V30 15 S 0.443550 0.181990 4.085722 0
M  V30 16 C -0.962815 1.279143 3.723766 0
M  V30 17 C -1.860322 0.682649 2.766844 0
M  V30 18 O -1.372836 0.877587 1.594073 0
M  V30 19 N -3.081350 -0.023329 2.808105 0
M  V30 20 C -3.761316 -0.501701 1.663673 0
M  V30 21 C -3.416283 -0.443110 0.334698 0
M  V30 22 C -4.403613 -1.032966 -0.448794 0
M  V30 23 C -4.410466 -1.170544 -1.928772 0
M  V30 24 O -5.297833 -1.422240 0.428731 0
M  V30 25 N -4.948778 -1.126552 1.647781 0
M  V30 26 H 0.808699 -4.214419 3.292563 0
M  V30 27 H 1.660740 -2.674389 3.801456 0
M  V30 28 H 0.067122 -3.083822 4.444077 0
M  V30 29 H -0.908897 -1.976773 2.740602 0
M  V30 30 H -0.129148 -3.112116 1.586975 0
M  V30 31 H 1.386552 -2.487608 0.144330 0
M  V30 32 H 2.812480 -1.901740 -1.571185 0
M  V30 33 H 4.369370 -0.389634 -2.593891 0
M  V30 34 H 6.333228 0.698337 -2.742967 0
M  V30 35 H 6.306928 2.436563 -3.238936 0
M  V30 36 H 4.859758 1.343020 -3.505894 0
M  V30 37 H 3.927144 2.287328 0.804473 0
M  V30 38 H -0.560826 2.246999 3.357134 0
M  V30 39 H -1.497311 1.536382 4.683147 0
M  V30 40 H -3.396383 -0.135222 3.780984 0
M  V30 41 H -2.547169 -0.031013 -0.117925 0
M  V30 42 H -3.554527 -0.577523 -2.377360 0
M  V30 43 H -4.218792 -2.200615 -2.254758 0
M  V30 44 H -5.323632 -0.756324 -2.402339 0
M  V30 END ATOM
M  V30 BEGIN BOND
M  V30 1 1 1 2
M  V30 2 1 2 3
M  V30 3 2 3 4
M  V30 4 1 4 5
M  V30 5 2 5 6
M  V30 6 1 6 7
M  V30 7 2 7 8
M  V30 8 1 8 9
M  V30 9 1 9 10
M  V30 10 1 8 11
M  V30 11 2 11 12
M  V30 12 1 12 13
M  V30 13 2 13 14
M  V30 14 1 14 15
M  V30 15 1 15 16
M  V30 16 1 16 17
M  V30 17 2 17 18
M  V30 18 1 17 19
M  V30 19 1 19 20
M  V30 20 1 20 21
M  V30 21 2 21 22
M  V30 22 1 22 23
M  V30 23 1 22 24
M  V30 24 1 24 25
M  V30 25 1 14 3
M  V30 26 2 25 20
M  V30 27 1 12 5
M  V30 28 1 1 26
M  V30 29 1 1 27
M  V30 30 1 1 28
M  V30 31 1 2 29
M  V30 32 1 2 30
M  V30 33 1 4 31
M  V30 34 1 6 32
M  V30 35 1 7 33
M  V30 36 1 10 34
M  V30 37 1 10 35
M  V30 38 1 10 36
M  V30 39 1 11 37
M  V30 40 1 16 38
M  V30 41 1 16 39
M  V30 42 1 19 40
M  V30 43 1 21 41
M  V30 44 1 23 42
M  V30 45 1 23 43
M  V30 46 1 23 44
M  V30 END BOND
M  V30 END CTAB
M  END
>  <Dataset>  (330) 
ChEMBL_Kinases

>  <Ligand_Instance>  (330) 
nan

>  <PDB_ID>  (330) 
nan

>  <Standardized_SMILES>  (330) 
CCc1cc2ccc(OC)cc2nc1SCC(=O)Nc1cc(C)on1

>  <Name>  (330) 
nan

>  <Pocket>  (330) 
nan

>  <ATP_Site>  (330) 
nan

>  <Peripheral>  (330) 
nan

>  <Num_H_Atoms_ProtBoundConf>  (330) 
nan

>  <Num_Resolved_Atoms>  (330) 
nan

>  <Num_Not_Resolved_Atoms>  (330) 
nan

$$$$
CHEMBL1550323
     RDKit          3D

  0  0  0  0  0  0  0  0  0  0999 V3000
M  V30 BEGIN CTAB
M  V30 COUNTS 41 42 0 0 0
M  V30 BEGIN ATOM
M  V30 1 C 1.681384 -4.629655 4.277611 0
M  V30 2 C 0.945815 -3.663536 3.422787 0
M  V30 3 C -0.377087 -3.839255 3.071944 0
M  V30 4 C -0.979998 -2.874621 2.263942 0
M  V30 5 C -0.273825 -1.752890 1.813554 0
M  V30 6 N -1.133784 -0.947840 1.015137 0
M  V30 7 C -1.233847 -1.161336 -0.403660 0
M  V30 8 C -0.300992 -0.403258 -1.232525 0
M  V30 9 O -0.526309 -0.707147 -2.455835 0
M  V30 10 N 0.764221 0.533334 -1.339857 0
M  V30 11 C 1.256611 0.853813 -2.663372 0
M  V30 12 C 0.987238 2.303401 -3.027788 0
M  V30 13 O 0.805026 3.034211 -1.842424 0
M  V30 14 C 1.795155 2.654689 -0.936110 0
M  V30 15 C 1.520377 1.296421 -0.331645 0
M  V30 16 S -1.970414 0.220531 1.964273 0
M  V30 17 C -0.907901 1.359466 2.779106 0
M  V30 18 O -3.012092 0.946328 1.124387 0
M  V30 19 O -2.779580 -0.463367 3.055951 0
M  V30 20 C 1.046268 -1.605356 2.180908 0
M  V30 21 C 1.640123 -2.558444 2.978578 0
M  V30 22 H 2.651172 -4.860343 3.799371 0
M  V30 23 H 1.087347 -5.571802 4.295603 0
M  V30 24 H 1.760707 -4.293249 5.316566 0
M  V30 25 H -0.854911 -4.713075 3.447889 0
M  V30 26 H -2.022879 -3.137116 2.064275 0
M  V30 27 H -2.282282 -0.889325 -0.724074 0
M  V30 28 H -1.149073 -2.258612 -0.658476 0
M  V30 29 H 0.853715 0.167416 -3.405067 0
M  V30 30 H 2.372456 0.667018 -2.634883 0
M  V30 31 H 1.826331 2.725774 -3.604939 0
M  V30 32 H 0.085348 2.337131 -3.666495 0
M  V30 33 H 2.756418 2.644051 -1.490763 0
M  V30 34 H 1.878955 3.430357 -0.157047 0
M  V30 35 H 1.019501 1.362210 0.628571 0
M  V30 36 H 2.497878 0.760498 -0.187705 0
M  V30 37 H -1.280416 1.686853 3.772267 0
M  V30 38 H 0.135523 1.002037 2.899233 0
M  V30 39 H -0.873392 2.306458 2.165732 0
M  V30 40 H 1.462001 -0.701232 1.764584 0
M  V30 41 H 2.682048 -2.356587 3.215478 0
M  V30 END ATOM
M  V30 BEGIN BOND
M  V30 1 1 1 2
M  V30 2 2 2 3
M  V30 3 1 3 4
M  V30 4 2 4 5
M  V30 5 1 5 6
M  V30 6 1 6 7
M  V30 7 1 7 8
M  V30 8 2 8 9
M  V30 9 1 8 10
M  V30 10 1 10 11
M  V30 11 1 11 12
M  V30 12 1 12 13
M  V30 13 1 13 14
M  V30 14 1 14 15
M  V30 15 1 6 16
M  V30 16 1 16 17
M  V30 17 2 16 18
M  V30 18 2 16 19
M  V30 19 1 5 20
M  V30 20 2 20 21
M  V30 21 1 21 2
M  V30 22 1 15 10
M  V30 23 1 1 22
M  V30 24 1 1 23
M  V30 25 1 1 24
M  V30 26 1 3 25
M  V30 27 1 4 26
M  V30 28 1 7 27
M  V30 29 1 7 28
M  V30 30 1 11 29
M  V30 31 1 11 30
M  V30 32 1 12 31
M  V30 33 1 12 32
M  V30 34 1 14 33
M  V30 35 1 14 34
M  V30 36 1 15 35
M  V30 37 1 15 36
M  V30 38 1 17 37
M  V30 39 1 17 38
M  V30 40 1 17 39
M  V30 41 1 20 40
M  V30 42 1 21 41
M  V30 END BOND
M  V30 END CTAB
M  END
>  <Dataset>  (331) 
ChEMBL_Kinases

>  <Ligand_Instance>  (331) 
nan

>  <PDB_ID>  (331) 
nan

>  <Standardized_SMILES>  (331) 
Cc1ccc(N(CC(=O)N2CCOCC2)S(C)(=O)=O)cc1

>  <Name>  (331) 
nan

>  <Pocket>  (331) 
nan

>  <ATP_Site>  (331) 
nan

>  <Peripheral>  (331) 
nan

>  <Num_H_Atoms_ProtBoundConf>  (331) 
nan

>  <Num_Resolved_Atoms>  (331) 
nan

>  <Num_Not_Resolved_Atoms>  (331) 
nan

$$$$
CHEMBL1550158
     RDKit          3D

  0  0  0  0  0  0  0  0  0  0999 V3000
M  V30 BEGIN CTAB
M  V30 COUNTS 48 50 0 0 0
M  V30 BEGIN ATOM
M  V30 1 C 2.585087 -3.995833 4.563047 0
M  V30 2 O 2.330636 -3.228854 3.431429 0
M  V30 3 C 3.182536 -3.099869 2.374294 0
M  V30 4 C 4.421274 -3.673611 2.205493 0
M  V30 5 C 5.289079 -3.549365 1.141179 0
M  V30 6 C 4.852326 -2.740904 0.111056 0
M  V30 7 C 3.616560 -2.160170 0.264276 0
M  V30 8 C 3.238235 -1.331816 -0.861421 0
M  V30 9 O 2.740373 -0.586754 -1.719424 0
M  V30 10 O 2.699624 -0.517074 -1.806119 0
M  V30 11 C 1.491284 0.161050 -1.744593 0
M  V30 12 C 1.389039 1.454662 -1.274703 0
M  V30 13 C 0.036085 1.785248 -1.366663 0
M  V30 14 N -0.439941 3.063311 -0.961713 0
M  V30 15 N -0.622710 0.728149 -1.869307 0
M  V30 16 S -2.334546 0.683100 -2.163338 0
M  V30 17 O -2.757225 1.830099 -3.043463 0
M  V30 18 O -2.731104 -0.630043 -2.773364 0
M  V30 19 C -3.131406 0.908312 -0.623201 0
M  V30 20 C -3.455074 2.183404 -0.202337 0
M  V30 21 C -4.082101 2.494175 0.986112 0
M  V30 22 C -4.412208 1.426788 1.824405 0
M  V30 23 C -5.094850 1.746620 3.122650 0
M  V30 24 C -4.109900 0.123007 1.450690 0
M  V30 25 C -3.475856 -0.115474 0.235886 0
M  V30 26 N 0.247012 -0.258298 -2.101013 0
M  V30 27 C 2.758263 -2.293836 1.336318 0
M  V30 28 O 1.531214 -1.658164 1.381354 0
M  V30 29 C 0.340997 -2.225357 0.882601 0
M  V30 30 H 2.698440 -3.415535 5.501434 0
M  V30 31 H 1.679132 -4.644320 4.752905 0
M  V30 32 H 3.465365 -4.656974 4.516139 0
M  V30 33 H 4.768970 -4.308154 3.009767 0
M  V30 34 H 6.241955 -4.059379 1.134714 0
M  V30 35 H 5.498770 -2.613868 -0.743516 0
M  V30 36 H 2.195868 2.104630 -0.902079 0
M  V30 37 H -0.463703 3.383106 0.044111 0
M  V30 38 H -0.744035 3.593194 -1.806918 0
M  V30 39 H -3.230742 3.053473 -0.799099 0
M  V30 40 H -4.326788 3.487502 1.299434 0
M  V30 41 H -5.227437 0.792562 3.677376 0
M  V30 42 H -4.404538 2.407597 3.725636 0
M  V30 43 H -6.031012 2.289484 2.966704 0
M  V30 44 H -4.377841 -0.665960 2.117964 0
M  V30 45 H -3.233499 -1.130760 -0.068613 0
M  V30 46 H 0.192068 -3.244631 1.345279 0
M  V30 47 H -0.551449 -1.650109 1.124414 0
M  V30 48 H 0.491800 -2.411572 -0.201057 0
M  V30 END ATOM
M  V30 BEGIN BOND
M  V30 1 1 1 2
M  V30 2 1 2 3
M  V30 3 2 3 4
M  V30 4 1 4 5
M  V30 5 2 5 6
M  V30 6 1 6 7
M  V30 7 1 7 8
M  V30 8 2 8 9
M  V30 9 1 8 10
M  V30 10 1 10 11
M  V30 11 1 11 12
M  V30 12 2 12 13
M  V30 13 1 13 14
M  V30 14 1 13 15
M  V30 15 1 15 16
M  V30 16 2 16 17
M  V30 17 2 16 18
M  V30 18 1 16 19
M  V30 19 2 19 20
M  V30 20 1 20 21
M  V30 21 2 21 22
M  V30 22 1 22 23
M  V30 23 1 22 24
M  V30 24 2 24 25
M  V30 25 1 15 26
M  V30 26 2 7 27
M  V30 27 1 27 28
M  V30 28 1 28 29
M  V30 29 1 27 3
M  V30 30 2 26 11
M  V30 31 1 25 19
M  V30 32 1 1 30
M  V30 33 1 1 31
M  V30 34 1 1 32
M  V30 35 1 4 33
M  V30 36 1 5 34
M  V30 37 1 6 35
M  V30 38 1 12 36
M  V30 39 1 14 37
M  V30 40 1 14 38
M  V30 41 1 20 39
M  V30 42 1 21 40
M  V30 43 1 23 41
M  V30 44 1 23 42
M  V30 45 1 23 43
M  V30 46 1 24 44
M  V30 47 1 25 45
M  V30 48 1 29 46
M  V30 49 1 29 47
M  V30 50 1 29 48
M  V30 END BOND
M  V30 END CTAB
M  END
>  <Dataset>  (332) 
ChEMBL_Kinases

>  <Ligand_Instance>  (332) 
nan

>  <PDB_ID>  (332) 
nan

>  <Standardized_SMILES>  (332) 
COc1cccc(C(=O)Oc2cc(N)n(S(=O)(=O)c3ccc(C)cc3)n2)c1OC

>  <Name>  (332) 
nan

>  <Pocket>  (332) 
nan

>  <ATP_Site>  (332) 
nan

>  <Peripheral>  (332) 
nan

>  <Num_H_Atoms_ProtBoundConf>  (332) 
nan

>  <Num_Resolved_Atoms>  (332) 
nan

>  <Num_Not_Resolved_Atoms>  (332) 
nan

$$$$
CHEMBL1550005
     RDKit          3D

  0  0  0  0  0  0  0  0  0  0999 V3000
M  V30 BEGIN CTAB
M  V30 COUNTS 40 41 0 0 0
M  V30 BEGIN ATOM
M  V30 1 C 0.723180 -2.736223 5.296649 0
M  V30 2 C 1.894914 -1.843937 5.056330 0
M  V30 3 O 2.596814 -1.534377 6.070266 0
M  V30 4 C 1.979968 -1.506659 3.636138 0
M  V30 5 C 2.645532 -2.153183 2.610332 0
M  V30 6 C 3.449711 -3.398601 2.795952 0
M  V30 7 N 2.446041 -1.482625 1.454245 0
M  V30 8 C 1.659911 -0.416294 1.736699 0
M  V30 9 C 1.210863 0.570287 0.739167 0
M  V30 10 O 1.598233 0.384475 -0.442658 0
M  V30 11 O 0.412003 1.621926 1.124331 0
M  V30 12 C -0.045775 2.603697 0.181125 0
M  V30 13 C -0.837203 1.804786 -0.821143 0
M  V30 14 O -1.014887 0.541660 -0.773362 0
M  V30 15 N -1.489993 2.384841 -1.959724 0
M  V30 16 C -2.134445 1.308881 -2.668809 0
M  V30 17 C -1.621383 0.521362 -3.679575 0
M  V30 18 C -2.659644 -0.358439 -4.004017 0
M  V30 19 C -2.452851 -1.368570 -5.075125 0
M  V30 20 O -3.683267 -0.100831 -3.245992 0
M  V30 21 N -3.411147 0.896632 -2.426201 0
M  V30 22 C 1.352416 -0.402482 3.085144 0
M  V30 23 C 0.518461 0.605550 3.762895 0
M  V30 24 H 0.736812 -3.218278 6.291136 0
M  V30 25 H -0.217647 -2.140489 5.224357 0
M  V30 26 H 0.681734 -3.560182 4.551305 0
M  V30 27 H 3.410873 -4.008499 1.850990 0
M  V30 28 H 4.500233 -3.177905 3.075163 0
M  V30 29 H 3.021389 -3.998583 3.626387 0
M  V30 30 H 2.845565 -1.776354 0.548792 0
M  V30 31 H 0.847592 3.062609 -0.246559 0
M  V30 32 H -0.627362 3.378894 0.674594 0
M  V30 33 H -1.404945 3.425211 -2.092309 0
M  V30 34 H -0.628014 0.601988 -4.098430 0
M  V30 35 H -1.959278 -0.870236 -5.934178 0
M  V30 36 H -3.375748 -1.917734 -5.337930 0
M  V30 37 H -1.669358 -2.081395 -4.684075 0
M  V30 38 H 0.849589 1.616348 3.437980 0
M  V30 39 H 0.594762 0.485523 4.871567 0
M  V30 40 H -0.540173 0.388759 3.494367 0
M  V30 END ATOM
M  V30 BEGIN BOND
M  V30 1 1 1 2
M  V30 2 2 2 3
M  V30 3 1 2 4
M  V30 4 2 4 5
M  V30 5 1 5 6
M  V30 6 1 5 7
M  V30 7 1 7 8
M  V30 8 1 8 9
M  V30 9 2 9 10
M  V30 10 1 9 11
M  V30 11 1 11 12
M  V30 12 1 12 13
M  V30 13 2 13 14
M  V30 14 1 13 15
M  V30 15 1 15 16
M  V30 16 1 16 17
M  V30 17 2 17 18
M  V30 18 1 18 19
M  V30 19 1 18 20
M  V30 20 1 20 21
M  V30 21 2 8 22
M  V30 22 1 22 23
M  V30 23 1 22 4
M  V30 24 2 21 16
M  V30 25 1 1 24
M  V30 26 1 1 25
M  V30 27 1 1 26
M  V30 28 1 6 27
M  V30 29 1 6 28
M  V30 30 1 6 29
M  V30 31 1 7 30
M  V30 32 1 12 31
M  V30 33 1 12 32
M  V30 34 1 15 33
M  V30 35 1 17 34
M  V30 36 1 19 35
M  V30 37 1 19 36
M  V30 38 1 19 37
M  V30 39 1 23 38
M  V30 40 1 23 39
M  V30 41 1 23 40
M  V30 END BOND
M  V30 END CTAB
M  END
>  <Dataset>  (333) 
ChEMBL_Kinases

>  <Ligand_Instance>  (333) 
nan

>  <PDB_ID>  (333) 
nan

>  <Standardized_SMILES>  (333) 
CC(=O)c1c(C)[nH]c(C(=O)OCC(=O)Nc2cc(C)on2)c1C

>  <Name>  (333) 
nan

>  <Pocket>  (333) 
nan

>  <ATP_Site>  (333) 
nan

>  <Peripheral>  (333) 
nan

>  <Num_H_Atoms_ProtBoundConf>  (333) 
nan

>  <Num_Resolved_Atoms>  (333) 
nan

>  <Num_Not_Resolved_Atoms>  (333) 
nan

$$$$
CHEMBL1549957
     RDKit          3D

  0  0  0  0  0  0  0  0  0  0999 V3000
M  V30 BEGIN CTAB
M  V30 COUNTS 56 58 0 0 0
M  V30 BEGIN ATOM
M  V30 1 C 2.910724 0.936028 3.862149 0
M  V30 2 C 3.998622 0.025589 3.519633 0
M  V30 3 C 4.467112 -0.885488 4.432261 0
M  V30 4 C 5.507811 -1.738779 4.146921 0
M  V30 5 C 6.063910 -1.636367 2.891156 0
M  V30 6 C 5.568231 -0.710896 2.000110 0
M  V30 7 C 4.505172 0.177646 2.256716 0
M  V30 8 C 4.186554 1.027158 1.085818 0
M  V30 9 N 3.120544 0.595380 0.264959 0
M  V30 10 C 1.744113 0.528185 0.041228 0
M  V30 11 C 0.937877 1.172618 0.953421 0
M  V30 12 C -0.435754 1.203838 0.831917 0
M  V30 13 C -1.053561 0.578344 -0.228426 0
M  V30 14 C -2.496630 0.518865 -0.501002 0
M  V30 15 C -3.242704 0.940930 0.745299 0
M  V30 16 C -2.857083 -0.012749 1.815359 0
M  V30 17 N -3.546925 0.367649 3.009341 0
M  V30 18 O -2.249365 -0.998951 2.291625 0
M  V30 19 N -2.964684 -0.800165 -0.895529 0
M  V30 20 C -3.631407 -1.101423 -2.115456 0
M  V30 21 O -3.831817 -0.154356 -2.916014 0
M  V30 22 C -4.077291 -2.449845 -2.450225 0
M  V30 23 C -4.720403 -2.562759 -3.671399 0
M  V30 24 C -5.195582 -3.806012 -4.104151 0
M  V30 25 C -4.993018 -4.881227 -3.270166 0
M  V30 26 C -4.347194 -4.773111 -2.041801 0
M  V30 27 C -3.877311 -3.529765 -1.619383 0
M  V30 28 C -0.260508 -0.067719 -1.145969 0
M  V30 29 C 1.098804 -0.087025 -1.007255 0
M  V30 30 N 1.877204 -0.756154 -1.969345 0 CHG=1 VAL=4
M  V30 31 O 2.947981 -0.787235 -2.575752 0
M  V30 32 O 1.471279 -1.877027 -2.667779 0 CHG=-1 VAL=1
M  V30 33 H 1.961732 0.425557 3.682704 0
M  V30 34 H 2.989119 1.162331 4.951966 0
M  V30 35 H 3.022503 1.923544 3.364502 0
M  V30 36 H 3.972816 -0.896732 5.390966 0
M  V30 37 H 5.788454 -2.402511 4.926991 0
M  V30 38 H 6.878276 -2.308448 2.677398 0
M  V30 39 H 6.099864 -0.742439 1.055468 0
M  V30 40 H 3.859787 2.053865 1.475608 0
M  V30 41 H 5.106110 1.206864 0.497430 0
M  V30 42 H 3.590511 0.078903 -0.545296 0
M  V30 43 H 1.208098 1.723384 1.821240 0
M  V30 44 H -1.121950 1.690067 1.509215 0
M  V30 45 H -2.723081 1.292003 -1.290899 0
M  V30 46 H -4.344526 0.856117 0.613613 0
M  V30 47 H -3.047048 1.978072 1.021614 0
M  V30 48 H -4.348979 0.958147 3.257936 0
M  V30 49 H -3.929079 0.540610 3.959756 0
M  V30 50 H -2.766582 -1.539804 -0.186783 0
M  V30 51 H -4.913699 -1.765100 -4.374989 0
M  V30 52 H -5.708859 -3.990102 -5.039765 0
M  V30 53 H -5.338962 -5.865656 -3.553291 0
M  V30 54 H -4.202190 -5.654175 -1.400364 0
M  V30 55 H -3.372373 -3.414258 -0.672428 0
M  V30 56 H -0.661136 -0.571282 -1.988011 0
M  V30 END ATOM
M  V30 BEGIN BOND
M  V30 1 1 1 2
M  V30 2 2 2 3
M  V30 3 1 3 4
M  V30 4 2 4 5
M  V30 5 1 5 6
M  V30 6 2 6 7
M  V30 7 1 7 8
M  V30 8 1 8 9
M  V30 9 1 9 10
M  V30 10 2 10 11
M  V30 11 1 11 12
M  V30 12 2 12 13
M  V30 13 1 13 14
M  V30 14 1 14 15
M  V30 15 1 15 16
M  V30 16 1 16 17
M  V30 17 2 16 18
M  V30 18 1 14 19
M  V30 19 1 19 20
M  V30 20 2 20 21
M  V30 21 1 20 22
M  V30 22 2 22 23
M  V30 23 1 23 24
M  V30 24 2 24 25
M  V30 25 1 25 26
M  V30 26 2 26 27
M  V30 27 1 13 28
M  V30 28 2 28 29
M  V30 29 1 29 30
M  V30 30 2 30 31
M  V30 31 1 30 32
M  V30 32 1 7 2
M  V30 33 1 29 10
M  V30 34 1 27 22
M  V30 35 1 1 33
M  V30 36 1 1 34
M  V30 37 1 1 35
M  V30 38 1 3 36
M  V30 39 1 4 37
M  V30 40 1 5 38
M  V30 41 1 6 39
M  V30 42 1 8 40
M  V30 43 1 8 41
M  V30 44 1 9 42
M  V30 45 1 11 43
M  V30 46 1 12 44
M  V30 47 1 14 45
M  V30 48 1 15 46
M  V30 49 1 15 47
M  V30 50 1 17 48
M  V30 51 1 17 49
M  V30 52 1 19 50
M  V30 53 1 23 51
M  V30 54 1 24 52
M  V30 55 1 25 53
M  V30 56 1 26 54
M  V30 57 1 27 55
M  V30 58 1 28 56
M  V30 END BOND
M  V30 END CTAB
M  END
>  <Dataset>  (334) 
ChEMBL_Kinases

>  <Ligand_Instance>  (334) 
nan

>  <PDB_ID>  (334) 
nan

>  <Standardized_SMILES>  (334) 
Cc1ccccc1CNc1ccc(C(CC(N)=O)NC(=O)c2ccccc2)cc1[N+](=O)[O-]

>  <Name>  (334) 
nan

>  <Pocket>  (334) 
nan

>  <ATP_Site>  (334) 
nan

>  <Peripheral>  (334) 
nan

>  <Num_H_Atoms_ProtBoundConf>  (334) 
nan

>  <Num_Resolved_Atoms>  (334) 
nan

>  <Num_Not_Resolved_Atoms>  (334) 
nan

$$$$
CHEMBL1549942
     RDKit          3D

  0  0  0  0  0  0  0  0  0  0999 V3000
M  V30 BEGIN CTAB
M  V30 COUNTS 50 54 0 0 0
M  V30 BEGIN ATOM
M  V30 1 O 4.611033 -3.469021 -2.340048 0
M  V30 2 C 3.527656 -3.504513 -1.677976 0
M  V30 3 O 2.596282 -4.460464 -2.072876 0
M  V30 4 C 3.029883 -2.693612 -0.512029 0
M  V30 5 C 2.781635 -3.659189 0.615553 0
M  V30 6 C 2.260024 -2.895197 1.814262 0
M  V30 7 C 3.311101 -1.886712 2.204930 0
M  V30 8 C 3.599906 -0.946373 1.061322 0
M  V30 9 C 4.081894 -1.690055 -0.175639 0
M  V30 10 C 2.320507 -0.278299 0.677001 0
M  V30 11 C 1.220867 -1.264005 0.283816 0
M  V30 12 N 0.050377 -0.466868 0.026106 0
M  V30 13 N -0.210749 0.492217 0.916576 0
M  V30 14 C -1.281240 1.304389 0.780818 0
M  V30 15 C -2.182639 1.225431 -0.258929 0
M  V30 16 N -3.299323 2.084173 -0.403953 0
M  V30 17 C -3.749499 3.152677 0.433921 0
M  V30 18 C -4.191615 2.709822 1.787914 0
M  V30 19 C -5.519533 2.327739 2.001144 0
M  V30 20 C -5.741161 1.952753 3.304378 0
M  V30 21 C -4.495158 2.126342 3.857508 0
M  V30 22 O -3.653087 2.552670 2.972681 0
M  V30 23 C -1.896508 0.215202 -1.185449 0
M  V30 24 Cl -2.952740 -0.003265 -2.557114 0
M  V30 25 C -0.799136 -0.583715 -1.005642 0
M  V30 26 O -0.561944 -1.471068 -1.834289 0
M  V30 27 C 0.981397 -2.201147 1.464436 0
M  V30 28 C 1.691295 -2.083464 -0.874832 0
M  V30 29 H 2.826875 -5.241216 -2.680066 0
M  V30 30 H 3.702105 -4.185662 0.926641 0
M  V30 31 H 1.985301 -4.371528 0.266818 0
M  V30 32 H 2.123232 -3.568034 2.665486 0
M  V30 33 H 4.218422 -2.358071 2.610444 0
M  V30 34 H 2.894099 -1.262232 3.022682 0
M  V30 35 H 4.286141 -0.182312 1.420941 0
M  V30 36 H 4.138743 -0.955932 -0.997359 0
M  V30 37 H 5.025543 -2.213085 -0.031943 0
M  V30 38 H 2.487018 0.331076 -0.253605 0
M  V30 39 H 1.928064 0.391246 1.474745 0
M  V30 40 H -1.403714 2.051495 1.548778 0
M  V30 41 H -3.890235 1.908783 -1.261334 0
M  V30 42 H -4.566504 3.735211 -0.012910 0
M  V30 43 H -2.892263 3.887979 0.555835 0
M  V30 44 H -6.333424 2.308554 1.256187 0
M  V30 45 H -6.614683 1.613186 3.803975 0
M  V30 46 H -4.154798 1.957442 4.889660 0
M  V30 47 H 0.604388 -1.649281 2.342075 0
M  V30 48 H 0.220144 -2.941132 1.145738 0
M  V30 49 H 1.015745 -2.976205 -1.017304 0
M  V30 50 H 1.771801 -1.508167 -1.809812 0
M  V30 END ATOM
M  V30 BEGIN BOND
M  V30 1 2 1 2
M  V30 2 1 2 3
M  V30 3 1 2 4
M  V30 4 1 4 5
M  V30 5 1 5 6
M  V30 6 1 6 7
M  V30 7 1 7 8
M  V30 8 1 8 9
M  V30 9 1 8 10
M  V30 10 1 10 11
M  V30 11 1 11 12
M  V30 12 1 12 13
M  V30 13 2 13 14
M  V30 14 1 14 15
M  V30 15 1 15 16
M  V30 16 1 16 17
M  V30 17 1 17 18
M  V30 18 2 18 19
M  V30 19 1 19 20
M  V30 20 2 20 21
M  V30 21 1 21 22
M  V30 22 2 15 23
M  V30 23 1 23 24
M  V30 24 1 23 25
M  V30 25 2 25 26
M  V30 26 1 11 27
M  V30 27 1 11 28
M  V30 28 1 9 4
M  V30 29 1 25 12
M  V30 30 1 28 4
M  V30 31 1 27 6
M  V30 32 1 22 18
M  V30 33 1 3 29
M  V30 34 1 5 30
M  V30 35 1 5 31
M  V30 36 1 6 32
M  V30 37 1 7 33
M  V30 38 1 7 34
M  V30 39 1 8 35
M  V30 40 1 9 36
M  V30 41 1 9 37
M  V30 42 1 10 38
M  V30 43 1 10 39
M  V30 44 1 14 40
M  V30 45 1 16 41
M  V30 46 1 17 42
M  V30 47 1 17 43
M  V30 48 1 19 44
M  V30 49 1 20 45
M  V30 50 1 21 46
M  V30 51 1 27 47
M  V30 52 1 27 48
M  V30 53 1 28 49
M  V30 54 1 28 50
M  V30 END BOND
M  V30 END CTAB
M  END
>  <Dataset>  (335) 
ChEMBL_Kinases

>  <Ligand_Instance>  (335) 
nan

>  <PDB_ID>  (335) 
nan

>  <Standardized_SMILES>  (335) 
O=C(O)C12CC3CC(C1)CC(n1ncc(NCc4ccco4)c(Cl)c1=O)(C3)C2

>  <Name>  (335) 
nan

>  <Pocket>  (335) 
nan

>  <ATP_Site>  (335) 
nan

>  <Peripheral>  (335) 
nan

>  <Num_H_Atoms_ProtBoundConf>  (335) 
nan

>  <Num_Resolved_Atoms>  (335) 
nan

>  <Num_Not_Resolved_Atoms>  (335) 
nan

$$$$
CHEMBL1549745
     RDKit          3D

  0  0  0  0  0  0  0  0  0  0999 V3000
M  V30 BEGIN CTAB
M  V30 COUNTS 56 58 0 0 0
M  V30 BEGIN ATOM
M  V30 1 C 5.920613 -6.093211 -1.852061 0
M  V30 2 O 4.586723 -5.671851 -1.818682 0
M  V30 3 C 4.168764 -4.375526 -1.578017 0
M  V30 4 C 5.012615 -3.325590 -1.338846 0
M  V30 5 C 4.523849 -2.035140 -1.101983 0
M  V30 6 C 3.164848 -1.797987 -1.105939 0
M  V30 7 N 2.705213 -0.469341 -0.860437 0
M  V30 8 C 3.618697 0.634788 -0.609292 0
M  V30 9 C 2.691601 1.631181 0.058150 0
M  V30 10 C 1.443796 0.838344 0.429101 0
M  V30 11 C 0.253636 1.719841 0.647807 0
M  V30 12 N -0.928560 0.954717 1.000418 0
M  V30 13 C -0.838000 0.229264 2.088370 0
M  V30 14 S 0.313319 -0.197401 3.411294 0
M  V30 15 N -2.081955 -0.442116 2.269149 0
M  V30 16 C -3.415837 -0.094580 1.840688 0
M  V30 17 C -4.050436 -0.426983 0.662179 0
M  V30 18 C -3.227994 -1.248423 -0.263198 0
M  V30 19 C -5.323914 -0.001526 0.437012 0
M  V30 20 C -6.018636 0.765630 1.362146 0
M  V30 21 C -7.409347 1.220499 1.097635 0
M  V30 22 C -5.407347 1.118203 2.560757 0
M  V30 23 C -4.112854 0.674544 2.767737 0
M  V30 24 C -3.519152 1.095158 4.084784 0
M  V30 25 C 1.319580 -0.013135 -0.820764 0
M  V30 26 C 2.306683 -2.852202 -1.346496 0
M  V30 27 C 2.819582 -4.112355 -1.576466 0
M  V30 28 H 6.642778 -5.301757 -2.114082 0
M  V30 29 H 6.200886 -6.436725 -0.833502 0
M  V30 30 H 6.054272 -6.900141 -2.616080 0
M  V30 31 H 6.076927 -3.502995 -1.334092 0
M  V30 32 H 5.283604 -1.269378 -0.922146 0
M  V30 33 H 4.069412 1.036697 -1.547521 0
M  V30 34 H 4.458855 0.336534 0.044435 0
M  V30 35 H 2.354196 2.357352 -0.724505 0
M  V30 36 H 3.153870 2.129879 0.919342 0
M  V30 37 H 1.641991 0.153938 1.263748 0
M  V30 38 H 0.044602 2.297180 -0.263930 0
M  V30 39 H 0.489404 2.429526 1.455319 0
M  V30 40 H 1.098700 0.966599 3.616209 0
M  V30 41 H -2.339907 -1.351785 2.755801 0
M  V30 42 H -3.903813 -1.796809 -0.981601 0
M  V30 43 H -2.704732 -2.021231 0.308040 0
M  V30 44 H -2.587025 -0.624936 -0.917376 0
M  V30 45 H -5.783296 -0.283296 -0.496769 0
M  V30 46 H -8.060159 0.750252 1.889206 0
M  V30 47 H -7.482930 2.329547 1.113102 0
M  V30 48 H -7.732313 0.840892 0.109889 0
M  V30 49 H -5.942632 1.716587 3.287844 0
M  V30 50 H -2.653620 0.402720 4.275905 0
M  V30 51 H -3.174764 2.153723 4.026273 0
M  V30 52 H -4.231133 0.933253 4.895446 0
M  V30 53 H 0.654318 -0.861911 -0.696695 0
M  V30 54 H 1.106458 0.605078 -1.716406 0
M  V30 55 H 1.247695 -2.698001 -1.355668 0
M  V30 56 H 2.126376 -4.921455 -1.762382 0
M  V30 END ATOM
M  V30 BEGIN BOND
M  V30 1 1 1 2
M  V30 2 1 2 3
M  V30 3 2 3 4
M  V30 4 1 4 5
M  V30 5 2 5 6
M  V30 6 1 6 7
M  V30 7 1 7 8
M  V30 8 1 8 9
M  V30 9 1 9 10
M  V30 10 1 10 11
M  V30 11 1 11 12
M  V30 12 2 12 13 CFG=2
M  V30 13 1 13 14
M  V30 14 1 13 15
M  V30 15 1 15 16
M  V30 16 2 16 17
M  V30 17 1 17 18
M  V30 18 1 17 19
M  V30 19 2 19 20
M  V30 20 1 20 21
M  V30 21 1 20 22
M  V30 22 2 22 23
M  V30 23 1 23 24
M  V30 24 1 10 25
M  V30 25 1 6 26
M  V30 26 2 26 27
M  V30 27 1 27 3
M  V30 28 1 25 7
M  V30 29 1 23 16
M  V30 30 1 1 28
M  V30 31 1 1 29
M  V30 32 1 1 30
M  V30 33 1 4 31
M  V30 34 1 5 32
M  V30 35 1 8 33
M  V30 36 1 8 34
M  V30 37 1 9 35
M  V30 38 1 9 36
M  V30 39 1 10 37
M  V30 40 1 11 38
M  V30 41 1 11 39
M  V30 42 1 14 40
M  V30 43 1 15 41
M  V30 44 1 18 42
M  V30 45 1 18 43
M  V30 46 1 18 44
M  V30 47 1 19 45
M  V30 48 1 21 46
M  V30 49 1 21 47
M  V30 50 1 21 48
M  V30 51 1 22 49
M  V30 52 1 24 50
M  V30 53 1 24 51
M  V30 54 1 24 52
M  V30 55 1 25 53
M  V30 56 1 25 54
M  V30 57 1 26 55
M  V30 58 1 27 56
M  V30 END BOND
M  V30 END CTAB
M  END
>  <Dataset>  (336) 
ChEMBL_Kinases

>  <Ligand_Instance>  (336) 
nan

>  <PDB_ID>  (336) 
nan

>  <Standardized_SMILES>  (336) 
COc1ccc(N2CCC(CN=C(S)Nc3c(C)cc(C)cc3C)C2)cc1

>  <Name>  (336) 
nan

>  <Pocket>  (336) 
nan

>  <ATP_Site>  (336) 
nan

>  <Peripheral>  (336) 
nan

>  <Num_H_Atoms_ProtBoundConf>  (336) 
nan

>  <Num_Resolved_Atoms>  (336) 
nan

>  <Num_Not_Resolved_Atoms>  (336) 
nan

$$$$
CHEMBL1549693
     RDKit          3D

  0  0  0  0  0  0  0  0  0  0999 V3000
M  V30 BEGIN CTAB
M  V30 COUNTS 35 37 0 0 0
M  V30 BEGIN ATOM
M  V30 1 C 0.438072 2.875162 1.573624 0
M  V30 2 C 1.013985 1.883467 2.538140 0
M  V30 3 C 1.437547 0.631397 1.814783 0
M  V30 4 C 1.552192 0.860954 0.312242 0
M  V30 5 S 2.228969 -0.667872 -0.387435 0
M  V30 6 C 0.941297 -1.932155 -0.426250 0 CFG=1
M  V30 7 C 0.908872 -2.786614 0.804484 0
M  V30 8 C -0.500925 -3.211930 1.186587 0
M  V30 9 C -1.244149 -3.472387 -0.098396 0
M  V30 10 C -1.533653 -2.160202 -0.792391 0
M  V30 11 C -0.365363 -1.218406 -0.695073 0
M  V30 12 N -0.603978 -0.125244 0.217307 0
M  V30 13 C 0.121606 1.083331 -0.166291 0
M  V30 14 C -0.453871 2.271782 0.534198 0
M  V30 15 H -0.191639 3.575529 2.179186 0
M  V30 16 H 1.216035 3.518934 1.092090 0
M  V30 17 H 0.278559 1.654589 3.350571 0
M  V30 18 H 1.884307 2.333967 3.036892 0
M  V30 19 H 2.398178 0.221059 2.156352 0
M  V30 20 H 0.584995 -0.077973 1.935094 0
M  V30 21 H 2.200844 1.709173 0.058865 0
M  V30 22 H 1.094715 -2.621550 -1.294865 0
M  V30 23 H 1.413647 -2.326772 1.683734 0
M  V30 24 H 1.468329 -3.742762 0.641594 0
M  V30 25 H -0.468102 -4.165652 1.760637 0
M  V30 26 H -1.032758 -2.448367 1.768268 0
M  V30 27 H -2.214800 -3.963665 0.127949 0
M  V30 28 H -0.630540 -4.122958 -0.758091 0
M  V30 29 H -2.459814 -1.714328 -0.349452 0
M  V30 30 H -1.758109 -2.419134 -1.854018 0
M  V30 31 H -0.243985 -0.751036 -1.706951 0
M  V30 32 H -1.617202 0.075623 0.251785 0
M  V30 33 H 0.120884 1.238553 -1.262981 0
M  V30 34 H -1.428605 2.042106 1.011007 0
M  V30 35 H -0.661378 3.081923 -0.213904 0
M  V30 END ATOM
M  V30 BEGIN BOND
M  V30 1 1 1 2
M  V30 2 1 2 3
M  V30 3 1 3 4
M  V30 4 1 4 5
M  V30 5 1 5 6
M  V30 6 1 6 7
M  V30 7 1 7 8
M  V30 8 1 8 9
M  V30 9 1 9 10
M  V30 10 1 10 11
M  V30 11 1 11 12
M  V30 12 1 12 13
M  V30 13 1 13 14
M  V30 14 1 14 1
M  V30 15 1 13 4
M  V30 16 1 11 6
M  V30 17 1 1 15
M  V30 18 1 1 16
M  V30 19 1 2 17
M  V30 20 1 2 18
M  V30 21 1 3 19
M  V30 22 1 3 20
M  V30 23 1 4 21
M  V30 24 1 6 22 CFG=3
M  V30 25 1 7 23
M  V30 26 1 7 24
M  V30 27 1 8 25
M  V30 28 1 8 26
M  V30 29 1 9 27
M  V30 30 1 9 28
M  V30 31 1 10 29
M  V30 32 1 10 30
M  V30 33 1 11 31
M  V30 34 1 12 32
M  V30 35 1 13 33
M  V30 36 1 14 34
M  V30 37 1 14 35
M  V30 END BOND
M  V30 END CTAB
M  END
>  <Dataset>  (337) 
ChEMBL_Kinases

>  <Ligand_Instance>  (337) 
nan

>  <PDB_ID>  (337) 
nan

>  <Standardized_SMILES>  (337) 
C1CCC2S[C@H]3CCCCC3NC2C1

>  <Name>  (337) 
nan

>  <Pocket>  (337) 
nan

>  <ATP_Site>  (337) 
nan

>  <Peripheral>  (337) 
nan

>  <Num_H_Atoms_ProtBoundConf>  (337) 
nan

>  <Num_Resolved_Atoms>  (337) 
nan

>  <Num_Not_Resolved_Atoms>  (337) 
nan

$$$$
CHEMBL1549624
     RDKit          3D

  0  0  0  0  0  0  0  0  0  0999 V3000
M  V30 BEGIN CTAB
M  V30 COUNTS 43 45 0 0 0
M  V30 BEGIN ATOM
M  V30 1 O 1.209233 0.260902 0.817857 0
M  V30 2 C 1.984322 0.182629 1.831021 0
M  V30 3 C 3.386438 -0.329808 1.788976 0
M  V30 4 O 3.612031 -0.683021 0.413311 0
M  V30 5 C 3.521338 0.235355 -0.601462 0
M  V30 6 O 3.235026 1.440983 -0.385039 0
M  V30 7 C 3.752658 -0.136350 -1.992640 0
M  V30 8 C 3.653014 0.813890 -2.989121 0
M  V30 9 C 3.844637 0.598052 -4.327274 0
M  V30 10 N 4.158815 -0.658313 -4.698715 0 CHG=1 VAL=4
M  V30 11 O 4.364571 -0.952249 -6.009922 0 CHG=-1 VAL=1
M  V30 12 C 4.265812 -1.616192 -3.754885 0
M  V30 13 C 4.075406 -1.411054 -2.406395 0
M  V30 14 N 1.354866 0.644830 3.023562 0
M  V30 15 C 0.013877 1.065789 2.714263 0
M  V30 16 C -0.136482 2.395039 2.356122 0
M  V30 17 C -1.410306 2.826490 2.054332 0
M  V30 18 C -2.448108 1.918781 2.126159 0
M  V30 19 C -2.281455 0.591879 2.486177 0
M  V30 20 C -1.010671 0.146962 2.790903 0
M  V30 21 S -0.737221 -1.548011 3.259975 0
M  V30 22 C -2.307505 -2.400537 3.237307 0
M  V30 23 C -2.582554 -2.964667 1.990480 0
M  V30 24 C -3.773590 -3.670222 1.796722 0
M  V30 25 C -4.661502 -3.799201 2.841815 0
M  V30 26 C -4.374295 -3.236059 4.066076 0
M  V30 27 C -3.203183 -2.534942 4.278664 0
M  V30 28 H 4.118064 0.387638 2.159117 0
M  V30 29 H 3.504374 -1.261566 2.389731 0
M  V30 30 H 3.398320 1.854034 -2.731750 0
M  V30 31 H 3.756587 1.370849 -5.072763 0
M  V30 32 H 4.520133 -2.628630 -4.064781 0
M  V30 33 H 4.162493 -2.179351 -1.661094 0
M  V30 34 H 1.946909 0.606675 3.906717 0
M  V30 35 H 0.708683 3.068260 2.314282 0
M  V30 36 H -1.564051 3.862251 1.769726 0
M  V30 37 H -3.469319 2.223039 1.894720 0
M  V30 38 H -3.113273 -0.095038 2.533500 0
M  V30 39 H -1.964143 -2.926436 1.107986 0
M  V30 40 H -4.023946 -4.128526 0.827163 0
M  V30 41 H -5.591570 -4.344072 2.708752 0
M  V30 42 H -5.037483 -3.310557 4.912091 0
M  V30 43 H -2.881980 -2.058909 5.187126 0
M  V30 END ATOM
M  V30 BEGIN BOND
M  V30 1 2 1 2
M  V30 2 1 2 3
M  V30 3 1 3 4
M  V30 4 1 4 5
M  V30 5 2 5 6
M  V30 6 1 5 7
M  V30 7 2 7 8
M  V30 8 1 8 9
M  V30 9 2 9 10
M  V30 10 1 10 11
M  V30 11 1 10 12
M  V30 12 2 12 13
M  V30 13 1 2 14
M  V30 14 1 14 15
M  V30 15 2 15 16
M  V30 16 1 16 17
M  V30 17 2 17 18
M  V30 18 1 18 19
M  V30 19 2 19 20
M  V30 20 1 20 21
M  V30 21 1 21 22
M  V30 22 2 22 23
M  V30 23 1 23 24
M  V30 24 2 24 25
M  V30 25 1 25 26
M  V30 26 2 26 27
M  V30 27 1 13 7
M  V30 28 1 20 15
M  V30 29 1 27 22
M  V30 30 1 3 28
M  V30 31 1 3 29
M  V30 32 1 8 30
M  V30 33 1 9 31
M  V30 34 1 12 32
M  V30 35 1 13 33
M  V30 36 1 14 34
M  V30 37 1 16 35
M  V30 38 1 17 36
M  V30 39 1 18 37
M  V30 40 1 19 38
M  V30 41 1 23 39
M  V30 42 1 24 40
M  V30 43 1 25 41
M  V30 44 1 26 42
M  V30 45 1 27 43
M  V30 END BOND
M  V30 END CTAB
M  END
>  <Dataset>  (338) 
ChEMBL_Kinases

>  <Ligand_Instance>  (338) 
nan

>  <PDB_ID>  (338) 
nan

>  <Standardized_SMILES>  (338) 
O=C(COC(=O)c1cc[n+]([O-])cc1)Nc1ccccc1Sc1ccccc1

>  <Name>  (338) 
nan

>  <Pocket>  (338) 
nan

>  <ATP_Site>  (338) 
nan

>  <Peripheral>  (338) 
nan

>  <Num_H_Atoms_ProtBoundConf>  (338) 
nan

>  <Num_Resolved_Atoms>  (338) 
nan

>  <Num_Not_Resolved_Atoms>  (338) 
nan

$$$$
CHEMBL1549583
     RDKit          3D

  0  0  0  0  0  0  0  0  0  0999 V3000
M  V30 BEGIN CTAB
M  V30 COUNTS 48 51 0 0 0
M  V30 BEGIN ATOM
M  V30 1 C -0.384162 0.146325 3.053642 0
M  V30 2 C -0.681614 -1.257086 3.487226 0
M  V30 3 N -0.710672 -2.184407 2.347008 0
M  V30 4 C 0.327311 -2.906786 1.892310 0
M  V30 5 S 2.007501 -2.846046 2.448730 0
M  V30 6 C 3.104861 -1.874426 1.472460 0
M  V30 7 C 2.915453 -0.449684 1.305793 0
M  V30 8 O 2.293203 -0.083707 0.224620 0
M  V30 9 N 3.181039 0.832941 1.932226 0
M  V30 10 C 2.665016 1.818898 1.035906 0
M  V30 11 C 1.477799 2.486322 0.949427 0
M  V30 12 C 1.253972 3.362168 -0.078809 0
M  V30 13 C 2.250680 3.543361 -1.005213 0
M  V30 14 C 3.494571 2.907251 -0.994869 0
M  V30 15 C 3.671969 2.019993 0.077698 0
M  V30 16 O 4.185923 3.390911 -2.115881 0
M  V30 17 C 3.203870 3.847629 -3.068163 0
M  V30 18 O 2.245429 4.379548 -2.134744 0
M  V30 19 N -0.182636 -3.647476 0.866115 0
M  V30 20 C -1.491578 -3.357325 0.726459 0
M  V30 21 C -1.853937 -2.406418 1.682829 0
M  V30 22 C -3.159731 -1.983090 1.687657 0
M  V30 23 O -3.417046 -1.124235 2.577455 0
M  V30 24 N -4.112978 -2.404186 0.854549 0
M  V30 25 C -5.464735 -1.845052 1.005487 0
M  V30 26 C -3.757525 -3.324445 -0.069808 0
M  V30 27 O -4.645828 -3.733157 -0.862288 0
M  V30 28 N -2.482972 -3.761582 -0.102279 0
M  V30 29 C -2.181422 -4.742995 -1.136938 0
M  V30 30 H -1.170429 0.868159 3.382100 0
M  V30 31 H -0.276012 0.154490 1.940971 0
M  V30 32 H 0.589225 0.469264 3.461439 0
M  V30 33 H 0.079061 -1.629982 4.227701 0
M  V30 34 H -1.635235 -1.272587 4.042880 0
M  V30 35 H 4.192436 -2.023239 1.807621 0
M  V30 36 H 3.183695 -2.302553 0.408749 0
M  V30 37 H 3.652144 0.620240 2.840751 0
M  V30 38 H 0.803065 2.255121 1.743867 0
M  V30 39 H 0.306228 3.871783 -0.116182 0
M  V30 40 H 4.666374 1.579432 -0.000114 0
M  V30 41 H 3.571855 4.615269 -3.736649 0
M  V30 42 H 2.809757 2.934451 -3.573962 0
M  V30 43 H -5.697032 -1.699766 2.091932 0
M  V30 44 H -5.476842 -0.824817 0.570559 0
M  V30 45 H -6.242267 -2.516449 0.616873 0
M  V30 46 H -2.927594 -5.577816 -1.158505 0
M  V30 47 H -1.192199 -5.206820 -0.960835 0
M  V30 48 H -2.243970 -4.284634 -2.153076 0
M  V30 END ATOM
M  V30 BEGIN BOND
M  V30 1 1 1 2
M  V30 2 1 2 3
M  V30 3 1 3 4
M  V30 4 1 4 5
M  V30 5 1 5 6
M  V30 6 1 6 7
M  V30 7 2 7 8
M  V30 8 1 7 9
M  V30 9 1 9 10
M  V30 10 2 10 11
M  V30 11 1 11 12
M  V30 12 2 12 13
M  V30 13 1 13 14
M  V30 14 2 14 15
M  V30 15 1 14 16
M  V30 16 1 16 17
M  V30 17 1 17 18
M  V30 18 2 4 19
M  V30 19 1 19 20
M  V30 20 2 20 21
M  V30 21 1 21 22
M  V30 22 2 22 23
M  V30 23 1 22 24
M  V30 24 1 24 25
M  V30 25 1 24 26
M  V30 26 2 26 27
M  V30 27 1 26 28
M  V30 28 1 28 29
M  V30 29 1 21 3
M  V30 30 1 15 10
M  V30 31 1 28 20
M  V30 32 1 18 13
M  V30 33 1 1 30
M  V30 34 1 1 31
M  V30 35 1 1 32
M  V30 36 1 2 33
M  V30 37 1 2 34
M  V30 38 1 6 35
M  V30 39 1 6 36
M  V30 40 1 9 37
M  V30 41 1 11 38
M  V30 42 1 12 39
M  V30 43 1 15 40
M  V30 44 1 17 41
M  V30 45 1 17 42
M  V30 46 1 25 43
M  V30 47 1 25 44
M  V30 48 1 25 45
M  V30 49 1 29 46
M  V30 50 1 29 47
M  V30 51 1 29 48
M  V30 END BOND
M  V30 END CTAB
M  END
>  <Dataset>  (339) 
ChEMBL_Kinases

>  <Ligand_Instance>  (339) 
nan

>  <PDB_ID>  (339) 
nan

>  <Standardized_SMILES>  (339) 
CCn1c(SCC(=O)Nc2ccc3c(c2)OCO3)nc2c1c(=O)n(C)c(=O)n2C

>  <Name>  (339) 
nan

>  <Pocket>  (339) 
nan

>  <ATP_Site>  (339) 
nan

>  <Peripheral>  (339) 
nan

>  <Num_H_Atoms_ProtBoundConf>  (339) 
nan

>  <Num_Resolved_Atoms>  (339) 
nan

>  <Num_Not_Resolved_Atoms>  (339) 
nan

$$$$
CHEMBL1549476
     RDKit          3D

  0  0  0  0  0  0  0  0  0  0999 V3000
M  V30 BEGIN CTAB
M  V30 COUNTS 56 59 0 0 0
M  V30 BEGIN ATOM
M  V30 1 C 1.670155 -5.947905 4.932681 0
M  V30 2 O 1.027604 -5.677034 3.703820 0
M  V30 3 C 1.045549 -4.370925 3.236461 0
M  V30 4 C 1.684084 -3.364609 3.971045 0
M  V30 5 C 1.749660 -2.034004 3.577407 0
M  V30 6 C 1.152035 -1.669738 2.390138 0
M  V30 7 C 1.206120 -0.284264 1.952965 0
M  V30 8 O 1.824381 0.481374 2.717376 0
M  V30 9 N 0.640949 0.245277 0.784229 0
M  V30 10 C 0.647165 1.570578 0.286842 0
M  V30 11 C 1.234939 2.664289 0.864145 0
M  V30 12 C 1.223270 3.944858 0.353753 0
M  V30 13 C 0.566664 4.155436 -0.839894 0
M  V30 14 C 0.491095 5.474054 -1.473030 0
M  V30 15 C 1.061453 6.616170 -0.943089 0
M  V30 16 C 0.738745 7.603636 -1.868693 0
M  V30 17 C 0.001926 7.024710 -2.896780 0
M  V30 18 C -0.568933 7.674622 -4.113891 0
M  V30 19 O -0.118652 5.757207 -2.615784 0
M  V30 20 C -0.038740 3.081566 -1.454582 0
M  V30 21 C 0.000418 1.817757 -0.904113 0
M  V30 22 C 0.526454 -2.662188 1.672576 0
M  V30 23 C 0.439877 -3.987224 2.028431 0
M  V30 24 S -0.305712 -5.308948 1.186553 0
M  V30 25 O -1.138855 -6.050118 2.202535 0
M  V30 26 O 0.790056 -6.304770 0.797889 0
M  V30 27 N -1.141879 -4.930521 -0.220356 0
M  V30 28 C -2.265892 -4.077308 -0.145715 0
M  V30 29 C -3.486820 -4.704534 0.497917 0
M  V30 30 O -3.591243 -6.012960 0.063292 0
M  V30 31 C -2.945002 -6.250094 -1.122583 0
M  V30 32 C -1.441509 -6.094555 -1.011696 0
M  V30 33 H 1.631216 -7.009523 5.213252 0
M  V30 34 H 2.730980 -5.572977 4.927841 0
M  V30 35 H 1.179235 -5.349073 5.740975 0
M  V30 36 H 2.172703 -3.612944 4.922798 0
M  V30 37 H 2.268566 -1.322138 4.214868 0
M  V30 38 H 0.152051 -0.494096 0.232413 0
M  V30 39 H 1.755378 2.553172 1.788775 0
M  V30 40 H 1.706852 4.763777 0.859211 0
M  V30 41 H 1.627450 6.729602 -0.026516 0
M  V30 42 H 1.011576 8.670219 -1.814737 0
M  V30 43 H -1.604560 7.235453 -4.208381 0
M  V30 44 H -0.591137 8.760562 -4.029093 0
M  V30 45 H 0.035652 7.424854 -5.006991 0
M  V30 46 H -0.563386 3.207329 -2.391554 0
M  V30 47 H -0.502792 1.005403 -1.445844 0
M  V30 48 H 0.056842 -2.432544 0.731175 0
M  V30 49 H -2.102649 -3.049452 0.225346 0
M  V30 50 H -2.593896 -3.906178 -1.220795 0
M  V30 51 H -4.401329 -4.173215 0.137282 0
M  V30 52 H -3.475617 -4.599633 1.599941 0
M  V30 53 H -3.115830 -7.320707 -1.395889 0
M  V30 54 H -3.395711 -5.642440 -1.911387 0
M  V30 55 H -1.009566 -6.020601 -2.049034 0
M  V30 56 H -1.027883 -7.030548 -0.580658 0
M  V30 END ATOM
M  V30 BEGIN BOND
M  V30 1 1 1 2
M  V30 2 1 2 3
M  V30 3 2 3 4
M  V30 4 1 4 5
M  V30 5 2 5 6
M  V30 6 1 6 7
M  V30 7 2 7 8
M  V30 8 1 7 9
M  V30 9 1 9 10
M  V30 10 2 10 11
M  V30 11 1 11 12
M  V30 12 2 12 13
M  V30 13 1 13 14
M  V30 14 2 14 15
M  V30 15 1 15 16
M  V30 16 2 16 17
M  V30 17 1 17 18
M  V30 18 1 17 19
M  V30 19 1 13 20
M  V30 20 2 20 21
M  V30 21 1 6 22
M  V30 22 2 22 23
M  V30 23 1 23 24
M  V30 24 2 24 25
M  V30 25 2 24 26
M  V30 26 1 24 27
M  V30 27 1 27 28
M  V30 28 1 28 29
M  V30 29 1 29 30
M  V30 30 1 30 31
M  V30 31 1 31 32
M  V30 32 1 23 3
M  V30 33 1 32 27
M  V30 34 1 21 10
M  V30 35 1 19 14
M  V30 36 1 1 33
M  V30 37 1 1 34
M  V30 38 1 1 35
M  V30 39 1 4 36
M  V30 40 1 5 37
M  V30 41 1 9 38
M  V30 42 1 11 39
M  V30 43 1 12 40
M  V30 44 1 15 41
M  V30 45 1 16 42
M  V30 46 1 18 43
M  V30 47 1 18 44
M  V30 48 1 18 45
M  V30 49 1 20 46
M  V30 50 1 21 47
M  V30 51 1 22 48
M  V30 52 1 28 49
M  V30 53 1 28 50
M  V30 54 1 29 51
M  V30 55 1 29 52
M  V30 56 1 31 53
M  V30 57 1 31 54
M  V30 58 1 32 55
M  V30 59 1 32 56
M  V30 END BOND
M  V30 END CTAB
M  END
>  <Dataset>  (340) 
ChEMBL_Kinases

>  <Ligand_Instance>  (340) 
nan

>  <PDB_ID>  (340) 
nan

>  <Standardized_SMILES>  (340) 
COc1ccc(C(=O)Nc2ccc(-c3ccc(C)o3)cc2)cc1S(=O)(=O)N1CCOCC1

>  <Name>  (340) 
nan

>  <Pocket>  (340) 
nan

>  <ATP_Site>  (340) 
nan

>  <Peripheral>  (340) 
nan

>  <Num_H_Atoms_ProtBoundConf>  (340) 
nan

>  <Num_Resolved_Atoms>  (340) 
nan

>  <Num_Not_Resolved_Atoms>  (340) 
nan

$$$$
CHEMBL1549452
     RDKit          3D

  0  0  0  0  0  0  0  0  0  0999 V3000
M  V30 BEGIN CTAB
M  V30 COUNTS 38 40 0 0 0
M  V30 BEGIN ATOM
M  V30 1 N -1.969063 -1.009832 0.897491 0
M  V30 2 C -0.921243 -0.025185 0.863769 0
M  V30 3 C 0.361990 -0.375088 0.852144 0
M  V30 4 C 0.934700 -1.709953 0.869663 0
M  V30 5 O 0.176754 -2.707154 0.900297 0
M  V30 6 N 2.305008 -2.059123 0.856208 0
M  V30 7 C 2.314440 -3.490173 0.884329 0
M  V30 8 C 3.756708 -3.948570 0.900879 0
M  V30 9 C 4.446747 -3.373395 -0.314753 0
M  V30 10 C 4.269452 -1.898730 -0.439720 0
M  V30 11 C 3.577907 -1.367526 0.822568 0
M  V30 12 S 1.313629 1.117354 0.810109 0
M  V30 13 C -0.236028 2.207212 0.811423 0
M  V30 14 S -0.190514 3.819196 0.780030 0
M  V30 15 N -1.197386 1.282573 0.842767 0
M  V30 16 C -2.526902 1.850248 0.850904 0
M  V30 17 C -3.247343 1.776224 -0.323671 0
M  V30 18 C -4.524806 2.287304 -0.422011 0
M  V30 19 C -5.125032 2.900358 0.683843 0
M  V30 20 C -4.374531 2.960931 1.856323 0
M  V30 21 C -3.091055 2.448565 1.958587 0
M  V30 22 H -2.189037 -1.120525 1.926754 0
M  V30 23 H -2.513893 -1.452410 1.653744 0
M  V30 24 H 1.779102 -3.914615 -0.011297 0
M  V30 25 H 1.750109 -3.909217 1.750839 0
M  V30 26 H 3.827343 -5.055409 0.931598 0
M  V30 27 H 4.200733 -3.591024 1.848909 0
M  V30 28 H 4.054065 -3.840603 -1.231806 0
M  V30 29 H 5.524040 -3.597499 -0.185735 0
M  V30 30 H 5.263794 -1.417721 -0.496111 0
M  V30 31 H 3.614836 -1.601740 -1.288980 0
M  V30 32 H 3.404275 -0.291092 0.759997 0
M  V30 33 H 4.205886 -1.569873 1.734089 0
M  V30 34 H -2.884206 1.326151 -1.237283 0
M  V30 35 H -5.171137 2.281176 -1.289533 0
M  V30 36 H -6.126631 3.322646 0.673390 0
M  V30 37 H -4.803076 3.426232 2.731116 0
M  V30 38 H -2.514918 2.499153 2.871311 0
M  V30 END ATOM
M  V30 BEGIN BOND
M  V30 1 1 1 2
M  V30 2 2 2 3
M  V30 3 1 3 4
M  V30 4 2 4 5
M  V30 5 1 4 6
M  V30 6 1 6 7
M  V30 7 1 7 8
M  V30 8 1 8 9
M  V30 9 1 9 10
M  V30 10 1 10 11
M  V30 11 1 3 12
M  V30 12 1 12 13
M  V30 13 2 13 14
M  V30 14 1 13 15
M  V30 15 1 15 16
M  V30 16 2 16 17
M  V30 17 1 17 18
M  V30 18 2 18 19
M  V30 19 1 19 20
M  V30 20 2 20 21
M  V30 21 1 15 2
M  V30 22 1 21 16
M  V30 23 1 11 6
M  V30 24 1 1 22
M  V30 25 1 1 23
M  V30 26 1 7 24
M  V30 27 1 7 25
M  V30 28 1 8 26
M  V30 29 1 8 27
M  V30 30 1 9 28
M  V30 31 1 9 29
M  V30 32 1 10 30
M  V30 33 1 10 31
M  V30 34 1 11 32
M  V30 35 1 11 33
M  V30 36 1 17 34
M  V30 37 1 18 35
M  V30 38 1 19 36
M  V30 39 1 20 37
M  V30 40 1 21 38
M  V30 END BOND
M  V30 END CTAB
M  END
>  <Dataset>  (341) 
ChEMBL_Kinases

>  <Ligand_Instance>  (341) 
nan

>  <PDB_ID>  (341) 
nan

>  <Standardized_SMILES>  (341) 
Nc1c(C(=O)N2CCCCC2)sc(=S)n1-c1ccccc1

>  <Name>  (341) 
nan

>  <Pocket>  (341) 
nan

>  <ATP_Site>  (341) 
nan

>  <Peripheral>  (341) 
nan

>  <Num_H_Atoms_ProtBoundConf>  (341) 
nan

>  <Num_Resolved_Atoms>  (341) 
nan

>  <Num_Not_Resolved_Atoms>  (341) 
nan

$$$$
CHEMBL1547856
     RDKit          3D

  0  0  0  0  0  0  0  0  0  0999 V3000
M  V30 BEGIN CTAB
M  V30 COUNTS 35 37 0 0 0
M  V30 BEGIN ATOM
M  V30 1 C 3.533885 -2.145693 3.304255 0
M  V30 2 O 2.207914 -2.553143 3.016851 0
M  V30 3 C 1.543929 -1.925971 1.999444 0
M  V30 4 C 2.167526 -0.924650 1.283706 0
M  V30 5 C 1.556004 -0.261673 0.256986 0
M  V30 6 C 0.270051 -0.540139 -0.144346 0
M  V30 7 C -0.343335 -1.547626 0.583382 0
M  V30 8 C 0.252419 -2.231007 1.623030 0
M  V30 9 O -0.352959 -3.241220 2.357944 0
M  V30 10 C -1.692656 -3.606986 2.019356 0
M  V30 11 C -0.621837 0.004423 -1.195179 0
M  V30 12 C -1.543336 0.995087 -0.547280 0
M  V30 13 C -1.507883 2.353943 -0.327455 0
M  V30 14 C -2.651014 2.754689 0.331319 0
M  V30 15 C -3.362371 1.583972 0.492449 0
M  V30 16 O -2.695672 0.580727 -0.026588 0
M  V30 17 C 0.227763 0.735357 -2.203353 0
M  V30 18 C 1.391301 1.346776 -1.522980 0
M  V30 19 O 1.763192 2.526588 -1.860735 0
M  V30 20 N 2.197680 0.784927 -0.496690 0
M  V30 21 H 4.142571 -2.242683 2.364644 0
M  V30 22 H 3.566660 -1.078942 3.588772 0
M  V30 23 H 3.977839 -2.775604 4.123954 0
M  V30 24 H 3.181326 -0.599261 1.488872 0
M  V30 25 H -1.360835 -1.913754 0.419035 0
M  V30 26 H -2.376662 -2.724777 2.003125 0
M  V30 27 H -1.691725 -4.031817 0.992965 0
M  V30 28 H -2.108064 -4.322977 2.738038 0
M  V30 29 H -1.213831 -0.809364 -1.677153 0
M  V30 30 H -0.663039 2.932449 -0.661169 0
M  V30 31 H -2.870569 3.774318 0.623009 0
M  V30 32 H -4.328709 1.518614 0.978531 0
M  V30 33 H -0.402082 1.584854 -2.593300 0
M  V30 34 H 0.535350 0.065221 -3.036693 0
M  V30 35 H 3.165332 1.063890 -0.267455 0
M  V30 END ATOM
M  V30 BEGIN BOND
M  V30 1 1 1 2
M  V30 2 1 2 3
M  V30 3 2 3 4
M  V30 4 1 4 5
M  V30 5 2 5 6
M  V30 6 1 6 7
M  V30 7 2 7 8
M  V30 8 1 8 9
M  V30 9 1 9 10
M  V30 10 1 6 11
M  V30 11 1 11 12
M  V30 12 2 12 13
M  V30 13 1 13 14
M  V30 14 2 14 15
M  V30 15 1 15 16
M  V30 16 1 11 17
M  V30 17 1 17 18
M  V30 18 2 18 19
M  V30 19 1 18 20
M  V30 20 1 8 3
M  V30 21 1 16 12
M  V30 22 1 20 5
M  V30 23 1 1 21
M  V30 24 1 1 22
M  V30 25 1 1 23
M  V30 26 1 4 24
M  V30 27 1 7 25
M  V30 28 1 10 26
M  V30 29 1 10 27
M  V30 30 1 10 28
M  V30 31 1 11 29
M  V30 32 1 13 30
M  V30 33 1 14 31
M  V30 34 1 15 32
M  V30 35 1 17 33
M  V30 36 1 17 34
M  V30 37 1 20 35
M  V30 END BOND
M  V30 END CTAB
M  END
>  <Dataset>  (342) 
ChEMBL_Kinases

>  <Ligand_Instance>  (342) 
nan

>  <PDB_ID>  (342) 
nan

>  <Standardized_SMILES>  (342) 
COc1cc2c(cc1OC)C(c1ccco1)CC(=O)N2

>  <Name>  (342) 
nan

>  <Pocket>  (342) 
nan

>  <ATP_Site>  (342) 
nan

>  <Peripheral>  (342) 
nan

>  <Num_H_Atoms_ProtBoundConf>  (342) 
nan

>  <Num_Resolved_Atoms>  (342) 
nan

>  <Num_Not_Resolved_Atoms>  (342) 
nan

$$$$
CHEMBL1548104
     RDKit          3D

  0  0  0  0  0  0  0  0  0  0999 V3000
M  V30 BEGIN CTAB
M  V30 COUNTS 23 24 0 0 0
M  V30 BEGIN ATOM
M  V30 1 N 4.239149 -3.024123 1.866866 0
M  V30 2 C 3.289202 -2.351195 1.809371 0
M  V30 3 C 2.118585 -1.529561 1.725928 0
M  V30 4 C 1.141448 -1.518051 2.725452 0
M  V30 5 Cl 1.375384 -2.556127 4.127698 0
M  V30 6 N 0.030734 -0.756997 2.675654 0
M  V30 7 C -0.187380 0.060832 1.606123 0
M  V30 8 C 0.748608 0.082520 0.596824 0
M  V30 9 C 1.886792 -0.694820 0.643825 0
M  V30 10 C 2.833225 -0.635566 -0.435918 0
M  V30 11 N 3.621787 -0.577359 -1.308195 0
M  V30 12 C 0.444028 1.002466 -0.544553 0
M  V30 13 C -1.047800 0.854270 -0.769278 0
M  V30 14 C -1.722654 1.575439 0.386944 0
M  V30 15 C -1.440555 0.846889 1.665055 0
M  V30 16 H 0.680851 2.054992 -0.210910 0
M  V30 17 H 1.053835 0.800135 -1.437186 0
M  V30 18 H -1.367259 1.249038 -1.748221 0
M  V30 19 H -1.302427 -0.223117 -0.712714 0
M  V30 20 H -1.345330 2.604877 0.495041 0
M  V30 21 H -2.804967 1.577863 0.148031 0
M  V30 22 H -1.454682 1.542324 2.541524 0
M  V30 23 H -2.275926 0.092112 1.761751 0
M  V30 END ATOM
M  V30 BEGIN BOND
M  V30 1 3 1 2
M  V30 2 1 2 3
M  V30 3 2 3 4
M  V30 4 1 4 5
M  V30 5 1 4 6
M  V30 6 2 6 7
M  V30 7 1 7 8
M  V30 8 2 8 9
M  V30 9 1 9 10
M  V30 10 3 10 11
M  V30 11 1 8 12
M  V30 12 1 12 13
M  V30 13 1 13 14
M  V30 14 1 14 15
M  V30 15 1 9 3
M  V30 16 1 15 7
M  V30 17 1 12 16
M  V30 18 1 12 17
M  V30 19 1 13 18
M  V30 20 1 13 19
M  V30 21 1 14 20
M  V30 22 1 14 21
M  V30 23 1 15 22
M  V30 24 1 15 23
M  V30 END BOND
M  V30 END CTAB
M  END
>  <Dataset>  (343) 
ChEMBL_Kinases

>  <Ligand_Instance>  (343) 
nan

>  <PDB_ID>  (343) 
nan

>  <Standardized_SMILES>  (343) 
N#Cc1c(Cl)nc2c(c1C#N)CCCC2

>  <Name>  (343) 
nan

>  <Pocket>  (343) 
nan

>  <ATP_Site>  (343) 
nan

>  <Peripheral>  (343) 
nan

>  <Num_H_Atoms_ProtBoundConf>  (343) 
nan

>  <Num_Resolved_Atoms>  (343) 
nan

>  <Num_Not_Resolved_Atoms>  (343) 
nan

$$$$
CHEMBL1548293
     RDKit          3D

  0  0  0  0  0  0  0  0  0  0999 V3000
M  V30 BEGIN CTAB
M  V30 COUNTS 41 43 0 0 0
M  V30 BEGIN ATOM
M  V30 1 C -1.584431 -4.759810 5.112496 0
M  V30 2 C -0.676530 -4.091843 4.141893 0
M  V30 3 C 0.165789 -4.746394 3.272918 0
M  V30 4 C 0.985742 -4.030266 2.392780 0
M  V30 5 C 0.978244 -2.644725 2.366372 0
M  V30 6 N 1.902410 -2.179945 1.373492 0
M  V30 7 C 1.377672 -1.434139 0.269621 0
M  V30 8 C 1.284951 -0.110042 -0.065254 0
M  V30 9 C 0.665729 0.210094 -1.254540 0
M  V30 10 N 0.587830 1.591700 -1.551127 0
M  V30 11 N -0.527004 2.057023 -2.144288 0
M  V30 12 C -0.459560 3.366669 -2.359568 0
M  V30 13 C -1.561683 4.140061 -3.001799 0
M  V30 14 C 0.756810 3.807730 -1.889187 0
M  V30 15 C 1.372936 2.667031 -1.395049 0
M  V30 16 C 2.691114 2.548718 -0.772338 0
M  V30 17 N 0.153823 -0.743832 -2.091687 0
M  V30 18 C 0.255679 -2.040016 -1.742316 0
M  V30 19 N 0.865918 -2.384034 -0.566143 0
M  V30 20 C 0.135233 -1.998234 3.237547 0
M  V30 21 C 0.187596 -0.524185 3.165787 0
M  V30 22 C -0.662521 -2.714612 4.092852 0
M  V30 23 H -2.650110 -4.626083 4.776390 0
M  V30 24 H -1.398061 -5.834469 5.105239 0
M  V30 25 H -1.517341 -4.315894 6.125460 0
M  V30 26 H 0.134509 -5.834454 3.333454 0
M  V30 27 H 1.575561 -4.709850 1.789378 0
M  V30 28 H 2.899556 -2.440959 1.563618 0
M  V30 29 H 1.737350 0.520630 0.680639 0
M  V30 30 H -1.680415 3.856827 -4.074913 0
M  V30 31 H -1.377114 5.212658 -2.888499 0
M  V30 32 H -2.512090 3.787923 -2.524217 0
M  V30 33 H 1.129798 4.817199 -1.907712 0
M  V30 34 H 2.612005 2.749978 0.317655 0
M  V30 35 H 3.373843 3.350281 -1.163028 0
M  V30 36 H 3.193763 1.596408 -1.026626 0
M  V30 37 H -0.180214 -2.724506 -2.464628 0
M  V30 38 H -0.609487 -0.099803 2.522477 0
M  V30 39 H 0.049020 -0.102281 4.216635 0
M  V30 40 H 1.171899 -0.158963 2.842798 0
M  V30 41 H -1.295385 -2.127645 4.738499 0
M  V30 END ATOM
M  V30 BEGIN BOND
M  V30 1 1 1 2
M  V30 2 2 2 3
M  V30 3 1 3 4
M  V30 4 2 4 5
M  V30 5 1 5 6
M  V30 6 1 6 7
M  V30 7 2 7 8
M  V30 8 1 8 9
M  V30 9 1 9 10
M  V30 10 1 10 11
M  V30 11 2 11 12
M  V30 12 1 12 13
M  V30 13 1 12 14
M  V30 14 2 14 15
M  V30 15 1 15 16
M  V30 16 2 9 17
M  V30 17 1 17 18
M  V30 18 2 18 19
M  V30 19 1 5 20
M  V30 20 1 20 21
M  V30 21 2 20 22
M  V30 22 1 22 2
M  V30 23 1 19 7
M  V30 24 1 15 10
M  V30 25 1 1 23
M  V30 26 1 1 24
M  V30 27 1 1 25
M  V30 28 1 3 26
M  V30 29 1 4 27
M  V30 30 1 6 28
M  V30 31 1 8 29
M  V30 32 1 13 30
M  V30 33 1 13 31
M  V30 34 1 13 32
M  V30 35 1 14 33
M  V30 36 1 16 34
M  V30 37 1 16 35
M  V30 38 1 16 36
M  V30 39 1 18 37
M  V30 40 1 21 38
M  V30 41 1 21 39
M  V30 42 1 21 40
M  V30 43 1 22 41
M  V30 END BOND
M  V30 END CTAB
M  END
>  <Dataset>  (344) 
ChEMBL_Kinases

>  <Ligand_Instance>  (344) 
nan

>  <PDB_ID>  (344) 
nan

>  <Standardized_SMILES>  (344) 
Cc1ccc(Nc2cc(-n3nc(C)cc3C)ncn2)c(C)c1

>  <Name>  (344) 
nan

>  <Pocket>  (344) 
nan

>  <ATP_Site>  (344) 
nan

>  <Peripheral>  (344) 
nan

>  <Num_H_Atoms_ProtBoundConf>  (344) 
nan

>  <Num_Resolved_Atoms>  (344) 
nan

>  <Num_Not_Resolved_Atoms>  (344) 
nan

$$$$
CHEMBL1548306
     RDKit          3D

  0  0  0  0  0  0  0  0  0  0999 V3000
M  V30 BEGIN CTAB
M  V30 COUNTS 32 33 0 0 0
M  V30 BEGIN ATOM
M  V30 1 C 1.776055 -3.004633 4.532981 0
M  V30 2 C 2.303624 -2.898542 3.125651 0
M  V30 3 C 2.552880 -4.314904 2.637232 0
M  V30 4 N 1.353754 -2.290896 2.221776 0
M  V30 5 C 1.669927 -1.121041 1.499928 0
M  V30 6 O 2.779195 -0.564285 1.611590 0
M  V30 7 C 0.633890 -0.581778 0.606116 0
M  V30 8 C 0.746539 0.516099 -0.158686 0
M  V30 9 C -0.312806 0.895447 -0.944370 0
M  V30 10 C -1.478802 0.030740 -0.853446 0
M  V30 11 S -0.957449 -1.230984 0.334475 0
M  V30 12 C -2.655695 0.411404 -1.694198 0
M  V30 13 C -3.032256 1.859318 -1.477788 0
M  V30 14 C -1.809225 2.747655 -1.385844 0
M  V30 15 C -0.568376 2.010021 -1.896338 0
M  V30 16 H 1.526555 -4.036187 4.813580 0
M  V30 17 H 2.445231 -2.502615 5.250356 0
M  V30 18 H 0.807726 -2.426146 4.558878 0
M  V30 19 H 3.266535 -2.323889 3.154485 0
M  V30 20 H 3.361695 -4.385515 1.898975 0
M  V30 21 H 2.712183 -5.016532 3.493129 0
M  V30 22 H 1.623708 -4.664487 2.144763 0
M  V30 23 H 0.454526 -2.823904 2.192137 0
M  V30 24 H 1.639541 1.125354 -0.188809 0
M  V30 25 H -3.470229 -0.236031 -1.371663 0
M  V30 26 H -2.381239 0.221644 -2.733827 0
M  V30 27 H -3.626132 1.980817 -0.550441 0
M  V30 28 H -3.645881 2.144954 -2.357273 0
M  V30 29 H -1.972682 3.699764 -1.932337 0
M  V30 30 H -1.586712 3.031937 -0.327546 0
M  V30 31 H -0.712761 1.651056 -2.925487 0
M  V30 32 H 0.254564 2.751860 -1.870628 0
M  V30 END ATOM
M  V30 BEGIN BOND
M  V30 1 1 1 2
M  V30 2 1 2 3
M  V30 3 1 2 4
M  V30 4 1 4 5
M  V30 5 2 5 6
M  V30 6 1 5 7
M  V30 7 2 7 8
M  V30 8 1 8 9
M  V30 9 2 9 10
M  V30 10 1 10 11
M  V30 11 1 10 12
M  V30 12 1 12 13
M  V30 13 1 13 14
M  V30 14 1 14 15
M  V30 15 1 11 7
M  V30 16 1 15 9
M  V30 17 1 1 16
M  V30 18 1 1 17
M  V30 19 1 1 18
M  V30 20 1 2 19
M  V30 21 1 3 20
M  V30 22 1 3 21
M  V30 23 1 3 22
M  V30 24 1 4 23
M  V30 25 1 8 24
M  V30 26 1 12 25
M  V30 27 1 12 26
M  V30 28 1 13 27
M  V30 29 1 13 28
M  V30 30 1 14 29
M  V30 31 1 14 30
M  V30 32 1 15 31
M  V30 33 1 15 32
M  V30 END BOND
M  V30 END CTAB
M  END
>  <Dataset>  (345) 
ChEMBL_Kinases

>  <Ligand_Instance>  (345) 
nan

>  <PDB_ID>  (345) 
nan

>  <Standardized_SMILES>  (345) 
CC(C)NC(=O)c1cc2c(s1)CCCC2

>  <Name>  (345) 
nan

>  <Pocket>  (345) 
nan

>  <ATP_Site>  (345) 
nan

>  <Peripheral>  (345) 
nan

>  <Num_H_Atoms_ProtBoundConf>  (345) 
nan

>  <Num_Resolved_Atoms>  (345) 
nan

>  <Num_Not_Resolved_Atoms>  (345) 
nan

$$$$
CHEMBL1548349
     RDKit          3D

  0  0  0  0  0  0  0  0  0  0999 V3000
M  V30 BEGIN CTAB
M  V30 COUNTS 56 59 0 0 0
M  V30 BEGIN ATOM
M  V30 1 C 2.223615 -5.235983 2.712513 0
M  V30 2 O 2.357091 -4.403152 1.582392 0
M  V30 3 C 2.858166 -3.122694 1.652282 0
M  V30 4 C 3.255503 -2.614589 2.893623 0
M  V30 5 C 3.747978 -1.336245 2.917835 0
M  V30 6 C 3.845656 -0.580580 1.751757 0
M  V30 7 C 3.459929 -1.074884 0.550629 0
M  V30 8 N 3.573476 -0.274690 -0.615336 0
M  V30 9 C 4.168310 1.041600 -0.677346 0
M  V30 10 C 2.970742 1.982248 -0.858085 0
M  V30 11 N 2.339055 1.676310 -2.074481 0
M  V30 12 C 1.013616 2.184957 -2.264046 0
M  V30 13 C -0.040873 1.605183 -1.444384 0
M  V30 14 O -1.162490 2.167459 -1.707825 0
M  V30 15 N -0.064726 0.589172 -0.461462 0
M  V30 16 C -1.294553 0.210760 0.213305 0
M  V30 17 N -2.082496 -0.598453 -0.092407 0
M  V30 18 C -3.196803 -0.935705 0.531895 0
M  V30 19 C -3.467280 -0.226273 1.719035 0
M  V30 20 S -2.075824 0.880641 1.837021 0
M  V30 21 C -4.782011 -0.672367 2.395727 0
M  V30 22 C -5.882012 -0.467766 1.355933 0
M  V30 23 C -7.237890 -0.550258 1.928074 0
M  V30 24 C -5.619883 -1.398294 0.213195 0
M  V30 25 C -4.241118 -1.957280 0.190135 0
M  V30 26 C 2.598599 0.475040 -2.743991 0
M  V30 27 C 3.082884 -0.682162 -1.936514 0
M  V30 28 C 2.965489 -2.348509 0.501595 0
M  V30 29 H 3.197244 -5.684597 3.039386 0
M  V30 30 H 1.515000 -6.059692 2.467248 0
M  V30 31 H 1.783459 -4.653830 3.550769 0
M  V30 32 H 3.183596 -3.195923 3.811229 0
M  V30 33 H 4.052250 -0.961167 3.904045 0
M  V30 34 H 4.242196 0.385001 1.929893 0
M  V30 35 H 4.757643 1.320605 0.215276 0
M  V30 36 H 4.783194 1.134784 -1.597469 0
M  V30 37 H 3.336400 3.043087 -0.918090 0
M  V30 38 H 2.388514 1.914753 0.066418 0
M  V30 39 H 0.752207 1.931004 -3.336522 0
M  V30 40 H 0.974770 3.295795 -2.237449 0
M  V30 41 H 0.847944 0.168451 -0.295250 0
M  V30 42 H -4.921403 -0.012936 3.264189 0
M  V30 43 H -4.640663 -1.726163 2.653684 0
M  V30 44 H -5.688582 0.558075 0.957498 0
M  V30 45 H -7.158916 -0.751651 3.031804 0
M  V30 46 H -7.887247 -1.295863 1.428608 0
M  V30 47 H -7.746176 0.434787 1.858084 0
M  V30 48 H -6.339436 -2.251031 0.331720 0
M  V30 49 H -5.854672 -0.900522 -0.761018 0
M  V30 50 H -4.141194 -2.760225 0.971534 0
M  V30 51 H -4.041415 -2.449360 -0.774370 0
M  V30 52 H 1.699309 0.162550 -3.315022 0
M  V30 53 H 3.361969 0.670677 -3.550699 0
M  V30 54 H 2.277893 -1.437004 -1.830360 0
M  V30 55 H 3.935865 -1.204893 -2.415918 0
M  V30 56 H 2.641609 -2.814060 -0.397438 0
M  V30 END ATOM
M  V30 BEGIN BOND
M  V30 1 1 1 2
M  V30 2 1 2 3
M  V30 3 2 3 4
M  V30 4 1 4 5
M  V30 5 2 5 6
M  V30 6 1 6 7
M  V30 7 1 7 8
M  V30 8 1 8 9
M  V30 9 1 9 10
M  V30 10 1 10 11
M  V30 11 1 11 12
M  V30 12 1 12 13
M  V30 13 2 13 14
M  V30 14 1 13 15
M  V30 15 1 15 16
M  V30 16 2 16 17
M  V30 17 1 17 18
M  V30 18 2 18 19
M  V30 19 1 19 20
M  V30 20 1 19 21
M  V30 21 1 21 22
M  V30 22 1 22 23
M  V30 23 1 22 24
M  V30 24 1 24 25
M  V30 25 1 11 26
M  V30 26 1 26 27
M  V30 27 2 7 28
M  V30 28 1 28 3
M  V30 29 1 27 8
M  V30 30 1 20 16
M  V30 31 1 25 18
M  V30 32 1 1 29
M  V30 33 1 1 30
M  V30 34 1 1 31
M  V30 35 1 4 32
M  V30 36 1 5 33
M  V30 37 1 6 34
M  V30 38 1 9 35
M  V30 39 1 9 36
M  V30 40 1 10 37
M  V30 41 1 10 38
M  V30 42 1 12 39
M  V30 43 1 12 40
M  V30 44 1 15 41
M  V30 45 1 21 42
M  V30 46 1 21 43
M  V30 47 1 22 44
M  V30 48 1 23 45
M  V30 49 1 23 46
M  V30 50 1 23 47
M  V30 51 1 24 48
M  V30 52 1 24 49
M  V30 53 1 25 50
M  V30 54 1 25 51
M  V30 55 1 26 52
M  V30 56 1 26 53
M  V30 57 1 27 54
M  V30 58 1 27 55
M  V30 59 1 28 56
M  V30 END BOND
M  V30 END CTAB
M  END
>  <Dataset>  (346) 
ChEMBL_Kinases

>  <Ligand_Instance>  (346) 
nan

>  <PDB_ID>  (346) 
nan

>  <Standardized_SMILES>  (346) 
COc1cccc(N2CCN(CC(=O)Nc3nc4c(s3)CC(C)CC4)CC2)c1

>  <Name>  (346) 
nan

>  <Pocket>  (346) 
nan

>  <ATP_Site>  (346) 
nan

>  <Peripheral>  (346) 
nan

>  <Num_H_Atoms_ProtBoundConf>  (346) 
nan

>  <Num_Resolved_Atoms>  (346) 
nan

>  <Num_Not_Resolved_Atoms>  (346) 
nan

$$$$
CHEMBL1548391
     RDKit          3D

  0  0  0  0  0  0  0  0  0  0999 V3000
M  V30 BEGIN CTAB
M  V30 COUNTS 52 55 0 0 0
M  V30 BEGIN ATOM
M  V30 1 C 0.727703 -3.158121 3.252430 0
M  V30 2 C 1.673652 -2.119102 2.763223 0
M  V30 3 C 2.999597 -2.102468 3.107003 0
M  V30 4 C 3.756948 -1.083861 2.583613 0
M  V30 5 C 5.211190 -1.015551 2.923985 0
M  V30 6 N 3.192342 -0.170764 1.781262 0
M  V30 7 C 1.897599 -0.155670 1.423209 0
M  V30 8 N 1.513372 0.910234 0.571283 0
M  V30 9 C 2.450249 1.899918 0.153831 0
M  V30 10 O 3.442334 2.162247 0.890860 0
M  V30 11 C 2.131884 2.537571 -1.167113 0
M  V30 12 C 0.740007 3.104616 -1.131387 0
M  V30 13 C 0.774646 4.242654 -0.166014 0
M  V30 14 O 0.004502 4.107202 0.838428 0
M  V30 15 O 1.217653 5.470630 0.282700 0
M  V30 16 N -0.173698 2.081597 -0.691189 0
M  V30 17 C 0.168321 1.098764 0.070701 0
M  V30 18 N -0.859183 0.131032 0.428793 0
M  V30 19 C -2.191989 0.622567 0.651600 0
M  V30 20 C -3.214489 -0.419837 0.999728 0
M  V30 21 C -3.438528 -1.460719 -0.002071 0
M  V30 22 C -4.469890 -1.315051 -0.945503 0
M  V30 23 N -4.479877 -2.352623 -1.798440 0
M  V30 24 C -3.500239 -3.209957 -1.485225 0
M  V30 25 C -3.016200 -4.420559 -1.952959 0
M  V30 26 C -1.937487 -5.076354 -1.354681 0
M  V30 27 C -1.330258 -4.482814 -0.244040 0
M  V30 28 C -1.825528 -3.294762 0.193135 0
M  V30 29 C -2.875988 -2.652907 -0.388932 0
M  V30 30 N 1.234114 -1.170514 1.968902 0
M  V30 31 H -0.225652 -2.598606 3.485053 0
M  V30 32 H 0.470005 -3.919615 2.504698 0
M  V30 33 H 1.054595 -3.554320 4.234819 0
M  V30 34 H 3.393716 -2.865282 3.756511 0
M  V30 35 H 5.805366 -1.546945 2.147036 0
M  V30 36 H 5.574704 0.027455 2.965266 0
M  V30 37 H 5.404071 -1.495710 3.896006 0
M  V30 38 H 2.302714 1.815171 -1.967132 0
M  V30 39 H 2.906446 3.348851 -1.293671 0
M  V30 40 H 0.427986 3.438581 -2.141626 0
M  V30 41 H 1.970109 5.588218 0.963886 0
M  V30 42 H -0.447884 -0.820537 0.467954 0
M  V30 43 H -2.555669 1.092837 -0.310002 0
M  V30 44 H -2.188668 1.458042 1.395492 0
M  V30 45 H -4.177491 0.129125 1.227006 0
M  V30 46 H -2.960968 -0.900447 1.999591 0
M  V30 47 H -5.207910 -0.511087 -1.051673 0
M  V30 48 H -5.118896 -2.532480 -2.602676 0
M  V30 49 H -3.494670 -4.864208 -2.808701 0
M  V30 50 H -1.565421 -6.023541 -1.727640 0
M  V30 51 H -0.496179 -4.980456 0.226899 0
M  V30 52 H -1.328718 -2.888990 1.059463 0
M  V30 END ATOM
M  V30 BEGIN BOND
M  V30 1 1 1 2
M  V30 2 2 2 3
M  V30 3 1 3 4
M  V30 4 1 4 5
M  V30 5 2 4 6
M  V30 6 1 6 7
M  V30 7 1 7 8
M  V30 8 1 8 9
M  V30 9 2 9 10
M  V30 10 1 9 11
M  V30 11 1 11 12
M  V30 12 1 12 13
M  V30 13 2 13 14
M  V30 14 1 13 15
M  V30 15 1 12 16
M  V30 16 2 16 17
M  V30 17 1 17 18
M  V30 18 1 18 19
M  V30 19 1 19 20
M  V30 20 1 20 21
M  V30 21 2 21 22
M  V30 22 1 22 23
M  V30 23 1 23 24
M  V30 24 2 24 25
M  V30 25 1 25 26
M  V30 26 2 26 27
M  V30 27 1 27 28
M  V30 28 2 28 29
M  V30 29 2 7 30
M  V30 30 1 30 2
M  V30 31 1 17 8
M  V30 32 1 29 21
M  V30 33 1 29 24
M  V30 34 1 1 31
M  V30 35 1 1 32
M  V30 36 1 1 33
M  V30 37 1 3 34
M  V30 38 1 5 35
M  V30 39 1 5 36
M  V30 40 1 5 37
M  V30 41 1 11 38
M  V30 42 1 11 39
M  V30 43 1 12 40
M  V30 44 1 15 41
M  V30 45 1 18 42
M  V30 46 1 19 43
M  V30 47 1 19 44
M  V30 48 1 20 45
M  V30 49 1 20 46
M  V30 50 1 22 47
M  V30 51 1 23 48
M  V30 52 1 25 49
M  V30 53 1 26 50
M  V30 54 1 27 51
M  V30 55 1 28 52
M  V30 END BOND
M  V30 END CTAB
M  END
>  <Dataset>  (347) 
ChEMBL_Kinases

>  <Ligand_Instance>  (347) 
nan

>  <PDB_ID>  (347) 
nan

>  <Standardized_SMILES>  (347) 
Cc1cc(C)nc(N2C(=O)CC(C(=O)O)N=C2NCCc2c[nH]c3ccccc23)n1

>  <Name>  (347) 
nan

>  <Pocket>  (347) 
nan

>  <ATP_Site>  (347) 
nan

>  <Peripheral>  (347) 
nan

>  <Num_H_Atoms_ProtBoundConf>  (347) 
nan

>  <Num_Resolved_Atoms>  (347) 
nan

>  <Num_Not_Resolved_Atoms>  (347) 
nan

$$$$
CHEMBL1548415
     RDKit          3D

  0  0  0  0  0  0  0  0  0  0999 V3000
M  V30 BEGIN CTAB
M  V30 COUNTS 53 56 0 0 0
M  V30 BEGIN ATOM
M  V30 1 N 1.121771 -2.076225 3.905526 0
M  V30 2 C 0.809557 -2.029189 2.797482 0
M  V30 3 C 0.388183 -1.968243 1.394444 0
M  V30 4 C 1.390727 -1.194585 0.625340 0
M  V30 5 O 0.882859 -0.195719 0.067379 0
M  V30 6 N 2.767510 -1.462118 0.475431 0
M  V30 7 C 3.807968 -0.772287 -0.231229 0
M  V30 8 C 4.167549 0.581680 0.183978 0
M  V30 9 C 3.249334 1.678123 0.201902 0
M  V30 10 C 3.079892 2.369989 -0.996324 0
M  V30 11 C 2.260243 3.468506 -1.159206 0
M  V30 12 C 1.548484 3.933914 -0.076678 0
M  V30 13 C 1.664043 3.301154 1.143575 0
M  V30 14 C 2.488848 2.217547 1.252846 0
M  V30 15 C -0.923267 -1.289791 1.250744 0
M  V30 16 N -0.951407 0.050071 1.384982 0
M  V30 17 C -2.137672 0.704480 1.258086 0
M  V30 18 C -2.133524 2.083917 1.401750 0
M  V30 19 C -3.321635 2.775893 1.278490 0
M  V30 20 C -4.476416 2.062083 1.015003 0
M  V30 21 C -4.472268 0.670600 0.871462 0
M  V30 22 C -3.281757 -0.020380 0.995188 0
M  V30 23 N -3.232792 -1.358352 0.864547 0
M  V30 24 C -2.055435 -2.031835 0.988025 0
M  V30 25 N -2.044758 -3.447102 0.844331 0
M  V30 26 C -1.684135 -4.554533 1.684995 0
M  V30 27 C -1.190594 -5.669464 0.786728 0
M  V30 28 O -0.509372 -5.239575 -0.324345 0
M  V30 29 C -1.273897 -4.444389 -1.168585 0
M  V30 30 C -2.503341 -3.934343 -0.454923 0
M  V30 31 H 0.384615 -3.006253 1.005475 0
M  V30 32 H 2.960568 -2.359629 1.026702 0
M  V30 33 H 4.733593 -1.406748 -0.068054 0
M  V30 34 H 3.674437 -0.890514 -1.347612 0
M  V30 35 H 5.090384 0.939429 -0.382446 0
M  V30 36 H 4.597072 0.492975 1.239940 0
M  V30 37 H 3.610099 2.065508 -1.908674 0
M  V30 38 H 2.163900 3.970126 -2.112060 0
M  V30 39 H 0.895263 4.782717 -0.139908 0
M  V30 40 H 1.141185 3.602131 2.041165 0
M  V30 41 H 2.631658 1.661800 2.194099 0
M  V30 42 H -1.217372 2.649947 1.610818 0
M  V30 43 H -3.300470 3.847842 1.393185 0
M  V30 44 H -5.364223 2.663556 0.931732 0
M  V30 45 H -5.411511 0.157881 0.664162 0
M  V30 46 H -2.624557 -4.912902 2.196199 0
M  V30 47 H -0.969532 -4.308933 2.494568 0
M  V30 48 H -2.005258 -6.386793 0.543614 0
M  V30 49 H -0.457563 -6.252843 1.401385 0
M  V30 50 H -1.530163 -4.964256 -2.115696 0
M  V30 51 H -0.643705 -3.572451 -1.444009 0
M  V30 52 H -3.185170 -4.808669 -0.364657 0
M  V30 53 H -3.021876 -3.187732 -1.053270 0
M  V30 END ATOM
M  V30 BEGIN BOND
M  V30 1 3 1 2
M  V30 2 1 2 3
M  V30 3 1 3 4
M  V30 4 2 4 5
M  V30 5 1 4 6
M  V30 6 1 6 7
M  V30 7 1 7 8
M  V30 8 1 8 9
M  V30 9 2 9 10
M  V30 10 1 10 11
M  V30 11 2 11 12
M  V30 12 1 12 13
M  V30 13 2 13 14
M  V30 14 1 3 15
M  V30 15 2 15 16
M  V30 16 1 16 17
M  V30 17 2 17 18
M  V30 18 1 18 19
M  V30 19 2 19 20
M  V30 20 1 20 21
M  V30 21 2 21 22
M  V30 22 1 22 23
M  V30 23 2 23 24
M  V30 24 1 24 25
M  V30 25 1 25 26
M  V30 26 1 26 27
M  V30 27 1 27 28
M  V30 28 1 28 29
M  V30 29 1 29 30
M  V30 30 1 14 9
M  V30 31 1 24 15
M  V30 32 1 30 25
M  V30 33 1 22 17
M  V30 34 1 3 31
M  V30 35 1 6 32
M  V30 36 1 7 33
M  V30 37 1 7 34
M  V30 38 1 8 35
M  V30 39 1 8 36
M  V30 40 1 10 37
M  V30 41 1 11 38
M  V30 42 1 12 39
M  V30 43 1 13 40
M  V30 44 1 14 41
M  V30 45 1 18 42
M  V30 46 1 19 43
M  V30 47 1 20 44
M  V30 48 1 21 45
M  V30 49 1 26 46
M  V30 50 1 26 47
M  V30 51 1 27 48
M  V30 52 1 27 49
M  V30 53 1 29 50
M  V30 54 1 29 51
M  V30 55 1 30 52
M  V30 56 1 30 53
M  V30 END BOND
M  V30 END CTAB
M  END
>  <Dataset>  (348) 
ChEMBL_Kinases

>  <Ligand_Instance>  (348) 
nan

>  <PDB_ID>  (348) 
nan

>  <Standardized_SMILES>  (348) 
N#CC(C(=O)NCCc1ccccc1)c1nc2ccccc2nc1N1CCOCC1

>  <Name>  (348) 
nan

>  <Pocket>  (348) 
nan

>  <ATP_Site>  (348) 
nan

>  <Peripheral>  (348) 
nan

>  <Num_H_Atoms_ProtBoundConf>  (348) 
nan

>  <Num_Resolved_Atoms>  (348) 
nan

>  <Num_Not_Resolved_Atoms>  (348) 
nan

$$$$
CHEMBL1548546
     RDKit          3D

  0  0  0  0  0  0  0  0  0  0999 V3000
M  V30 BEGIN CTAB
M  V30 COUNTS 30 32 0 0 0
M  V30 BEGIN ATOM
M  V30 1 N 1.228542 -3.876618 5.577822 0
M  V30 2 C 1.341384 -3.172930 4.245776 0
M  V30 3 N 0.392160 -2.852764 3.668387 0
M  V30 4 C 0.307045 -2.231521 2.497654 0
M  V30 5 C 1.533420 -1.924361 1.882636 0
M  V30 6 S 2.743188 -2.613814 3.149748 0
M  V30 7 C 1.443218 -1.235185 0.606818 0
M  V30 8 C 0.608289 0.010977 0.667852 0
M  V30 9 C 0.152990 0.554174 -0.595715 0
M  V30 10 C -0.531223 -0.127573 -1.578577 0
M  V30 11 C -0.956578 0.402861 -2.769482 0
M  V30 12 C -0.686748 1.744012 -3.033665 0
M  V30 13 C -0.017225 2.512321 -2.133551 0
M  V30 14 C 0.369307 1.892596 -0.967564 0
M  V30 15 C -0.598917 -0.246688 1.533953 0
M  V30 16 C -0.796411 -1.743045 1.602242 0
M  V30 17 H 1.157731 -3.290510 6.438526 0
M  V30 18 H 1.226450 -4.931466 5.577296 0
M  V30 19 H 1.159325 -1.956360 -0.173676 0
M  V30 20 H 2.462977 -0.881692 0.314503 0
M  V30 21 H 1.182070 0.847594 1.177451 0
M  V30 22 H -0.770754 -1.150974 -1.449486 0
M  V30 23 H -1.490603 -0.159757 -3.517928 0
M  V30 24 H -1.010034 2.183663 -3.960955 0
M  V30 25 H 0.206418 3.537219 -2.299817 0
M  V30 26 H 0.911331 2.523691 -0.244406 0
M  V30 27 H -1.506437 0.270941 1.153027 0
M  V30 28 H -0.404552 0.168586 2.560867 0
M  V30 29 H -1.788910 -2.014625 2.014790 0
M  V30 30 H -0.664577 -2.255892 0.638380 0
M  V30 END ATOM
M  V30 BEGIN BOND
M  V30 1 1 1 2
M  V30 2 2 2 3
M  V30 3 1 3 4
M  V30 4 2 4 5
M  V30 5 1 5 6
M  V30 6 1 5 7
M  V30 7 1 7 8
M  V30 8 1 8 9
M  V30 9 2 9 10
M  V30 10 1 10 11
M  V30 11 2 11 12
M  V30 12 1 12 13
M  V30 13 2 13 14
M  V30 14 1 8 15
M  V30 15 1 15 16
M  V30 16 1 6 2
M  V30 17 1 14 9
M  V30 18 1 16 4
M  V30 19 1 1 17
M  V30 20 1 1 18
M  V30 21 1 7 19
M  V30 22 1 7 20
M  V30 23 1 8 21
M  V30 24 1 10 22
M  V30 25 1 11 23
M  V30 26 1 12 24
M  V30 27 1 13 25
M  V30 28 1 14 26
M  V30 29 1 15 27
M  V30 30 1 15 28
M  V30 31 1 16 29
M  V30 32 1 16 30
M  V30 END BOND
M  V30 END CTAB
M  END
>  <Dataset>  (349) 
ChEMBL_Kinases

>  <Ligand_Instance>  (349) 
nan

>  <PDB_ID>  (349) 
nan

>  <Standardized_SMILES>  (349) 
Nc1nc2c(s1)CC(c1ccccc1)CC2

>  <Name>  (349) 
nan

>  <Pocket>  (349) 
nan

>  <ATP_Site>  (349) 
nan

>  <Peripheral>  (349) 
nan

>  <Num_H_Atoms_ProtBoundConf>  (349) 
nan

>  <Num_Resolved_Atoms>  (349) 
nan

>  <Num_Not_Resolved_Atoms>  (349) 
nan

$$$$
CHEMBL1549278
     RDKit          3D

  0  0  0  0  0  0  0  0  0  0999 V3000
M  V30 BEGIN CTAB
M  V30 COUNTS 29 30 0 0 0
M  V30 BEGIN ATOM
M  V30 1 C -1.803828 -4.245464 3.489201 0
M  V30 2 O -1.889249 -2.824010 3.553603 0
M  V30 3 C -0.969291 -2.013134 2.902497 0
M  V30 4 C 0.114903 -2.389685 2.131638 0
M  V30 5 C 0.915953 -1.419606 1.565385 0
M  V30 6 C 0.701335 -0.065752 1.721352 0
M  V30 7 C 1.576382 0.963445 1.102643 0
M  V30 8 C 1.106531 1.350136 -0.248359 0
M  V30 9 N 0.223784 2.385195 -0.360030 0
M  V30 10 N -0.062113 2.562375 -1.639199 0
M  V30 11 C 0.611887 1.667411 -2.377136 0
M  V30 12 S 0.691000 1.350148 -4.132706 0
M  V30 13 N 1.319616 0.937547 -1.501274 0
M  V30 14 C 2.221655 -0.165709 -1.745517 0
M  V30 15 C -0.386339 0.297699 2.494649 0
M  V30 16 C -1.216992 -0.661660 3.081947 0
M  V30 17 Br -2.675946 0.019693 4.119682 0
M  V30 18 H -0.746527 -4.602067 3.401010 0
M  V30 19 H -2.323544 -4.713159 4.345460 0
M  V30 20 H -2.314638 -4.558896 2.555366 0
M  V30 21 H 0.242672 -3.441867 2.038140 0
M  V30 22 H 1.747366 -1.774150 0.974062 0
M  V30 23 H 2.616650 0.555105 0.940796 0
M  V30 24 H 1.722521 1.837857 1.752340 0
M  V30 25 H -0.508191 0.898648 -4.669027 0
M  V30 26 H 2.359746 -0.288720 -2.850427 0
M  V30 27 H 3.227330 0.005238 -1.303614 0
M  V30 28 H 1.793058 -1.082605 -1.323692 0
M  V30 29 H -0.572836 1.363585 2.629906 0
M  V30 END ATOM
M  V30 BEGIN BOND
M  V30 1 1 1 2
M  V30 2 1 2 3
M  V30 3 2 3 4
M  V30 4 1 4 5
M  V30 5 2 5 6
M  V30 6 1 6 7
M  V30 7 1 7 8
M  V30 8 2 8 9
M  V30 9 1 9 10
M  V30 10 2 10 11
M  V30 11 1 11 12
M  V30 12 1 11 13
M  V30 13 1 13 14
M  V30 14 1 6 15
M  V30 15 2 15 16
M  V30 16 1 16 17
M  V30 17 1 16 3
M  V30 18 1 13 8
M  V30 19 1 1 18
M  V30 20 1 1 19
M  V30 21 1 1 20
M  V30 22 1 4 21
M  V30 23 1 5 22
M  V30 24 1 7 23
M  V30 25 1 7 24
M  V30 26 1 12 25
M  V30 27 1 14 26
M  V30 28 1 14 27
M  V30 29 1 14 28
M  V30 30 1 15 29
M  V30 END BOND
M  V30 END CTAB
M  END
>  <Dataset>  (350) 
ChEMBL_Kinases

>  <Ligand_Instance>  (350) 
nan

>  <PDB_ID>  (350) 
nan

>  <Standardized_SMILES>  (350) 
COc1ccc(Cc2nnc(S)n2C)cc1Br

>  <Name>  (350) 
nan

>  <Pocket>  (350) 
nan

>  <ATP_Site>  (350) 
nan

>  <Peripheral>  (350) 
nan

>  <Num_H_Atoms_ProtBoundConf>  (350) 
nan

>  <Num_Resolved_Atoms>  (350) 
nan

>  <Num_Not_Resolved_Atoms>  (350) 
nan

$$$$
CHEMBL1548716
     RDKit          3D

  0  0  0  0  0  0  0  0  0  0999 V3000
M  V30 BEGIN CTAB
M  V30 COUNTS 45 48 0 0 0
M  V30 BEGIN ATOM
M  V30 1 C -1.580131 -6.311365 -1.086003 0
M  V30 2 C -1.073844 -5.259360 -0.163944 0
M  V30 3 C -0.901400 -5.493910 1.185876 0
M  V30 4 C -0.425217 -4.506705 2.056493 0
M  V30 5 O -0.309590 -4.835758 3.261542 0
M  V30 6 O -0.146074 -3.328274 1.518778 0
M  V30 7 C -0.310627 -3.105338 0.232523 0
M  V30 8 C 0.022445 -1.830842 -0.178907 0
M  V30 9 C -0.097925 -1.449822 -1.500007 0
M  V30 10 O 0.197714 -0.211198 -2.050640 0
M  V30 11 C 0.678090 0.904283 -1.372442 0
M  V30 12 C -0.243636 1.390098 -0.287779 0
M  V30 13 O -1.380764 0.984153 0.130285 0
M  V30 14 N 0.348015 2.540432 0.354367 0
M  V30 15 C 1.627388 3.212712 0.082032 0
M  V30 16 C 2.507018 3.045224 1.292150 0
M  V30 17 C 1.737201 2.630429 2.496161 0
M  V30 18 C 2.540677 2.165873 3.512379 0
M  V30 19 C 1.986634 1.739694 4.701743 0
M  V30 20 C 0.615788 1.784889 4.860353 0
M  V30 21 C -0.200138 2.249652 3.845931 0
M  V30 22 C 0.347215 2.676170 2.656857 0
M  V30 23 C -0.369666 3.204472 1.460976 0
M  V30 24 C -0.567202 -2.396548 -2.403851 0
M  V30 25 C -0.909744 -3.681295 -2.026768 0
M  V30 26 C -0.773101 -4.018354 -0.693010 0
M  V30 27 H -0.868083 -6.505817 -1.913463 0
M  V30 28 H -1.849508 -7.211437 -0.499192 0
M  V30 29 H -2.528534 -5.995075 -1.606477 0
M  V30 30 H -1.157791 -6.488654 1.526867 0
M  V30 31 H 0.383603 -1.087851 0.485963 0
M  V30 32 H 1.698044 0.799268 -0.976934 0
M  V30 33 H 0.711688 1.738956 -2.123396 0
M  V30 34 H 1.400282 4.311274 -0.040701 0
M  V30 35 H 2.082779 2.908101 -0.865125 0
M  V30 36 H 3.240382 2.252583 1.041958 0
M  V30 37 H 3.125670 3.962880 1.508832 0
M  V30 38 H 3.619047 2.085959 3.499572 0
M  V30 39 H 2.556885 1.361494 5.545301 0
M  V30 40 H 0.049012 1.484014 5.735084 0
M  V30 41 H -1.268654 2.325215 3.867726 0
M  V30 42 H -1.439886 2.901126 1.431879 0
M  V30 43 H -0.276600 4.305969 1.380115 0
M  V30 44 H -0.692326 -2.184086 -3.456780 0
M  V30 45 H -1.276303 -4.436236 -2.706181 0
M  V30 END ATOM
M  V30 BEGIN BOND
M  V30 1 1 1 2
M  V30 2 2 2 3
M  V30 3 1 3 4
M  V30 4 2 4 5
M  V30 5 1 4 6
M  V30 6 1 6 7
M  V30 7 2 7 8
M  V30 8 1 8 9
M  V30 9 1 9 10
M  V30 10 1 10 11
M  V30 11 1 11 12
M  V30 12 2 12 13
M  V30 13 1 12 14
M  V30 14 1 14 15
M  V30 15 1 15 16
M  V30 16 1 16 17
M  V30 17 2 17 18
M  V30 18 1 18 19
M  V30 19 2 19 20
M  V30 20 1 20 21
M  V30 21 2 21 22
M  V30 22 1 22 23
M  V30 23 2 9 24
M  V30 24 1 24 25
M  V30 25 2 25 26
M  V30 26 1 26 2
M  V30 27 1 26 7
M  V30 28 1 23 14
M  V30 29 1 22 17
M  V30 30 1 1 27
M  V30 31 1 1 28
M  V30 32 1 1 29
M  V30 33 1 3 30
M  V30 34 1 8 31
M  V30 35 1 11 32
M  V30 36 1 11 33
M  V30 37 1 15 34
M  V30 38 1 15 35
M  V30 39 1 16 36
M  V30 40 1 16 37
M  V30 41 1 18 38
M  V30 42 1 19 39
M  V30 43 1 20 40
M  V30 44 1 21 41
M  V30 45 1 23 42
M  V30 46 1 23 43
M  V30 47 1 24 44
M  V30 48 1 25 45
M  V30 END BOND
M  V30 END CTAB
M  END
>  <Dataset>  (351) 
ChEMBL_Kinases

>  <Ligand_Instance>  (351) 
nan

>  <PDB_ID>  (351) 
nan

>  <Standardized_SMILES>  (351) 
Cc1cc(=O)oc2cc(OCC(=O)N3CCc4ccccc4C3)ccc12

>  <Name>  (351) 
nan

>  <Pocket>  (351) 
nan

>  <ATP_Site>  (351) 
nan

>  <Peripheral>  (351) 
nan

>  <Num_H_Atoms_ProtBoundConf>  (351) 
nan

>  <Num_Resolved_Atoms>  (351) 
nan

>  <Num_Not_Resolved_Atoms>  (351) 
nan

$$$$
CHEMBL1548745
     RDKit          3D

  0  0  0  0  0  0  0  0  0  0999 V3000
M  V30 BEGIN CTAB
M  V30 COUNTS 54 56 0 0 0
M  V30 BEGIN ATOM
M  V30 1 C -1.888334 -3.015439 5.756323 0
M  V30 2 O -1.279529 -2.927945 4.482086 0
M  V30 3 C -1.133508 -1.655321 3.905958 0
M  V30 4 O -1.574415 -0.710730 4.610506 0
M  V30 5 C -0.471038 -1.718825 2.554876 0
M  V30 6 N -0.321306 -0.375982 1.973667 0
M  V30 7 C 0.619928 0.477773 2.667371 0
M  V30 8 S 1.938627 0.065211 3.579195 0
M  V30 9 N 0.264227 1.871283 2.475513 0
M  V30 10 C 0.961895 3.026939 3.015337 0
M  V30 11 C 1.999108 3.509184 2.079151 0
M  V30 12 C 1.566795 4.461427 1.160381 0
M  V30 13 C 2.409747 5.009756 0.224328 0
M  V30 14 C 3.722764 4.610138 0.188060 0
M  V30 15 C 4.171665 3.679824 1.075744 0
M  V30 16 C 3.320325 3.131110 2.015327 0
M  V30 17 C -0.918384 1.817543 1.646149 0
M  V30 18 O -1.794464 2.725366 1.668734 0
M  V30 19 C -0.723282 0.560291 0.932064 0
M  V30 20 C -1.898122 0.093708 0.117624 0
M  V30 21 C -1.562255 -1.194825 -0.581155 0
M  V30 22 O -0.555826 -1.979892 -0.690184 0
M  V30 23 N -2.593627 -1.810408 -1.386146 0
M  V30 24 C -1.989254 -3.012871 -1.923450 0
M  V30 25 C -1.994341 -4.268403 -1.353435 0
M  V30 26 C -1.342518 -5.286388 -2.050610 0
M  V30 27 C -0.725319 -5.026337 -3.257165 0
M  V30 28 O -0.126336 -6.132421 -3.821066 0
M  V30 29 C 0.570509 -6.182630 -5.029547 0
M  V30 30 C -0.727426 -3.756108 -3.820832 0
M  V30 31 C -1.378614 -2.733298 -3.127448 0
M  V30 32 H -2.738069 -3.742925 5.679104 0
M  V30 33 H -1.129473 -3.412486 6.459899 0
M  V30 34 H -2.357823 -2.077358 6.097400 0
M  V30 35 H 0.495351 -2.245439 2.588280 0
M  V30 36 H -1.160128 -2.335552 1.929645 0
M  V30 37 H 1.407176 2.691196 3.983641 0
M  V30 38 H 0.224144 3.811252 3.272863 0
M  V30 39 H 0.552580 4.828099 1.123015 0
M  V30 40 H 2.108508 5.754053 -0.508024 0
M  V30 41 H 4.426834 5.020298 -0.539589 0
M  V30 42 H 5.178916 3.348951 1.075385 0
M  V30 43 H 3.624649 2.391025 2.741534 0
M  V30 44 H 0.139730 0.655381 0.198289 0
M  V30 45 H -2.143345 0.859962 -0.615958 0
M  V30 46 H -2.749650 -0.098285 0.796034 0
M  V30 47 H -3.553615 -1.356328 -1.474199 0
M  V30 48 H -2.512639 -4.334090 -0.409399 0
M  V30 49 H -1.369486 -6.260402 -1.566499 0
M  V30 50 H 0.980871 -5.244178 -5.396047 0
M  V30 51 H -0.008309 -6.705284 -5.844198 0
M  V30 52 H 1.463834 -6.854851 -4.858294 0
M  V30 53 H -0.210834 -3.673213 -4.770734 0
M  V30 54 H -1.325955 -1.795007 -3.640803 0
M  V30 END ATOM
M  V30 BEGIN BOND
M  V30 1 1 1 2
M  V30 2 1 2 3
M  V30 3 2 3 4
M  V30 4 1 3 5
M  V30 5 1 5 6
M  V30 6 1 6 7
M  V30 7 2 7 8
M  V30 8 1 7 9
M  V30 9 1 9 10
M  V30 10 1 10 11
M  V30 11 2 11 12
M  V30 12 1 12 13
M  V30 13 2 13 14
M  V30 14 1 14 15
M  V30 15 2 15 16
M  V30 16 1 9 17
M  V30 17 2 17 18
M  V30 18 1 17 19
M  V30 19 1 19 20
M  V30 20 1 20 21
M  V30 21 2 21 22
M  V30 22 1 21 23
M  V30 23 1 23 24
M  V30 24 2 24 25
M  V30 25 1 25 26
M  V30 26 2 26 27
M  V30 27 1 27 28
M  V30 28 1 28 29
M  V30 29 1 27 30
M  V30 30 2 30 31
M  V30 31 1 19 6
M  V30 32 1 31 24
M  V30 33 1 16 11
M  V30 34 1 1 32
M  V30 35 1 1 33
M  V30 36 1 1 34
M  V30 37 1 5 35
M  V30 38 1 5 36
M  V30 39 1 10 37
M  V30 40 1 10 38
M  V30 41 1 12 39
M  V30 42 1 13 40
M  V30 43 1 14 41
M  V30 44 1 15 42
M  V30 45 1 16 43
M  V30 46 1 19 44
M  V30 47 1 20 45
M  V30 48 1 20 46
M  V30 49 1 23 47
M  V30 50 1 25 48
M  V30 51 1 26 49
M  V30 52 1 29 50
M  V30 53 1 29 51
M  V30 54 1 29 52
M  V30 55 1 30 53
M  V30 56 1 31 54
M  V30 END BOND
M  V30 END CTAB
M  END
>  <Dataset>  (352) 
ChEMBL_Kinases

>  <Ligand_Instance>  (352) 
nan

>  <PDB_ID>  (352) 
nan

>  <Standardized_SMILES>  (352) 
COC(=O)CN1C(=S)N(Cc2ccccc2)C(=O)C1CC(=O)Nc1ccc(OC)cc1

>  <Name>  (352) 
nan

>  <Pocket>  (352) 
nan

>  <ATP_Site>  (352) 
nan

>  <Peripheral>  (352) 
nan

>  <Num_H_Atoms_ProtBoundConf>  (352) 
nan

>  <Num_Resolved_Atoms>  (352) 
nan

>  <Num_Not_Resolved_Atoms>  (352) 
nan

$$$$
CHEMBL1548809
     RDKit          3D

  0  0  0  0  0  0  0  0  0  0999 V3000
M  V30 BEGIN CTAB
M  V30 COUNTS 56 59 0 0 0
M  V30 BEGIN ATOM
M  V30 1 C 3.213263 1.569756 2.678743 0
M  V30 2 N 3.510395 1.024770 1.356142 0
M  V30 3 C 3.896905 -0.358886 1.227642 0
M  V30 4 C 5.156723 -0.917375 1.263518 0
M  V30 5 C 5.266471 -2.282485 1.117112 0
M  V30 6 C 4.152115 -3.077979 0.938573 0
M  V30 7 C 2.866156 -2.524801 0.900213 0
M  V30 8 C 2.771763 -1.136019 1.050845 0
M  V30 9 S 3.265692 2.373208 0.276588 0
M  V30 10 O 4.162500 3.512106 0.628781 0
M  V30 11 O 3.436959 1.876619 -1.122174 0
M  V30 12 C 1.559759 2.815045 0.455649 0
M  V30 13 C 1.117273 3.758839 1.377112 0
M  V30 14 C -0.225275 4.064629 1.486282 0
M  V30 15 C -1.124405 3.417157 0.663664 0
M  V30 16 C -0.729811 2.476163 -0.262667 0
M  V30 17 N -1.610893 1.765477 -1.138515 0
M  V30 18 C -2.064422 0.538965 -0.582800 0
M  V30 19 O -1.699988 0.162120 0.564230 0
M  V30 20 C -2.981650 -0.446330 -1.207387 0
M  V30 21 N -3.166922 -1.546834 -0.304157 0
M  V30 22 C -3.866321 -1.508505 0.960372 0
M  V30 23 C -4.885851 -2.649841 0.949082 0
M  V30 24 C -4.165909 -3.964030 1.014106 0
M  V30 25 C -3.096584 -3.969583 -0.008669 0
M  V30 26 C -2.515391 -5.184228 -0.381985 0
M  V30 27 C -1.498498 -5.319040 -1.332684 0
M  V30 28 C -1.049426 -4.174158 -1.932178 0
M  V30 29 C -1.617598 -2.957505 -1.571294 0
M  V30 30 C -2.630445 -2.833686 -0.623207 0
M  V30 31 C 0.614438 2.182812 -0.358525 0
M  V30 32 H 3.459018 0.801705 3.445854 0
M  V30 33 H 2.141148 1.866290 2.765461 0
M  V30 34 H 3.882279 2.434653 2.931590 0
M  V30 35 H 5.936352 -0.179763 1.408681 0
M  V30 36 H 6.270916 -2.660529 1.153819 0
M  V30 37 H 4.274073 -4.151828 0.826927 0
M  V30 38 H 2.020394 -3.192823 0.757448 0
M  V30 39 H 1.737307 -0.825341 1.003487 0
M  V30 40 H 1.887176 4.218919 1.981212 0
M  V30 41 H -0.555156 4.801678 2.208259 0
M  V30 42 H -2.202305 3.628385 0.716994 0
M  V30 43 H -1.988996 1.943399 -2.082447 0
M  V30 44 H -2.710490 -0.740447 -2.220749 0
M  V30 45 H -3.979151 0.086052 -1.304438 0
M  V30 46 H -3.161522 -1.739083 1.789039 0
M  V30 47 H -4.384934 -0.543318 1.116538 0
M  V30 48 H -5.511276 -2.545930 1.856062 0
M  V30 49 H -5.513008 -2.564770 0.060203 0
M  V30 50 H -3.700124 -4.046848 2.031611 0
M  V30 51 H -4.865730 -4.809173 0.870843 0
M  V30 52 H -2.883511 -6.100148 0.105285 0
M  V30 53 H -1.112194 -6.308348 -1.554611 0
M  V30 54 H -0.262485 -4.218817 -2.677285 0
M  V30 55 H -1.220773 -2.090659 -2.077182 0
M  V30 56 H 1.005471 1.444494 -1.072162 0
M  V30 END ATOM
M  V30 BEGIN BOND
M  V30 1 1 1 2
M  V30 2 1 2 3
M  V30 3 2 3 4
M  V30 4 1 4 5
M  V30 5 2 5 6
M  V30 6 1 6 7
M  V30 7 2 7 8
M  V30 8 1 2 9
M  V30 9 2 9 10
M  V30 10 2 9 11
M  V30 11 1 9 12
M  V30 12 2 12 13
M  V30 13 1 13 14
M  V30 14 2 14 15
M  V30 15 1 15 16
M  V30 16 1 16 17
M  V30 17 1 17 18
M  V30 18 2 18 19
M  V30 19 1 18 20
M  V30 20 1 20 21
M  V30 21 1 21 22
M  V30 22 1 22 23
M  V30 23 1 23 24
M  V30 24 1 24 25
M  V30 25 2 25 26
M  V30 26 1 26 27
M  V30 27 2 27 28
M  V30 28 1 28 29
M  V30 29 2 29 30
M  V30 30 2 16 31
M  V30 31 1 8 3
M  V30 32 1 31 12
M  V30 33 1 30 21
M  V30 34 1 30 25
M  V30 35 1 1 32
M  V30 36 1 1 33
M  V30 37 1 1 34
M  V30 38 1 4 35
M  V30 39 1 5 36
M  V30 40 1 6 37
M  V30 41 1 7 38
M  V30 42 1 8 39
M  V30 43 1 13 40
M  V30 44 1 14 41
M  V30 45 1 15 42
M  V30 46 1 17 43
M  V30 47 1 20 44
M  V30 48 1 20 45
M  V30 49 1 22 46
M  V30 50 1 22 47
M  V30 51 1 23 48
M  V30 52 1 23 49
M  V30 53 1 24 50
M  V30 54 1 24 51
M  V30 55 1 26 52
M  V30 56 1 27 53
M  V30 57 1 28 54
M  V30 58 1 29 55
M  V30 59 1 31 56
M  V30 END BOND
M  V30 END CTAB
M  END
>  <Dataset>  (353) 
ChEMBL_Kinases

>  <Ligand_Instance>  (353) 
nan

>  <PDB_ID>  (353) 
nan

>  <Standardized_SMILES>  (353) 
CN(c1ccccc1)S(=O)(=O)c1cccc(NC(=O)CN2CCCc3ccccc32)c1

>  <Name>  (353) 
nan

>  <Pocket>  (353) 
nan

>  <ATP_Site>  (353) 
nan

>  <Peripheral>  (353) 
nan

>  <Num_H_Atoms_ProtBoundConf>  (353) 
nan

>  <Num_Resolved_Atoms>  (353) 
nan

>  <Num_Not_Resolved_Atoms>  (353) 
nan

$$$$
CHEMBL1548931
     RDKit          3D

  0  0  0  0  0  0  0  0  0  0999 V3000
M  V30 BEGIN CTAB
M  V30 COUNTS 49 51 0 0 0
M  V30 BEGIN ATOM
M  V30 1 C -2.885396 -2.554171 3.905658 0
M  V30 2 C -1.628738 -1.775019 3.584306 0
M  V30 3 O -1.213973 -1.962139 2.246113 0
M  V30 4 C -0.102541 -1.367639 1.699240 0
M  V30 5 O 0.518644 -0.633258 2.508477 0
M  V30 6 C 0.312664 -1.570545 0.316712 0
M  V30 7 C 1.421355 -0.991127 -0.265610 0
M  V30 8 C 2.371573 -0.069822 0.414921 0
M  V30 9 N 1.817894 1.237897 0.563548 0
M  V30 10 C 1.479975 1.866033 -0.676071 0
M  V30 11 C 0.802633 3.196978 -0.361933 0
M  V30 12 C 0.275247 3.143280 1.078132 0
M  V30 13 C 1.496682 3.081399 2.005326 0
M  V30 14 C 2.532600 2.115224 1.425189 0
M  V30 15 C 3.291477 1.449584 2.525819 0
M  V30 16 O 1.420758 -1.436349 -1.501098 0
M  V30 17 C 0.408965 -2.241048 -1.735970 0
M  V30 18 C 0.021812 -2.925336 -2.871208 0
M  V30 19 C -1.104900 -3.722486 -2.857916 0
M  V30 20 C -1.837882 -3.816428 -1.669810 0
M  V30 21 O -2.961242 -4.633270 -1.717266 0
M  V30 22 C -3.786152 -4.801840 -0.553480 0
M  V30 23 C -1.499496 -3.156522 -0.506041 0
M  V30 24 C -0.365097 -2.374407 -0.576295 0
M  V30 25 H -3.800742 -1.971726 3.628906 0
M  V30 26 H -2.928432 -2.814244 4.983310 0
M  V30 27 H -2.920387 -3.499229 3.343511 0
M  V30 28 H -0.857940 -2.078123 4.316995 0
M  V30 29 H -1.887136 -0.694737 3.708802 0
M  V30 30 H 3.341870 -0.013340 -0.127838 0
M  V30 31 H 2.571618 -0.518283 1.400838 0
M  V30 32 H 2.435954 2.042250 -1.236848 0
M  V30 33 H 0.784335 1.245950 -1.238641 0
M  V30 34 H -0.039472 3.380349 -1.047870 0
M  V30 35 H 1.570809 3.977090 -0.469834 0
M  V30 36 H -0.329085 2.223865 1.190467 0
M  V30 37 H -0.322143 4.029957 1.294206 0
M  V30 38 H 1.897271 4.105601 2.126074 0
M  V30 39 H 1.190120 2.707640 3.011569 0
M  V30 40 H 3.245848 2.705781 0.778852 0
M  V30 41 H 4.015599 0.737387 2.102909 0
M  V30 42 H 2.590619 1.016838 3.243529 0
M  V30 43 H 3.925987 2.230824 3.030922 0
M  V30 44 H 0.571989 -2.871575 -3.810914 0
M  V30 45 H -1.417466 -4.264537 -3.745421 0
M  V30 46 H -3.056122 -5.021659 0.279674 0
M  V30 47 H -4.409029 -5.702323 -0.638827 0
M  V30 48 H -4.301325 -3.884911 -0.255774 0
M  V30 49 H -2.066704 -3.235285 0.396260 0
M  V30 END ATOM
M  V30 BEGIN BOND
M  V30 1 1 1 2
M  V30 2 1 2 3
M  V30 3 1 3 4
M  V30 4 2 4 5
M  V30 5 1 4 6
M  V30 6 2 6 7
M  V30 7 1 7 8
M  V30 8 1 8 9
M  V30 9 1 9 10
M  V30 10 1 10 11
M  V30 11 1 11 12
M  V30 12 1 12 13
M  V30 13 1 13 14
M  V30 14 1 14 15
M  V30 15 1 7 16
M  V30 16 1 16 17
M  V30 17 2 17 18
M  V30 18 1 18 19
M  V30 19 2 19 20
M  V30 20 1 20 21
M  V30 21 1 21 22
M  V30 22 1 20 23
M  V30 23 2 23 24
M  V30 24 1 24 6
M  V30 25 1 14 9
M  V30 26 1 24 17
M  V30 27 1 1 25
M  V30 28 1 1 26
M  V30 29 1 1 27
M  V30 30 1 2 28
M  V30 31 1 2 29
M  V30 32 1 8 30
M  V30 33 1 8 31
M  V30 34 1 10 32
M  V30 35 1 10 33
M  V30 36 1 11 34
M  V30 37 1 11 35
M  V30 38 1 12 36
M  V30 39 1 12 37
M  V30 40 1 13 38
M  V30 41 1 13 39
M  V30 42 1 14 40
M  V30 43 1 15 41
M  V30 44 1 15 42
M  V30 45 1 15 43
M  V30 46 1 18 44
M  V30 47 1 19 45
M  V30 48 1 22 46
M  V30 49 1 22 47
M  V30 50 1 22 48
M  V30 51 1 23 49
M  V30 END BOND
M  V30 END CTAB
M  END
>  <Dataset>  (354) 
ChEMBL_Kinases

>  <Ligand_Instance>  (354) 
nan

>  <PDB_ID>  (354) 
nan

>  <Standardized_SMILES>  (354) 
CCOC(=O)c1c(CN2CCCCC2C)oc2ccc(OC)cc12

>  <Name>  (354) 
nan

>  <Pocket>  (354) 
nan

>  <ATP_Site>  (354) 
nan

>  <Peripheral>  (354) 
nan

>  <Num_H_Atoms_ProtBoundConf>  (354) 
nan

>  <Num_Resolved_Atoms>  (354) 
nan

>  <Num_Not_Resolved_Atoms>  (354) 
nan

$$$$
CHEMBL1548941
     RDKit          3D

  0  0  0  0  0  0  0  0  0  0999 V3000
M  V30 BEGIN CTAB
M  V30 COUNTS 51 53 0 0 0
M  V30 BEGIN ATOM
M  V30 1 C 2.537089 -7.028064 0.550011 0
M  V30 2 O 1.966601 -5.767402 0.822953 0
M  V30 3 C 1.358369 -5.063262 -0.192910 0
M  V30 4 C 1.169128 -5.337118 -1.525515 0
M  V30 5 C 0.518353 -4.465735 -2.368829 0
M  V30 6 C 0.035091 -3.274362 -1.871715 0
M  V30 7 C 0.199651 -2.949815 -0.534698 0
M  V30 8 C -0.331272 -1.643908 0.002119 0
M  V30 9 N 0.691669 -0.691328 0.212342 0
M  V30 10 C 1.474638 -0.281825 -0.872100 0
M  V30 11 C 2.346723 0.898526 -0.653559 0
M  V30 12 C 1.773224 1.929231 0.274760 0
M  V30 13 C 1.185931 1.357673 1.528058 0
M  V30 14 C 0.060935 2.126518 2.103058 0
M  V30 15 O 0.154988 2.613399 3.288725 0
M  V30 16 C -1.212966 2.426264 1.476830 0
M  V30 17 C -1.609707 2.040026 0.215102 0
M  V30 18 C -2.818758 2.324202 -0.379289 0
M  V30 19 C -3.736317 3.067573 0.343683 0
M  V30 20 C -3.389788 3.476701 1.605832 0
M  V30 21 C -2.146462 3.167969 2.180076 0
M  V30 22 S -1.879146 3.789395 3.838395 0
M  V30 23 C -2.462753 2.517795 5.020573 0
M  V30 24 C 0.819062 -0.087399 1.472117 0
M  V30 25 C 0.868172 -3.862370 0.295352 0
M  V30 26 O 0.969479 -3.415121 1.628229 0
M  V30 27 H 3.666484 -6.959107 0.522022 0
M  V30 28 H 2.175401 -7.522258 -0.347764 0
M  V30 29 H 2.349091 -7.750987 1.391730 0
M  V30 30 H 1.581761 -6.287882 -1.821002 0
M  V30 31 H 0.415438 -4.765923 -3.403211 0
M  V30 32 H -0.476719 -2.605057 -2.565127 0
M  V30 33 H -1.024919 -1.253165 -0.767117 0
M  V30 34 H -0.867370 -1.933634 0.933942 0
M  V30 35 H 2.149410 -1.147236 -1.145776 0
M  V30 36 H 0.843617 -0.177705 -1.805155 0
M  V30 37 H 3.366522 0.561022 -0.321880 0
M  V30 38 H 2.510597 1.397486 -1.647993 0
M  V30 39 H 1.102816 2.643869 -0.265062 0
M  V30 40 H 2.662118 2.597176 0.513342 0
M  V30 41 H 2.015114 1.438039 2.305183 0
M  V30 42 H -0.940794 1.462893 -0.385331 0
M  V30 43 H -3.060001 1.985662 -1.376962 0
M  V30 44 H -4.695870 3.309905 -0.089853 0
M  V30 45 H -4.121732 4.055100 2.151587 0
M  V30 46 H -1.591900 2.093776 5.589576 0
M  V30 47 H -2.994565 1.693654 4.478844 0
M  V30 48 H -3.146297 2.929134 5.765996 0
M  V30 49 H 1.489957 -0.681420 2.178863 0
M  V30 50 H -0.186584 -0.202932 1.989579 0
M  V30 51 H 0.484192 -3.874682 2.386628 0
M  V30 END ATOM
M  V30 BEGIN BOND
M  V30 1 1 1 2
M  V30 2 1 2 3
M  V30 3 2 3 4
M  V30 4 1 4 5
M  V30 5 2 5 6
M  V30 6 1 6 7
M  V30 7 1 7 8
M  V30 8 1 8 9
M  V30 9 1 9 10
M  V30 10 1 10 11
M  V30 11 1 11 12
M  V30 12 1 12 13
M  V30 13 1 13 14
M  V30 14 2 14 15
M  V30 15 1 14 16
M  V30 16 2 16 17
M  V30 17 1 17 18
M  V30 18 2 18 19
M  V30 19 1 19 20
M  V30 20 2 20 21
M  V30 21 1 21 22
M  V30 22 1 22 23
M  V30 23 1 13 24
M  V30 24 2 7 25
M  V30 25 1 25 26
M  V30 26 1 25 3
M  V30 27 1 24 9
M  V30 28 1 21 16
M  V30 29 1 1 27
M  V30 30 1 1 28
M  V30 31 1 1 29
M  V30 32 1 4 30
M  V30 33 1 5 31
M  V30 34 1 6 32
M  V30 35 1 8 33
M  V30 36 1 8 34
M  V30 37 1 10 35
M  V30 38 1 10 36
M  V30 39 1 11 37
M  V30 40 1 11 38
M  V30 41 1 12 39
M  V30 42 1 12 40
M  V30 43 1 13 41
M  V30 44 1 17 42
M  V30 45 1 18 43
M  V30 46 1 19 44
M  V30 47 1 20 45
M  V30 48 1 23 46
M  V30 49 1 23 47
M  V30 50 1 23 48
M  V30 51 1 24 49
M  V30 52 1 24 50
M  V30 53 1 26 51
M  V30 END BOND
M  V30 END CTAB
M  END
>  <Dataset>  (355) 
ChEMBL_Kinases

>  <Ligand_Instance>  (355) 
nan

>  <PDB_ID>  (355) 
nan

>  <Standardized_SMILES>  (355) 
COc1cccc(CN2CCCC(C(=O)c3ccccc3SC)C2)c1O

>  <Name>  (355) 
nan

>  <Pocket>  (355) 
nan

>  <ATP_Site>  (355) 
nan

>  <Peripheral>  (355) 
nan

>  <Num_H_Atoms_ProtBoundConf>  (355) 
nan

>  <Num_Resolved_Atoms>  (355) 
nan

>  <Num_Not_Resolved_Atoms>  (355) 
nan

$$$$
CHEMBL1549035
     RDKit          3D

  0  0  0  0  0  0  0  0  0  0999 V3000
M  V30 BEGIN CTAB
M  V30 COUNTS 45 47 0 0 0
M  V30 BEGIN ATOM
M  V30 1 C 1.289477 -6.171886 -3.147488 0
M  V30 2 C 1.676679 -4.735557 -3.102683 0
M  V30 3 O 2.065283 -4.183048 -4.186900 0
M  V30 4 N 1.599109 -4.028788 -1.847932 0
M  V30 5 C 1.168070 -4.563694 -0.548159 0
M  V30 6 C -0.103339 -3.827073 -0.151057 0
M  V30 7 C -0.089148 -2.404051 -0.674398 0
M  V30 8 C 1.338384 -1.971149 -0.716446 0
M  V30 9 C 1.488993 -0.522049 -0.618566 0
M  V30 10 O 1.944892 -0.000810 -1.673363 0
M  V30 11 C 1.174198 0.311621 0.529158 0
M  V30 12 C 0.710636 -0.122833 1.750482 0
M  V30 13 C 0.412197 0.693242 2.819673 0
M  V30 14 C 0.597275 2.048737 2.638401 0
M  V30 15 O 0.321637 2.917889 3.655918 0
M  V30 16 C -0.857521 3.547518 3.934494 0
M  V30 17 C -0.774020 4.372031 5.062420 0
M  V30 18 C -1.887334 5.092821 5.492130 0
M  V30 19 C -3.036304 4.951285 4.766483 0
M  V30 20 C -3.159033 4.148562 3.648956 0
M  V30 21 C -2.040708 3.441870 3.240179 0
M  V30 22 C 1.058902 2.562328 1.444045 0
M  V30 23 C 1.332850 1.677328 0.426914 0
M  V30 24 C 2.000663 -2.613718 -1.892231 0
M  V30 25 H 1.572738 -6.728076 -2.228002 0
M  V30 26 H 0.226611 -6.311885 -3.416725 0
M  V30 27 H 1.910215 -6.655031 -3.954494 0
M  V30 28 H 1.961360 -4.503760 0.215800 0
M  V30 29 H 0.892327 -5.632182 -0.648937 0
M  V30 30 H -0.941377 -4.331934 -0.660297 0
M  V30 31 H -0.282909 -3.836606 0.922225 0
M  V30 32 H -0.478159 -2.391969 -1.727624 0
M  V30 33 H -0.674506 -1.750833 -0.016990 0
M  V30 34 H 1.851477 -2.422175 0.193120 0
M  V30 35 H 0.572758 -1.183551 1.896151 0
M  V30 36 H 0.051178 0.257142 3.744903 0
M  V30 37 H 0.117382 4.520075 5.676119 0
M  V30 38 H -1.850261 5.732279 6.353824 0
M  V30 39 H -3.958391 5.469502 5.018406 0
M  V30 40 H -4.041491 4.011369 3.053970 0
M  V30 41 H -2.010474 2.780374 2.380908 0
M  V30 42 H 1.213440 3.627070 1.275795 0
M  V30 43 H 1.699077 2.083285 -0.521187 0
M  V30 44 H 1.661892 -2.205234 -2.864457 0
M  V30 45 H 3.104109 -2.521442 -1.822390 0
M  V30 END ATOM
M  V30 BEGIN BOND
M  V30 1 1 1 2
M  V30 2 2 2 3
M  V30 3 1 2 4
M  V30 4 1 4 5
M  V30 5 1 5 6
M  V30 6 1 6 7
M  V30 7 1 7 8
M  V30 8 1 8 9
M  V30 9 2 9 10
M  V30 10 1 9 11
M  V30 11 2 11 12
M  V30 12 1 12 13
M  V30 13 2 13 14
M  V30 14 1 14 15
M  V30 15 1 15 16
M  V30 16 2 16 17
M  V30 17 1 17 18
M  V30 18 2 18 19
M  V30 19 1 19 20
M  V30 20 2 20 21
M  V30 21 1 14 22
M  V30 22 2 22 23
M  V30 23 1 8 24
M  V30 24 1 24 4
M  V30 25 1 23 11
M  V30 26 1 21 16
M  V30 27 1 1 25
M  V30 28 1 1 26
M  V30 29 1 1 27
M  V30 30 1 5 28
M  V30 31 1 5 29
M  V30 32 1 6 30
M  V30 33 1 6 31
M  V30 34 1 7 32
M  V30 35 1 7 33
M  V30 36 1 8 34
M  V30 37 1 12 35
M  V30 38 1 13 36
M  V30 39 1 17 37
M  V30 40 1 18 38
M  V30 41 1 19 39
M  V30 42 1 20 40
M  V30 43 1 21 41
M  V30 44 1 22 42
M  V30 45 1 23 43
M  V30 46 1 24 44
M  V30 47 1 24 45
M  V30 END BOND
M  V30 END CTAB
M  END
>  <Dataset>  (356) 
ChEMBL_Kinases

>  <Ligand_Instance>  (356) 
nan

>  <PDB_ID>  (356) 
nan

>  <Standardized_SMILES>  (356) 
CC(=O)N1CCCC(C(=O)c2ccc(Oc3ccccc3)cc2)C1

>  <Name>  (356) 
nan

>  <Pocket>  (356) 
nan

>  <ATP_Site>  (356) 
nan

>  <Peripheral>  (356) 
nan

>  <Num_H_Atoms_ProtBoundConf>  (356) 
nan

>  <Num_Resolved_Atoms>  (356) 
nan

>  <Num_Not_Resolved_Atoms>  (356) 
nan

$$$$
CHEMBL1549092
     RDKit          3D

  0  0  0  0  0  0  0  0  0  0999 V3000
M  V30 BEGIN CTAB
M  V30 COUNTS 43 45 0 0 0
M  V30 BEGIN ATOM
M  V30 1 C 1.691612 -4.003723 3.528440 0
M  V30 2 C 1.498779 -2.808433 2.658420 0
M  V30 3 C 2.389031 -2.440787 1.690077 0
M  V30 4 C 1.861503 -1.291651 1.109036 0
M  V30 5 C 2.567381 -0.611578 0.039242 0
M  V30 6 O 3.666845 -1.122845 -0.374583 0
M  V30 7 C 2.523998 0.545162 -0.847960 0
M  V30 8 O 1.380746 1.381861 -0.633293 0
M  V30 9 C 1.254763 2.514435 -1.427166 0
M  V30 10 C 2.195148 2.832431 -2.389706 0
M  V30 11 C 1.981661 3.979135 -3.125315 0
M  V30 12 C 0.909476 4.859606 -3.000745 0
M  V30 13 N 0.021725 4.504573 -2.050029 0
M  V30 14 C 0.203670 3.391596 -1.317298 0
M  V30 15 N -0.815109 3.181458 -0.377112 0 CHG=1 VAL=4
M  V30 16 O -2.008988 3.538986 -0.409234 0
M  V30 17 O -1.619917 2.866383 0.645766 0 CHG=-1 VAL=1
M  V30 18 C 0.683676 -1.058447 1.781999 0
M  V30 19 C -0.222648 0.062239 1.496694 0
M  V30 20 N 0.451099 -1.975659 2.728498 0
M  V30 21 C -0.645315 -2.123937 3.658330 0
M  V30 22 C -1.667320 -2.987180 3.007543 0
M  V30 23 C -1.842920 -4.347000 2.986015 0
M  V30 24 C -2.902988 -4.859658 2.288951 0
M  V30 25 C -3.751098 -3.979294 1.635481 0
M  V30 26 S -3.064649 -2.317027 1.988974 0
M  V30 27 H 1.250492 -4.894093 3.046758 0
M  V30 28 H 2.776132 -4.154971 3.748690 0
M  V30 29 H 1.203249 -3.824008 4.490514 0
M  V30 30 H 3.302915 -2.984661 1.472728 0
M  V30 31 H 3.446590 1.173943 -0.856276 0
M  V30 32 H 2.409607 0.165418 -1.913392 0
M  V30 33 H 3.053176 2.221088 -2.558059 0
M  V30 34 H 2.727840 4.210189 -3.871490 0
M  V30 35 H 0.871893 5.723866 -3.647996 0
M  V30 36 H -0.618685 0.004946 0.463328 0
M  V30 37 H -1.140895 -0.011207 2.159889 0
M  V30 38 H 0.236057 1.030982 1.755175 0
M  V30 39 H -0.346521 -2.536837 4.636023 0
M  V30 40 H -1.118686 -1.119654 3.841012 0
M  V30 41 H -1.111417 -4.915838 3.535979 0
M  V30 42 H -3.079849 -5.933553 2.245762 0
M  V30 43 H -4.627091 -4.265639 1.049121 0
M  V30 END ATOM
M  V30 BEGIN BOND
M  V30 1 1 1 2
M  V30 2 2 2 3
M  V30 3 1 3 4
M  V30 4 1 4 5
M  V30 5 2 5 6
M  V30 6 1 5 7
M  V30 7 1 7 8
M  V30 8 1 8 9
M  V30 9 2 9 10
M  V30 10 1 10 11
M  V30 11 2 11 12
M  V30 12 1 12 13
M  V30 13 2 13 14
M  V30 14 1 14 15
M  V30 15 2 15 16
M  V30 16 1 15 17
M  V30 17 2 4 18
M  V30 18 1 18 19
M  V30 19 1 18 20
M  V30 20 1 20 21
M  V30 21 1 21 22
M  V30 22 2 22 23
M  V30 23 1 23 24
M  V30 24 2 24 25
M  V30 25 1 25 26
M  V30 26 1 20 2
M  V30 27 1 26 22
M  V30 28 1 14 9
M  V30 29 1 1 27
M  V30 30 1 1 28
M  V30 31 1 1 29
M  V30 32 1 3 30
M  V30 33 1 7 31
M  V30 34 1 7 32
M  V30 35 1 10 33
M  V30 36 1 11 34
M  V30 37 1 12 35
M  V30 38 1 19 36
M  V30 39 1 19 37
M  V30 40 1 19 38
M  V30 41 1 21 39
M  V30 42 1 21 40
M  V30 43 1 23 41
M  V30 44 1 24 42
M  V30 45 1 25 43
M  V30 END BOND
M  V30 END CTAB
M  END
>  <Dataset>  (357) 
ChEMBL_Kinases

>  <Ligand_Instance>  (357) 
nan

>  <PDB_ID>  (357) 
nan

>  <Standardized_SMILES>  (357) 
Cc1cc(C(=O)COc2cccnc2[N+](=O)[O-])c(C)n1Cc1cccs1

>  <Name>  (357) 
nan

>  <Pocket>  (357) 
nan

>  <ATP_Site>  (357) 
nan

>  <Peripheral>  (357) 
nan

>  <Num_H_Atoms_ProtBoundConf>  (357) 
nan

>  <Num_Resolved_Atoms>  (357) 
nan

>  <Num_Not_Resolved_Atoms>  (357) 
nan

$$$$
CHEMBL1549190
     RDKit          3D

  0  0  0  0  0  0  0  0  0  0999 V3000
M  V30 BEGIN CTAB
M  V30 COUNTS 48 50 0 0 0
M  V30 BEGIN ATOM
M  V30 1 O -1.457711 -6.380811 -0.343559 0
M  V30 2 C -0.475370 -6.099176 0.384261 0
M  V30 3 O -1.618418 -6.365863 1.113039 0
M  V30 4 C 0.926903 -5.750674 0.058008 0
M  V30 5 C 1.078135 -4.246363 -0.214904 0
M  V30 6 C 0.665957 -3.522461 1.003477 0
M  V30 7 C 0.747492 -2.064713 0.931423 0
M  V30 8 O 1.197394 -1.821504 -0.214111 0
M  V30 9 N 0.349190 -1.274598 2.043381 0
M  V30 10 C 0.397859 0.147303 2.064284 0
M  V30 11 C -0.743467 0.786907 1.636756 0
M  V30 12 C -0.790292 2.173897 1.620535 0
M  V30 13 C 0.335108 2.885002 2.043622 0
M  V30 14 N 0.341932 4.328484 2.050149 0
M  V30 15 C 0.846926 5.387810 1.367591 0
M  V30 16 C 0.368285 6.488758 2.040009 0
M  V30 17 C -0.407703 6.110617 3.103843 0
M  V30 18 C -1.080865 7.057577 4.040193 0
M  V30 19 F -0.758290 6.745439 5.365496 0
M  V30 20 F -0.718410 8.349665 3.818178 0
M  V30 21 F -2.451168 6.922124 3.926058 0
M  V30 22 N -0.387104 4.775499 3.059513 0
M  V30 23 C 1.464836 2.219891 2.466796 0
M  V30 24 C 1.538336 0.841908 2.492809 0
M  V30 25 C 0.328938 -3.945760 -1.434779 0
M  V30 26 C 0.915725 -3.907611 -2.705443 0
M  V30 27 C 0.121207 -3.603699 -3.793302 0
M  V30 28 C -1.218922 -3.331406 -3.729942 0
M  V30 29 C -1.789051 -3.372890 -2.457497 0
M  V30 30 C -1.036660 -3.670148 -1.350427 0
M  V30 31 H -1.661834 -6.169305 2.099514 0
M  V30 32 H 1.149221 -6.230124 -0.922647 0
M  V30 33 H 1.594184 -6.080501 0.860732 0
M  V30 34 H 2.161543 -4.107177 -0.412882 0
M  V30 35 H 1.357763 -3.849317 1.834138 0
M  V30 36 H -0.336206 -3.849322 1.322387 0
M  V30 37 H 0.002356 -1.782590 2.887502 0
M  V30 38 H -1.621582 0.257805 1.306845 0
M  V30 39 H -1.657501 2.741243 1.295720 0
M  V30 40 H 1.446205 5.105998 0.538530 0
M  V30 41 H 0.654238 7.463269 1.658247 0
M  V30 42 H 2.345382 2.789758 2.797373 0
M  V30 43 H 2.401527 0.277626 2.815828 0
M  V30 44 H 1.973375 -4.114489 -2.814376 0
M  V30 45 H 0.529528 -3.561287 -4.808276 0
M  V30 46 H -1.839822 -3.094674 -4.580261 0
M  V30 47 H -2.859170 -3.159977 -2.368510 0
M  V30 48 H -1.585976 -3.667353 -0.400592 0
M  V30 END ATOM
M  V30 BEGIN BOND
M  V30 1 2 1 2
M  V30 2 1 2 3
M  V30 3 1 2 4
M  V30 4 1 4 5
M  V30 5 1 5 6
M  V30 6 1 6 7
M  V30 7 2 7 8
M  V30 8 1 7 9
M  V30 9 1 9 10
M  V30 10 2 10 11
M  V30 11 1 11 12
M  V30 12 2 12 13
M  V30 13 1 13 14
M  V30 14 1 14 15
M  V30 15 2 15 16
M  V30 16 1 16 17
M  V30 17 1 17 18
M  V30 18 1 18 19
M  V30 19 1 18 20
M  V30 20 1 18 21
M  V30 21 2 17 22
M  V30 22 1 13 23
M  V30 23 2 23 24
M  V30 24 1 5 25
M  V30 25 2 25 26
M  V30 26 1 26 27
M  V30 27 2 27 28
M  V30 28 1 28 29
M  V30 29 2 29 30
M  V30 30 1 24 10
M  V30 31 1 30 25
M  V30 32 1 22 14
M  V30 33 1 3 31
M  V30 34 1 4 32
M  V30 35 1 4 33
M  V30 36 1 5 34
M  V30 37 1 6 35
M  V30 38 1 6 36
M  V30 39 1 9 37
M  V30 40 1 11 38
M  V30 41 1 12 39
M  V30 42 1 15 40
M  V30 43 1 16 41
M  V30 44 1 23 42
M  V30 45 1 24 43
M  V30 46 1 26 44
M  V30 47 1 27 45
M  V30 48 1 28 46
M  V30 49 1 29 47
M  V30 50 1 30 48
M  V30 END BOND
M  V30 END CTAB
M  END
>  <Dataset>  (358) 
ChEMBL_Kinases

>  <Ligand_Instance>  (358) 
nan

>  <PDB_ID>  (358) 
nan

>  <Standardized_SMILES>  (358) 
O=C(O)CC(CC(=O)Nc1ccc(-n2ccc(C(F)(F)F)n2)cc1)c1ccccc1

>  <Name>  (358) 
nan

>  <Pocket>  (358) 
nan

>  <ATP_Site>  (358) 
nan

>  <Peripheral>  (358) 
nan

>  <Num_H_Atoms_ProtBoundConf>  (358) 
nan

>  <Num_Resolved_Atoms>  (358) 
nan

>  <Num_Not_Resolved_Atoms>  (358) 
nan

$$$$
CHEMBL1548693
     RDKit          3D

  0  0  0  0  0  0  0  0  0  0999 V3000
M  V30 BEGIN CTAB
M  V30 COUNTS 33 34 0 0 0
M  V30 BEGIN ATOM
M  V30 1 C -3.186753 -3.542954 4.033989 0
M  V30 2 O -2.410045 -3.666248 2.862115 0
M  V30 3 C -1.864102 -2.508940 2.322442 0
M  V30 4 C -2.088781 -1.292254 2.931109 0
M  V30 5 C -1.539724 -0.163975 2.380225 0
M  V30 6 C -0.765384 -0.151923 1.242725 0
M  V30 7 C -0.194219 1.059407 0.678098 0
M  V30 8 C -0.410204 2.337961 1.287817 0
M  V30 9 S 0.565834 3.456960 0.105827 0
M  V30 10 C 1.033321 2.058462 -0.901607 0
M  V30 11 N 1.871946 2.096698 -2.127812 0
M  V30 12 C 3.265527 1.947260 -1.892276 0
M  V30 13 C 4.227947 1.965265 -3.023289 0
M  V30 14 O 3.894744 1.787819 -0.804341 0
M  V30 15 N 0.544659 1.080003 -0.405240 0
M  V30 16 C -0.581836 -1.398091 0.687899 0
M  V30 17 C -1.099300 -2.576626 1.180780 0
M  V30 18 O -0.883730 -3.798280 0.584370 0
M  V30 19 C -0.106534 -3.938925 -0.592320 0
M  V30 20 H -4.043825 -2.840099 3.883884 0
M  V30 21 H -2.523026 -3.084906 4.820442 0
M  V30 22 H -3.575918 -4.532888 4.365003 0
M  V30 23 H -2.690213 -1.265507 3.822874 0
M  V30 24 H -1.758122 0.746652 2.909762 0
M  V30 25 H -1.038971 2.509742 2.252830 0
M  V30 26 H 1.586970 2.216187 -3.125082 0
M  V30 27 H 3.755427 2.392533 -3.927059 0
M  V30 28 H 5.138268 2.555017 -2.818302 0
M  V30 29 H 4.558210 0.938471 -3.288790 0
M  V30 30 H 0.027610 -1.465765 -0.224864 0
M  V30 31 H -0.302948 -4.929103 -1.070116 0
M  V30 32 H -0.448419 -3.130255 -1.302503 0
M  V30 33 H 0.982571 -3.843769 -0.413483 0
M  V30 END ATOM
M  V30 BEGIN BOND
M  V30 1 1 1 2
M  V30 2 1 2 3
M  V30 3 2 3 4
M  V30 4 1 4 5
M  V30 5 2 5 6
M  V30 6 1 6 7
M  V30 7 2 7 8
M  V30 8 1 8 9
M  V30 9 1 9 10
M  V30 10 1 10 11
M  V30 11 1 11 12
M  V30 12 1 12 13
M  V30 13 2 12 14
M  V30 14 2 10 15
M  V30 15 1 6 16
M  V30 16 2 16 17
M  V30 17 1 17 18
M  V30 18 1 18 19
M  V30 19 1 17 3
M  V30 20 1 15 7
M  V30 21 1 1 20
M  V30 22 1 1 21
M  V30 23 1 1 22
M  V30 24 1 4 23
M  V30 25 1 5 24
M  V30 26 1 8 25
M  V30 27 1 11 26
M  V30 28 1 13 27
M  V30 29 1 13 28
M  V30 30 1 13 29
M  V30 31 1 16 30
M  V30 32 1 19 31
M  V30 33 1 19 32
M  V30 34 1 19 33
M  V30 END BOND
M  V30 END CTAB
M  END
>  <Dataset>  (359) 
ChEMBL_Kinases

>  <Ligand_Instance>  (359) 
nan

>  <PDB_ID>  (359) 
nan

>  <Standardized_SMILES>  (359) 
COc1ccc(-c2csc(NC(C)=O)n2)cc1OC

>  <Name>  (359) 
nan

>  <Pocket>  (359) 
nan

>  <ATP_Site>  (359) 
nan

>  <Peripheral>  (359) 
nan

>  <Num_H_Atoms_ProtBoundConf>  (359) 
nan

>  <Num_Resolved_Atoms>  (359) 
nan

>  <Num_Not_Resolved_Atoms>  (359) 
nan

$$$$
CHEMBL1566482
     RDKit          3D

  0  0  0  0  0  0  0  0  0  0999 V3000
M  V30 BEGIN CTAB
M  V30 COUNTS 61 63 0 0 0
M  V30 BEGIN ATOM
M  V30 1 C 1.518581 -1.878573 3.724562 0
M  V30 2 C 2.703996 -2.596337 3.129018 0
M  V30 3 N 3.758048 -1.699994 2.701445 0
M  V30 4 C 3.926529 -0.582980 3.602402 0
M  V30 5 C 5.424022 -0.278474 3.691626 0
M  V30 6 S 3.547456 -1.209319 1.055912 0
M  V30 7 O 3.621388 -2.419564 0.201683 0
M  V30 8 O 4.662611 -0.220563 0.776591 0
M  V30 9 C 2.045055 -0.338252 0.850157 0
M  V30 10 C 1.968356 1.031234 0.993047 0
M  V30 11 C 0.769667 1.694845 0.825547 0
M  V30 12 C -0.408977 1.054710 0.511210 0
M  V30 13 N -1.599723 1.781768 0.369617 0
M  V30 14 C -1.726408 3.229334 0.419574 0
M  V30 15 C -2.702414 3.346824 1.599597 0
M  V30 16 C -3.616984 2.122251 1.414234 0
M  V30 17 C -2.978724 1.487755 0.162418 0
M  V30 18 C -0.271205 -0.308559 0.380940 0
M  V30 19 N -1.405599 -1.094236 0.040153 0
M  V30 20 C -1.479789 -1.240117 -1.395156 0
M  V30 21 O -0.601625 -0.697585 -2.114010 0
M  V30 22 C -2.625643 -2.047666 -1.948103 0
M  V30 23 C -2.583332 -2.115117 -3.436995 0
M  V30 24 C -2.486579 -3.540826 -3.950337 0
M  V30 25 C -1.295328 -4.261246 -3.357113 0
M  V30 26 C -1.171890 -4.001356 -1.866587 0
M  V30 27 C -2.449727 -3.437159 -1.320554 0
M  V30 28 C 0.893624 -1.029444 0.535173 0
M  V30 29 H 1.509525 -1.914685 4.833726 0
M  V30 30 H 0.603525 -2.424704 3.365292 0
M  V30 31 H 1.484408 -0.804959 3.441663 0
M  V30 32 H 2.422773 -3.198728 2.225776 0
M  V30 33 H 3.142013 -3.334489 3.846774 0
M  V30 34 H 3.334898 0.314257 3.311260 0
M  V30 35 H 3.613831 -0.943121 4.621068 0
M  V30 36 H 5.739891 -0.073043 4.734639 0
M  V30 37 H 5.704024 0.581796 3.024184 0
M  V30 38 H 6.044216 -1.134659 3.354060 0
M  V30 39 H 2.906458 1.503343 1.238957 0
M  V30 40 H 0.885241 2.755481 0.972599 0
M  V30 41 H -0.796639 3.764364 0.565131 0
M  V30 42 H -2.276646 3.561669 -0.509762 0
M  V30 43 H -2.099151 3.221231 2.522204 0
M  V30 44 H -3.246324 4.289616 1.570197 0
M  V30 45 H -4.625087 2.494710 1.215020 0
M  V30 46 H -3.542540 1.434723 2.276592 0
M  V30 47 H -3.334456 2.085847 -0.716022 0
M  V30 48 H -3.269971 0.453351 0.050828 0
M  V30 49 H -2.099515 -1.516754 0.726792 0
M  V30 50 H -3.576518 -1.654929 -1.536410 0
M  V30 51 H -3.569447 -1.726807 -3.820323 0
M  V30 52 H -1.813668 -1.464415 -3.911392 0
M  V30 53 H -3.429062 -4.070759 -3.732385 0
M  V30 54 H -2.375573 -3.489912 -5.046289 0
M  V30 55 H -1.452523 -5.347538 -3.518064 0
M  V30 56 H -0.359632 -3.946540 -3.866744 0
M  V30 57 H -0.292636 -3.360601 -1.646964 0
M  V30 58 H -0.982789 -4.973262 -1.324386 0
M  V30 59 H -2.382261 -3.287644 -0.242053 0
M  V30 60 H -3.275696 -4.106935 -1.608779 0
M  V30 61 H 0.946133 -2.097870 0.422191 0
M  V30 END ATOM
M  V30 BEGIN BOND
M  V30 1 1 1 2
M  V30 2 1 2 3
M  V30 3 1 3 4
M  V30 4 1 4 5
M  V30 5 1 3 6
M  V30 6 2 6 7
M  V30 7 2 6 8
M  V30 8 1 6 9
M  V30 9 2 9 10
M  V30 10 1 10 11
M  V30 11 2 11 12
M  V30 12 1 12 13
M  V30 13 1 13 14
M  V30 14 1 14 15
M  V30 15 1 15 16
M  V30 16 1 16 17
M  V30 17 1 12 18
M  V30 18 1 18 19
M  V30 19 1 19 20
M  V30 20 2 20 21
M  V30 21 1 20 22
M  V30 22 1 22 23
M  V30 23 1 23 24
M  V30 24 1 24 25
M  V30 25 1 25 26
M  V30 26 1 26 27
M  V30 27 2 18 28
M  V30 28 1 28 9
M  V30 29 1 17 13
M  V30 30 1 27 22
M  V30 31 1 1 29
M  V30 32 1 1 30
M  V30 33 1 1 31
M  V30 34 1 2 32
M  V30 35 1 2 33
M  V30 36 1 4 34
M  V30 37 1 4 35
M  V30 38 1 5 36
M  V30 39 1 5 37
M  V30 40 1 5 38
M  V30 41 1 10 39
M  V30 42 1 11 40
M  V30 43 1 14 41
M  V30 44 1 14 42
M  V30 45 1 15 43
M  V30 46 1 15 44
M  V30 47 1 16 45
M  V30 48 1 16 46
M  V30 49 1 17 47
M  V30 50 1 17 48
M  V30 51 1 19 49
M  V30 52 1 22 50
M  V30 53 1 23 51
M  V30 54 1 23 52
M  V30 55 1 24 53
M  V30 56 1 24 54
M  V30 57 1 25 55
M  V30 58 1 25 56
M  V30 59 1 26 57
M  V30 60 1 26 58
M  V30 61 1 27 59
M  V30 62 1 27 60
M  V30 63 1 28 61
M  V30 END BOND
M  V30 END CTAB
M  END
>  <Dataset>  (360) 
ChEMBL_Kinases

>  <Ligand_Instance>  (360) 
nan

>  <PDB_ID>  (360) 
nan

>  <Standardized_SMILES>  (360) 
CCN(CC)S(=O)(=O)c1ccc(N2CCCC2)c(NC(=O)C2CCCCC2)c1

>  <Name>  (360) 
nan

>  <Pocket>  (360) 
nan

>  <ATP_Site>  (360) 
nan

>  <Peripheral>  (360) 
nan

>  <Num_H_Atoms_ProtBoundConf>  (360) 
nan

>  <Num_Resolved_Atoms>  (360) 
nan

>  <Num_Not_Resolved_Atoms>  (360) 
nan

$$$$
CHEMBL1566396
     RDKit          3D

  0  0  0  0  0  0  0  0  0  0999 V3000
M  V30 BEGIN CTAB
M  V30 COUNTS 49 51 0 0 0
M  V30 BEGIN ATOM
M  V30 1 C -1.946443 -5.207285 2.454243 0
M  V30 2 O -0.991622 -5.500057 1.451097 0
M  V30 3 C -0.713855 -4.583114 0.448848 0
M  V30 4 C -1.335494 -3.342033 0.358113 0
M  V30 5 C -1.038687 -2.451191 -0.650284 0
M  V30 6 C -0.107947 -2.744333 -1.623610 0
M  V30 7 C 0.344873 -1.942755 -2.756999 0
M  V30 8 C 1.544546 -1.068111 -2.482195 0
M  V30 9 N 1.339013 -0.109148 -1.447707 0
M  V30 10 C 2.317817 0.840856 -0.989963 0
M  V30 11 O 3.440559 0.851083 -1.518578 0
M  V30 12 C 1.944391 1.759097 0.085505 0
M  V30 13 C 2.750115 2.725648 0.640038 0
M  V30 14 C 2.038505 3.397241 1.638040 0
M  V30 15 C 0.812196 2.769447 1.616657 0
M  V30 16 C -0.356398 3.040911 2.444477 0
M  V30 17 C -1.505145 2.296818 2.271816 0
M  V30 18 C -2.674869 2.456935 2.989998 0
M  V30 19 C -2.681735 3.457773 3.968136 0
M  V30 20 C -1.526001 4.195764 4.131412 0
M  V30 21 N -1.577825 5.213058 5.144235 0 CHG=1 VAL=4
M  V30 22 O -0.611563 5.959985 5.403693 0
M  V30 23 O -2.694016 5.459220 5.920035 0 CHG=-1 VAL=1
M  V30 24 C -0.365104 4.031112 3.413226 0
M  V30 25 O 0.803296 1.824873 0.699626 0
M  V30 26 C 0.505065 -3.998650 -1.512805 0
M  V30 27 C 0.223637 -4.906434 -0.512099 0
M  V30 28 O 0.843237 -6.135591 -0.427577 0
M  V30 29 C 1.818855 -6.567128 -1.361874 0
M  V30 30 H -1.463988 -4.587872 3.266087 0
M  V30 31 H -2.818008 -4.654952 2.091629 0
M  V30 32 H -2.254789 -6.141197 2.999046 0
M  V30 33 H -2.065433 -3.057286 1.082919 0
M  V30 34 H -1.501086 -1.486753 -0.752203 0
M  V30 35 H -0.512654 -1.280555 -3.054107 0
M  V30 36 H 0.507957 -2.593322 -3.634506 0
M  V30 37 H 2.437095 -1.668236 -2.196496 0
M  V30 38 H 1.781441 -0.539100 -3.424650 0
M  V30 39 H 0.408377 -0.083817 -0.977723 0
M  V30 40 H 3.769636 2.931103 0.349200 0
M  V30 41 H 2.351203 4.207534 2.278150 0
M  V30 42 H -1.563988 1.496425 1.519327 0
M  V30 43 H -3.549779 1.847490 2.816490 0
M  V30 44 H -3.569859 3.619957 4.553000 0
M  V30 45 H 0.516803 4.625522 3.568232 0
M  V30 46 H 1.255335 -4.342740 -2.220012 0
M  V30 47 H 1.503551 -6.353973 -2.405983 0
M  V30 48 H 1.980014 -7.668636 -1.300621 0
M  V30 49 H 2.781671 -6.101032 -1.107681 0
M  V30 END ATOM
M  V30 BEGIN BOND
M  V30 1 1 1 2
M  V30 2 1 2 3
M  V30 3 2 3 4
M  V30 4 1 4 5
M  V30 5 2 5 6
M  V30 6 1 6 7
M  V30 7 1 7 8
M  V30 8 1 8 9
M  V30 9 1 9 10
M  V30 10 2 10 11
M  V30 11 1 10 12
M  V30 12 2 12 13
M  V30 13 1 13 14
M  V30 14 2 14 15
M  V30 15 1 15 16
M  V30 16 2 16 17
M  V30 17 1 17 18
M  V30 18 2 18 19
M  V30 19 1 19 20
M  V30 20 1 20 21
M  V30 21 2 21 22
M  V30 22 1 21 23
M  V30 23 2 20 24
M  V30 24 1 15 25
M  V30 25 1 6 26
M  V30 26 2 26 27
M  V30 27 1 27 28
M  V30 28 1 28 29
M  V30 29 1 27 3
M  V30 30 1 25 12
M  V30 31 1 24 16
M  V30 32 1 1 30
M  V30 33 1 1 31
M  V30 34 1 1 32
M  V30 35 1 4 33
M  V30 36 1 5 34
M  V30 37 1 7 35
M  V30 38 1 7 36
M  V30 39 1 8 37
M  V30 40 1 8 38
M  V30 41 1 9 39
M  V30 42 1 13 40
M  V30 43 1 14 41
M  V30 44 1 17 42
M  V30 45 1 18 43
M  V30 46 1 19 44
M  V30 47 1 24 45
M  V30 48 1 26 46
M  V30 49 1 29 47
M  V30 50 1 29 48
M  V30 51 1 29 49
M  V30 END BOND
M  V30 END CTAB
M  END
>  <Dataset>  (361) 
ChEMBL_Kinases

>  <Ligand_Instance>  (361) 
nan

>  <PDB_ID>  (361) 
nan

>  <Standardized_SMILES>  (361) 
COc1ccc(CCNC(=O)c2ccc(-c3cccc([N+](=O)[O-])c3)o2)cc1OC

>  <Name>  (361) 
nan

>  <Pocket>  (361) 
nan

>  <ATP_Site>  (361) 
nan

>  <Peripheral>  (361) 
nan

>  <Num_H_Atoms_ProtBoundConf>  (361) 
nan

>  <Num_Resolved_Atoms>  (361) 
nan

>  <Num_Not_Resolved_Atoms>  (361) 
nan

$$$$
CHEMBL1566336
     RDKit          3D

  0  0  0  0  0  0  0  0  0  0999 V3000
M  V30 BEGIN CTAB
M  V30 COUNTS 38 39 0 0 0
M  V30 BEGIN ATOM
M  V30 1 C -0.358769 -3.609198 3.910861 0
M  V30 2 C 0.634296 -3.742897 2.774572 0
M  V30 3 O 0.054998 -3.202423 1.618434 0
M  V30 4 C -0.358975 -1.877333 1.514786 0
M  V30 5 O -0.107637 -1.346609 2.605288 0
M  V30 6 C -0.959897 -1.416857 0.238416 0
M  V30 7 C -0.168040 -0.919905 -0.700078 0
M  V30 8 N 1.252811 -0.724768 -0.730368 0
M  V30 9 C 1.690941 0.530397 -0.248223 0
M  V30 10 O 1.028191 1.508819 0.205753 0
M  V30 11 C 3.176725 0.790958 -0.256653 0
M  V30 12 C 3.442576 2.163394 0.287142 0
M  V30 13 C 3.521444 3.330563 -0.337524 0
M  V30 14 C 3.778409 4.470212 0.381506 0
M  V30 15 C 3.940424 4.318943 1.734412 0
M  V30 16 S 3.721923 2.520753 1.980497 0
M  V30 17 S -1.256696 -0.501073 -2.026202 0
M  V30 18 C -2.755782 -1.046216 -1.188784 0
M  V30 19 C -4.130035 -0.971601 -1.779650 0
M  V30 20 C -2.309763 -1.504832 0.035895 0
M  V30 21 C -3.337947 -2.031714 0.973383 0
M  V30 22 H -0.216448 -2.699142 4.515534 0
M  V30 23 H -1.378566 -3.629623 3.490818 0
M  V30 24 H -0.302683 -4.478749 4.614538 0
M  V30 25 H 1.601414 -3.210186 2.999991 0
M  V30 26 H 0.861896 -4.797520 2.594221 0
M  V30 27 H 1.936286 -1.411463 -1.065982 0
M  V30 28 H 3.722356 0.086283 0.399180 0
M  V30 29 H 3.603666 0.655430 -1.264659 0
M  V30 30 H 3.377565 3.359941 -1.430447 0
M  V30 31 H 3.859670 5.477106 -0.059754 0
M  V30 32 H 4.151255 5.110198 2.473041 0
M  V30 33 H -4.387435 -1.885204 -2.345289 0
M  V30 34 H -4.877762 -0.680163 -1.013438 0
M  V30 35 H -4.177535 -0.126382 -2.528561 0
M  V30 36 H -3.935797 -1.139578 1.305549 0
M  V30 37 H -2.868077 -2.413137 1.911387 0
M  V30 38 H -3.994282 -2.777559 0.492587 0
M  V30 END ATOM
M  V30 BEGIN BOND
M  V30 1 1 1 2
M  V30 2 1 2 3
M  V30 3 1 3 4
M  V30 4 2 4 5
M  V30 5 1 4 6
M  V30 6 2 6 7
M  V30 7 1 7 8
M  V30 8 1 8 9
M  V30 9 2 9 10
M  V30 10 1 9 11
M  V30 11 1 11 12
M  V30 12 2 12 13
M  V30 13 1 13 14
M  V30 14 2 14 15
M  V30 15 1 15 16
M  V30 16 1 7 17
M  V30 17 1 17 18
M  V30 18 1 18 19
M  V30 19 2 18 20
M  V30 20 1 20 21
M  V30 21 1 20 6
M  V30 22 1 16 12
M  V30 23 1 1 22
M  V30 24 1 1 23
M  V30 25 1 1 24
M  V30 26 1 2 25
M  V30 27 1 2 26
M  V30 28 1 8 27
M  V30 29 1 11 28
M  V30 30 1 11 29
M  V30 31 1 13 30
M  V30 32 1 14 31
M  V30 33 1 15 32
M  V30 34 1 19 33
M  V30 35 1 19 34
M  V30 36 1 19 35
M  V30 37 1 21 36
M  V30 38 1 21 37
M  V30 39 1 21 38
M  V30 END BOND
M  V30 END CTAB
M  END
>  <Dataset>  (362) 
ChEMBL_Kinases

>  <Ligand_Instance>  (362) 
nan

>  <PDB_ID>  (362) 
nan

>  <Standardized_SMILES>  (362) 
CCOC(=O)c1c(NC(=O)Cc2cccs2)sc(C)c1C

>  <Name>  (362) 
nan

>  <Pocket>  (362) 
nan

>  <ATP_Site>  (362) 
nan

>  <Peripheral>  (362) 
nan

>  <Num_H_Atoms_ProtBoundConf>  (362) 
nan

>  <Num_Resolved_Atoms>  (362) 
nan

>  <Num_Not_Resolved_Atoms>  (362) 
nan

$$$$
CHEMBL1566244
     RDKit          3D

  0  0  0  0  0  0  0  0  0  0999 V3000
M  V30 BEGIN CTAB
M  V30 COUNTS 58 62 0 0 0
M  V30 BEGIN ATOM
M  V30 1 O -3.144812 -1.960219 2.003914 0
M  V30 2 C -2.623221 -1.252484 1.106717 0
M  V30 3 C -1.229432 -0.888139 1.235031 0
M  V30 4 C -0.567200 -1.467129 2.294473 0
M  V30 5 C 0.783203 -1.177799 2.438415 0
M  V30 6 C 1.455021 -0.357621 1.583253 0
M  V30 7 C 2.799693 -0.096405 1.739859 0
M  V30 8 O 3.400425 -0.616771 2.689597 0
M  V30 9 N 3.527416 0.691997 0.929322 0
M  V30 10 C 4.905828 1.025696 0.981520 0
M  V30 11 C 5.294240 2.234461 1.750106 0
M  V30 12 C 4.974107 2.261373 3.197922 0
M  V30 13 C 3.687549 3.030192 3.234628 0
M  V30 14 C 3.827579 3.916837 2.043145 0
M  V30 15 O 4.784100 3.409266 1.212199 0
M  V30 16 C 2.792088 1.227976 -0.094181 0
M  V30 17 S 3.523481 2.210677 -1.177244 0
M  V30 18 N 1.481920 1.027123 -0.321711 0
M  V30 19 C 0.808016 0.228400 0.522641 0
M  V30 20 C -0.529202 -0.063922 0.387690 0
M  V30 21 N -3.709182 -1.072834 0.231979 0
M  V30 22 C -4.956815 -1.744587 0.626792 0
M  V30 23 C -5.095586 -2.861229 -0.429847 0
M  V30 24 N -4.003441 -2.735042 -1.404714 0
M  V30 25 C -2.955016 -3.651519 -1.644192 0
M  V30 26 C -1.990636 -3.479120 -2.609504 0
M  V30 27 C -0.982867 -4.397581 -2.788277 0
M  V30 28 C -0.885105 -5.534245 -2.014604 0
M  V30 29 C -1.852441 -5.694701 -1.056164 0
M  V30 30 C -2.871080 -4.768715 -0.873255 0
M  V30 31 C -4.181473 -1.451015 -2.090451 0
M  V30 32 C -3.950870 -0.382807 -1.040341 0
M  V30 33 H -1.027219 -2.127772 3.013035 0
M  V30 34 H 1.308409 -1.640042 3.282617 0
M  V30 35 H 5.265415 1.200203 -0.076537 0
M  V30 36 H 5.517036 0.121763 1.290821 0
M  V30 37 H 6.414233 2.333463 1.641346 0
M  V30 38 H 4.988784 1.317569 3.730686 0
M  V30 39 H 5.733829 2.933656 3.704870 0
M  V30 40 H 2.774769 2.448114 3.134648 0
M  V30 41 H 3.647421 3.616055 4.198331 0
M  V30 42 H 4.141751 4.928166 2.431123 0
M  V30 43 H 2.857964 4.051733 1.539538 0
M  V30 44 H 0.969291 1.450022 -1.106507 0
M  V30 45 H -1.033889 0.397149 -0.444445 0
M  V30 46 H -5.789078 -1.031186 0.465309 0
M  V30 47 H -4.943860 -2.157172 1.631527 0
M  V30 48 H -6.040360 -2.734681 -0.992342 0
M  V30 49 H -5.140543 -3.848227 0.031175 0
M  V30 50 H -2.003302 -2.620626 -3.247458 0
M  V30 51 H -0.247636 -4.219769 -3.559638 0
M  V30 52 H -0.064361 -6.235929 -2.195713 0
M  V30 53 H -1.740384 -6.609853 -0.462787 0
M  V30 54 H -3.528995 -5.058087 -0.081665 0
M  V30 55 H -3.511188 -1.333580 -2.955782 0
M  V30 56 H -5.209906 -1.377035 -2.506403 0
M  V30 57 H -4.909133 0.203351 -0.928801 0
M  V30 58 H -3.200727 0.344756 -1.314397 0
M  V30 END ATOM
M  V30 BEGIN BOND
M  V30 1 2 1 2
M  V30 2 1 2 3
M  V30 3 2 3 4
M  V30 4 1 4 5
M  V30 5 2 5 6
M  V30 6 1 6 7
M  V30 7 2 7 8
M  V30 8 1 7 9
M  V30 9 1 9 10
M  V30 10 1 10 11
M  V30 11 1 11 12
M  V30 12 1 12 13
M  V30 13 1 13 14
M  V30 14 1 14 15
M  V30 15 1 9 16
M  V30 16 2 16 17
M  V30 17 1 16 18
M  V30 18 1 18 19
M  V30 19 2 19 20
M  V30 20 1 2 21
M  V30 21 1 21 22
M  V30 22 1 22 23
M  V30 23 1 23 24
M  V30 24 1 24 25
M  V30 25 2 25 26
M  V30 26 1 26 27
M  V30 27 2 27 28
M  V30 28 1 28 29
M  V30 29 2 29 30
M  V30 30 1 24 31
M  V30 31 1 31 32
M  V30 32 1 20 3
M  V30 33 1 32 21
M  V30 34 1 19 6
M  V30 35 1 30 25
M  V30 36 1 15 11
M  V30 37 1 4 33
M  V30 38 1 5 34
M  V30 39 1 10 35
M  V30 40 1 10 36
M  V30 41 1 11 37
M  V30 42 1 12 38
M  V30 43 1 12 39
M  V30 44 1 13 40
M  V30 45 1 13 41
M  V30 46 1 14 42
M  V30 47 1 14 43
M  V30 48 1 18 44
M  V30 49 1 20 45
M  V30 50 1 22 46
M  V30 51 1 22 47
M  V30 52 1 23 48
M  V30 53 1 23 49
M  V30 54 1 26 50
M  V30 55 1 27 51
M  V30 56 1 28 52
M  V30 57 1 29 53
M  V30 58 1 30 54
M  V30 59 1 31 55
M  V30 60 1 31 56
M  V30 61 1 32 57
M  V30 62 1 32 58
M  V30 END BOND
M  V30 END CTAB
M  END
>  <Dataset>  (363) 
ChEMBL_Kinases

>  <Ligand_Instance>  (363) 
nan

>  <PDB_ID>  (363) 
nan

>  <Standardized_SMILES>  (363) 
O=C(c1ccc2c(=O)n(CC3CCCO3)c(=S)[nH]c2c1)N1CCN(c2ccccc2)CC1

>  <Name>  (363) 
nan

>  <Pocket>  (363) 
nan

>  <ATP_Site>  (363) 
nan

>  <Peripheral>  (363) 
nan

>  <Num_H_Atoms_ProtBoundConf>  (363) 
nan

>  <Num_Resolved_Atoms>  (363) 
nan

>  <Num_Not_Resolved_Atoms>  (363) 
nan

$$$$
CHEMBL1566202
     RDKit          3D

  0  0  0  0  0  0  0  0  0  0999 V3000
M  V30 BEGIN CTAB
M  V30 COUNTS 41 43 0 0 0
M  V30 BEGIN ATOM
M  V30 1 C -0.277711 -5.047733 0.456124 0
M  V30 2 C -0.366803 -4.355363 -0.868976 0
M  V30 3 N 0.073672 -2.944603 -0.823235 0
M  V30 4 C -0.950297 -2.229266 -0.018144 0
M  V30 5 C -2.232198 -2.170061 -0.807405 0
M  V30 6 C 1.300393 -2.836052 -0.116375 0
M  V30 7 C 2.144286 -1.642231 -0.302341 0
M  V30 8 N 1.662253 -0.347590 -0.031444 0
M  V30 9 C 1.084411 0.559659 -0.890423 0
M  V30 10 S 0.987007 0.010988 -2.445766 0
M  V30 11 N 0.649298 1.767509 -0.499400 0
M  V30 12 C 0.778198 2.131411 0.810518 0
M  V30 13 C 0.316047 3.377834 1.187818 0
M  V30 14 C 0.444357 3.734395 2.513944 0
M  V30 15 C 1.018564 2.881493 3.461658 0
M  V30 16 C 1.475954 1.631625 3.054299 0
M  V30 17 C 1.357487 1.247878 1.720080 0
M  V30 18 C 1.801711 -0.003028 1.283974 0
M  V30 19 O 2.304831 -0.719436 2.167447 0
M  V30 20 O 1.035460 3.461660 4.722744 0
M  V30 21 C 0.053007 4.501736 4.629601 0
M  V30 22 O 0.101544 4.876967 3.244200 0
M  V30 23 H -1.100010 -4.792829 1.156845 0
M  V30 24 H 0.731090 -5.019722 0.894073 0
M  V30 25 H -0.473063 -6.143810 0.221529 0
M  V30 26 H -1.386466 -4.464381 -1.244470 0
M  V30 27 H 0.314843 -4.887951 -1.557931 0
M  V30 28 H -0.548879 -1.265013 0.255720 0
M  V30 29 H -1.100135 -2.783289 0.943409 0
M  V30 30 H -3.098220 -2.556846 -0.194640 0
M  V30 31 H -2.446944 -1.082860 -0.976761 0
M  V30 32 H -2.155717 -2.669588 -1.788614 0
M  V30 33 H 1.072270 -3.051591 0.961109 0
M  V30 34 H 1.922698 -3.727356 -0.422153 0
M  V30 35 H 3.163699 -1.771279 0.190402 0
M  V30 36 H 2.441690 -1.642365 -1.408164 0
M  V30 37 H 0.225161 2.378022 -1.237022 0
M  V30 38 H -0.137070 4.060439 0.460459 0
M  V30 39 H 1.926037 0.936014 3.737495 0
M  V30 40 H 0.397666 5.338294 5.251032 0
M  V30 41 H -0.957284 4.162263 4.863866 0
M  V30 END ATOM
M  V30 BEGIN BOND
M  V30 1 1 1 2
M  V30 2 1 2 3
M  V30 3 1 3 4
M  V30 4 1 4 5
M  V30 5 1 3 6
M  V30 6 1 6 7
M  V30 7 1 7 8
M  V30 8 1 8 9
M  V30 9 2 9 10
M  V30 10 1 9 11
M  V30 11 1 11 12
M  V30 12 2 12 13
M  V30 13 1 13 14
M  V30 14 2 14 15
M  V30 15 1 15 16
M  V30 16 2 16 17
M  V30 17 1 17 18
M  V30 18 2 18 19
M  V30 19 1 15 20
M  V30 20 1 20 21
M  V30 21 1 21 22
M  V30 22 1 18 8
M  V30 23 1 17 12
M  V30 24 1 22 14
M  V30 25 1 1 23
M  V30 26 1 1 24
M  V30 27 1 1 25
M  V30 28 1 2 26
M  V30 29 1 2 27
M  V30 30 1 4 28
M  V30 31 1 4 29
M  V30 32 1 5 30
M  V30 33 1 5 31
M  V30 34 1 5 32
M  V30 35 1 6 33
M  V30 36 1 6 34
M  V30 37 1 7 35
M  V30 38 1 7 36
M  V30 39 1 11 37
M  V30 40 1 13 38
M  V30 41 1 16 39
M  V30 42 1 21 40
M  V30 43 1 21 41
M  V30 END BOND
M  V30 END CTAB
M  END
>  <Dataset>  (364) 
ChEMBL_Kinases

>  <Ligand_Instance>  (364) 
nan

>  <PDB_ID>  (364) 
nan

>  <Standardized_SMILES>  (364) 
CCN(CC)CCn1c(=S)[nH]c2cc3c(cc2c1=O)OCO3

>  <Name>  (364) 
nan

>  <Pocket>  (364) 
nan

>  <ATP_Site>  (364) 
nan

>  <Peripheral>  (364) 
nan

>  <Num_H_Atoms_ProtBoundConf>  (364) 
nan

>  <Num_Resolved_Atoms>  (364) 
nan

>  <Num_Not_Resolved_Atoms>  (364) 
nan

$$$$
CHEMBL1566165
     RDKit          3D

  0  0  0  0  0  0  0  0  0  0999 V3000
M  V30 BEGIN CTAB
M  V30 COUNTS 52 56 0 0 0
M  V30 BEGIN ATOM
M  V30 1 O -0.072819 -3.851911 1.685833 0
M  V30 2 C 0.104671 -3.774987 0.442731 0
M  V30 3 N -0.069366 -2.648577 -0.384653 0
M  V30 4 C -0.484737 -1.342488 -0.006399 0
M  V30 5 C -1.809337 -0.933232 0.018906 0
M  V30 6 C -2.168552 0.352796 0.394882 0
M  V30 7 C -1.194761 1.263419 0.756866 0
M  V30 8 N -1.543580 2.523951 1.125241 0
M  V30 9 C -0.602436 3.431783 1.483529 0
M  V30 10 C -1.023943 4.772971 1.871275 0
M  V30 11 C -0.536436 5.778267 1.027747 0
M  V30 12 C -1.021679 6.993172 1.524764 0
M  V30 13 C -1.775446 6.631565 2.644716 0
M  V30 14 O -1.747122 5.330692 2.805852 0
M  V30 15 C 0.735348 3.048985 1.467708 0
M  V30 16 C 1.738728 4.045607 1.858236 0
M  V30 17 C 2.068639 4.787473 2.980184 0
M  V30 18 C 3.167728 5.549386 2.617282 0
M  V30 19 C 3.441079 5.229785 1.306068 0
M  V30 20 O 2.562041 4.330347 0.900503 0
M  V30 21 N 1.068181 1.781000 1.095684 0
M  V30 22 C 0.133413 0.878499 0.739522 0
M  V30 23 C 0.493508 -0.413533 0.361710 0
M  V30 24 N 0.527478 -5.037285 -0.056544 0
M  V30 25 C 0.654664 -6.085871 0.934205 0
M  V30 26 C -0.001550 -7.350093 0.418968 0
M  V30 27 C -1.399267 -7.128652 -0.059253 0
M  V30 28 C -1.486053 -6.161788 -1.213430 0
M  V30 29 C -0.253687 -6.174728 -2.072630 0
M  V30 30 C 0.834050 -5.343742 -1.457822 0
M  V30 31 H 0.106117 -2.691596 -1.412200 0
M  V30 32 H -2.497000 -1.696971 -0.274595 0
M  V30 33 H -3.214879 0.607318 0.393281 0
M  V30 34 H 0.083494 5.833524 0.144361 0
M  V30 35 H -0.972655 8.048194 1.292587 0
M  V30 36 H -2.373965 7.113644 3.414993 0
M  V30 37 H 1.448987 4.634780 3.848566 0
M  V30 38 H 3.590420 6.214800 3.370965 0
M  V30 39 H 4.281123 5.731440 0.835082 0
M  V30 40 H 1.540716 -0.616270 0.379667 0
M  V30 41 H 1.719391 -6.319036 1.070102 0
M  V30 42 H 0.205155 -5.746282 1.878928 0
M  V30 43 H -0.088620 -8.018226 1.322749 0
M  V30 44 H 0.608113 -7.881521 -0.310337 0
M  V30 45 H -2.062538 -6.849799 0.774171 0
M  V30 46 H -1.768031 -8.105854 -0.438387 0
M  V30 47 H -2.393431 -6.322890 -1.828764 0
M  V30 48 H -1.572013 -5.151431 -0.769639 0
M  V30 49 H -0.530774 -5.671173 -3.042740 0
M  V30 50 H 0.100316 -7.166723 -2.344465 0
M  V30 51 H 1.026313 -4.405647 -2.003492 0
M  V30 52 H 1.789345 -5.919635 -1.528827 0
M  V30 END ATOM
M  V30 BEGIN BOND
M  V30 1 2 1 2
M  V30 2 1 2 3
M  V30 3 1 3 4
M  V30 4 2 4 5
M  V30 5 1 5 6
M  V30 6 2 6 7
M  V30 7 1 7 8
M  V30 8 2 8 9
M  V30 9 1 9 10
M  V30 10 2 10 11
M  V30 11 1 11 12
M  V30 12 2 12 13
M  V30 13 1 13 14
M  V30 14 1 9 15
M  V30 15 1 15 16
M  V30 16 2 16 17
M  V30 17 1 17 18
M  V30 18 2 18 19
M  V30 19 1 19 20
M  V30 20 2 15 21
M  V30 21 1 21 22
M  V30 22 2 22 23
M  V30 23 1 2 24
M  V30 24 1 24 25
M  V30 25 1 25 26
M  V30 26 1 26 27
M  V30 27 1 27 28
M  V30 28 1 28 29
M  V30 29 1 29 30
M  V30 30 1 23 4
M  V30 31 1 30 24
M  V30 32 1 22 7
M  V30 33 1 14 10
M  V30 34 1 20 16
M  V30 35 1 3 31
M  V30 36 1 5 32
M  V30 37 1 6 33
M  V30 38 1 11 34
M  V30 39 1 12 35
M  V30 40 1 13 36
M  V30 41 1 17 37
M  V30 42 1 18 38
M  V30 43 1 19 39
M  V30 44 1 23 40
M  V30 45 1 25 41
M  V30 46 1 25 42
M  V30 47 1 26 43
M  V30 48 1 26 44
M  V30 49 1 27 45
M  V30 50 1 27 46
M  V30 51 1 28 47
M  V30 52 1 28 48
M  V30 53 1 29 49
M  V30 54 1 29 50
M  V30 55 1 30 51
M  V30 56 1 30 52
M  V30 END BOND
M  V30 END CTAB
M  END
>  <Dataset>  (365) 
ChEMBL_Kinases

>  <Ligand_Instance>  (365) 
nan

>  <PDB_ID>  (365) 
nan

>  <Standardized_SMILES>  (365) 
O=C(Nc1ccc2nc(-c3ccco3)c(-c3ccco3)nc2c1)N1CCCCCC1

>  <Name>  (365) 
nan

>  <Pocket>  (365) 
nan

>  <ATP_Site>  (365) 
nan

>  <Peripheral>  (365) 
nan

>  <Num_H_Atoms_ProtBoundConf>  (365) 
nan

>  <Num_Resolved_Atoms>  (365) 
nan

>  <Num_Not_Resolved_Atoms>  (365) 
nan

$$$$
CHEMBL1565927
     RDKit          3D

  0  0  0  0  0  0  0  0  0  0999 V3000
M  V30 BEGIN CTAB
M  V30 COUNTS 42 45 0 0 0
M  V30 BEGIN ATOM
M  V30 1 C -0.629057 -4.502178 0.578042 0
M  V30 2 O 0.093567 -3.547511 -0.179164 0
M  V30 3 C 1.031264 -2.710123 0.364387 0
M  V30 4 C 1.337455 -2.745127 1.708835 0
M  V30 5 C 2.367899 -1.846433 2.146735 0
M  V30 6 C 3.090535 -0.969192 1.378675 0
M  V30 7 C 2.701591 -1.002547 0.023274 0
M  V30 8 C 1.680198 -1.859296 -0.457496 0
M  V30 9 C 1.100581 -1.350480 -1.987670 0
M  V30 10 N 1.255188 -0.007904 -1.654848 0
M  V30 11 C 1.429915 1.397902 -1.358958 0
M  V30 12 N 2.390980 2.283193 -1.897023 0
M  V30 13 C 2.832131 3.026128 -0.767300 0
M  V30 14 N 2.462031 2.923712 0.572876 0
M  V30 15 C 1.517835 2.047110 0.922544 0
M  V30 16 C 1.141097 2.001452 2.294715 0
M  V30 17 C 0.052569 1.154577 2.667657 0
M  V30 18 C -0.546737 0.438846 1.605587 0
M  V30 19 C -1.716674 -0.166820 2.131799 0
M  V30 20 C -2.806051 0.052842 1.253470 0
M  V30 21 C -3.968206 -0.510362 1.750240 0
M  V30 22 O -3.569065 -1.092534 2.888235 0
M  V30 23 C -2.310887 -0.880660 3.045381 0
M  V30 24 C -0.063615 0.519380 0.298013 0
M  V30 25 C 0.944951 1.251833 -0.117202 0
M  V30 26 H -1.622168 -4.679965 0.146242 0
M  V30 27 H -0.093028 -5.489666 0.493411 0
M  V30 28 H -0.687258 -4.291047 1.649297 0
M  V30 29 H 0.872863 -3.370775 2.429533 0
M  V30 30 H 2.519694 -1.836268 3.165435 0
M  V30 31 H 3.819441 -0.293585 1.783691 0
M  V30 32 H 3.229410 -0.360672 -0.615424 0
M  V30 33 H 1.716034 -1.985189 -2.574045 0
M  V30 34 H 0.144319 -1.846021 -1.812923 0
M  V30 35 H 1.225579 0.154213 -2.682170 0
M  V30 36 H 3.580264 3.751987 -1.074168 0
M  V30 37 H 1.690024 2.626886 2.971560 0
M  V30 38 H -0.200631 1.120953 3.717482 0
M  V30 39 H -2.990222 0.615572 0.285440 0
M  V30 40 H -4.984059 -0.555183 1.464711 0
M  V30 41 H -1.580361 -1.170437 3.843492 0
M  V30 42 H -0.594506 -0.089158 -0.370652 0
M  V30 END ATOM
M  V30 BEGIN BOND
M  V30 1 1 1 2
M  V30 2 1 2 3
M  V30 3 2 3 4
M  V30 4 1 4 5
M  V30 5 2 5 6
M  V30 6 1 6 7
M  V30 7 2 7 8
M  V30 8 1 8 9
M  V30 9 1 9 10
M  V30 10 1 10 11
M  V30 11 2 11 12
M  V30 12 1 12 13
M  V30 13 2 13 14
M  V30 14 1 14 15
M  V30 15 2 15 16
M  V30 16 1 16 17
M  V30 17 2 17 18
M  V30 18 1 18 19
M  V30 19 1 19 20
M  V30 20 2 20 21
M  V30 21 1 21 22
M  V30 22 1 22 23
M  V30 23 1 18 24
M  V30 24 2 24 25
M  V30 25 1 8 3
M  V30 26 1 25 11
M  V30 27 1 25 15
M  V30 28 2 23 19
M  V30 29 1 1 26
M  V30 30 1 1 27
M  V30 31 1 1 28
M  V30 32 1 4 29
M  V30 33 1 5 30
M  V30 34 1 6 31
M  V30 35 1 7 32
M  V30 36 1 9 33
M  V30 37 1 9 34
M  V30 38 1 10 35
M  V30 39 1 13 36
M  V30 40 1 16 37
M  V30 41 1 17 38
M  V30 42 1 20 39
M  V30 43 1 21 40
M  V30 44 1 23 41
M  V30 45 1 24 42
M  V30 END BOND
M  V30 END CTAB
M  END
>  <Dataset>  (366) 
ChEMBL_Kinases

>  <Ligand_Instance>  (366) 
nan

>  <PDB_ID>  (366) 
nan

>  <Standardized_SMILES>  (366) 
COc1ccccc1CNc1ncnc2ccc(-c3ccoc3)cc12

>  <Name>  (366) 
nan

>  <Pocket>  (366) 
nan

>  <ATP_Site>  (366) 
nan

>  <Peripheral>  (366) 
nan

>  <Num_H_Atoms_ProtBoundConf>  (366) 
nan

>  <Num_Resolved_Atoms>  (366) 
nan

>  <Num_Not_Resolved_Atoms>  (366) 
nan

$$$$
CHEMBL1565793
     RDKit          3D

  0  0  0  0  0  0  0  0  0  0999 V3000
M  V30 BEGIN CTAB
M  V30 COUNTS 36 37 0 0 0
M  V30 BEGIN ATOM
M  V30 1 C -2.387773 -0.488021 2.712665 0
M  V30 2 C -2.172870 -1.585116 1.729099 0
M  V30 3 C -0.752187 -1.989884 1.588554 0
M  V30 4 N -0.115745 -2.943782 2.303977 0
M  V30 5 C 1.179615 -3.023249 1.884012 0
M  V30 6 C 2.284008 -3.794725 2.235032 0
M  V30 7 C 3.481472 -3.596991 1.573602 0
M  V30 8 C 3.628897 -2.660247 0.572877 0
M  V30 9 C 2.513935 -1.917587 0.254968 0
M  V30 10 C 1.289530 -2.065275 0.876376 0
M  V30 11 N 0.098285 -1.433166 0.699335 0
M  V30 12 C -0.096421 -0.398051 -0.268465 0
M  V30 13 C 0.190426 0.975642 0.286147 0
M  V30 14 C -0.003740 2.086754 -0.705631 0
M  V30 15 C -1.395074 2.176359 -1.243641 0
M  V30 16 C 0.958801 2.039908 -1.855201 0
M  V30 17 H -1.588598 -0.403366 3.474066 0
M  V30 18 H -2.513609 0.482700 2.204567 0
M  V30 19 H -3.350181 -0.677184 3.234376 0
M  V30 20 H -2.748775 -2.490002 2.036477 0
M  V30 21 H -2.612372 -1.250667 0.762266 0
M  V30 22 H 2.170600 -4.523757 3.013332 0
M  V30 23 H 4.326025 -4.213214 1.868505 0
M  V30 24 H 4.589457 -2.529315 0.070219 0
M  V30 25 H 2.641631 -1.175886 -0.541620 0
M  V30 26 H -1.202819 -0.400958 -0.497861 0
M  V30 27 H 0.381970 -0.569865 -1.240851 0
M  V30 28 H 1.230971 1.028223 0.660314 0
M  V30 29 H -0.474035 1.222212 1.138853 0
M  V30 30 H 0.199232 3.027382 -0.152835 0
M  V30 31 H -1.328406 2.786939 -2.191690 0
M  V30 32 H -1.841819 1.222709 -1.553679 0
M  V30 33 H -2.061077 2.787670 -0.589254 0
M  V30 34 H 1.280379 1.038908 -2.126174 0
M  V30 35 H 1.888988 2.630490 -1.639304 0
M  V30 36 H 0.524946 2.497541 -2.778431 0
M  V30 END ATOM
M  V30 BEGIN BOND
M  V30 1 1 1 2
M  V30 2 1 2 3
M  V30 3 2 3 4
M  V30 4 1 4 5
M  V30 5 2 5 6
M  V30 6 1 6 7
M  V30 7 2 7 8
M  V30 8 1 8 9
M  V30 9 2 9 10
M  V30 10 1 10 11
M  V30 11 1 11 12
M  V30 12 1 12 13
M  V30 13 1 13 14
M  V30 14 1 14 15
M  V30 15 1 14 16
M  V30 16 1 11 3
M  V30 17 1 10 5
M  V30 18 1 1 17
M  V30 19 1 1 18
M  V30 20 1 1 19
M  V30 21 1 2 20
M  V30 22 1 2 21
M  V30 23 1 6 22
M  V30 24 1 7 23
M  V30 25 1 8 24
M  V30 26 1 9 25
M  V30 27 1 12 26
M  V30 28 1 12 27
M  V30 29 1 13 28
M  V30 30 1 13 29
M  V30 31 1 14 30
M  V30 32 1 15 31
M  V30 33 1 15 32
M  V30 34 1 15 33
M  V30 35 1 16 34
M  V30 36 1 16 35
M  V30 37 1 16 36
M  V30 END BOND
M  V30 END CTAB
M  END
>  <Dataset>  (367) 
ChEMBL_Kinases

>  <Ligand_Instance>  (367) 
nan

>  <PDB_ID>  (367) 
nan

>  <Standardized_SMILES>  (367) 
CCc1nc2ccccc2n1CCC(C)C

>  <Name>  (367) 
nan

>  <Pocket>  (367) 
nan

>  <ATP_Site>  (367) 
nan

>  <Peripheral>  (367) 
nan

>  <Num_H_Atoms_ProtBoundConf>  (367) 
nan

>  <Num_Resolved_Atoms>  (367) 
nan

>  <Num_Not_Resolved_Atoms>  (367) 
nan

$$$$
CHEMBL1565777
     RDKit          3D

  0  0  0  0  0  0  0  0  0  0999 V3000
M  V30 BEGIN CTAB
M  V30 COUNTS 50 54 0 0 0
M  V30 BEGIN ATOM
M  V30 1 O 4.674776 -5.291796 0.847785 0
M  V30 2 C 3.993843 -4.255445 1.075692 0
M  V30 3 C 3.652336 -3.620366 2.385588 0
M  V30 4 O 3.985824 -2.243921 2.284878 0
M  V30 5 C 3.468963 -1.507153 1.235197 0
M  V30 6 C 3.202409 -0.141040 1.297257 0
M  V30 7 C 2.686029 0.540305 0.214525 0
M  V30 8 C 2.413925 -0.095651 -0.965263 0
M  V30 9 C 1.874624 0.482683 -2.186713 0
M  V30 10 O 1.654255 -0.189564 -3.240942 0
M  V30 11 C 1.506708 1.884209 -2.405877 0
M  V30 12 S -0.226553 2.259428 -2.060848 0
M  V30 13 C -0.507104 2.049928 -0.309398 0
M  V30 14 N -0.295325 3.160454 0.449743 0
M  V30 15 N -0.545200 2.857183 1.729129 0
M  V30 16 C -0.911916 1.561347 1.769076 0
M  V30 17 C -1.307397 0.682407 2.914192 0
M  V30 18 C -2.707907 0.674768 3.188968 0
M  V30 19 C -3.744139 -0.133531 2.727281 0
M  V30 20 C -5.027847 0.069858 3.153036 0
M  V30 21 C -5.219066 1.153912 4.088973 0
M  V30 22 S -3.444285 1.799315 4.267740 0
M  V30 23 N -0.891017 1.052167 0.507083 0
M  V30 24 C -1.168974 -0.206398 -0.063935 0
M  V30 25 C -2.223404 -0.280741 -0.971292 0
M  V30 26 C -2.623556 -1.419913 -1.611939 0
M  V30 27 C -1.941446 -2.600766 -1.352545 0
M  V30 28 C -0.887036 -2.570715 -0.457058 0
M  V30 29 C -0.518310 -1.386173 0.169096 0
M  V30 30 C 2.687380 -1.458291 -1.004545 0
M  V30 31 C 3.198795 -2.159216 0.052076 0
M  V30 32 N 3.455131 -3.562928 -0.063332 0
M  V30 33 H 4.197245 -4.119642 3.198237 0
M  V30 34 H 2.564429 -3.677296 2.591997 0
M  V30 35 H 3.412981 0.371613 2.222255 0
M  V30 36 H 2.469794 1.600125 0.233807 0
M  V30 37 H 1.764089 2.282142 -3.407960 0
M  V30 38 H 2.155081 2.483668 -1.701502 0
M  V30 39 H -0.729029 1.024080 3.817671 0
M  V30 40 H -0.959441 -0.360520 2.744553 0
M  V30 41 H -3.463639 -0.907426 2.029733 0
M  V30 42 H -5.850861 -0.538013 2.815017 0
M  V30 43 H -6.284231 1.359037 4.471992 0
M  V30 44 H -2.787648 0.629001 -1.203329 0
M  V30 45 H -3.435624 -1.457951 -2.306238 0
M  V30 46 H -2.175713 -3.555134 -1.804624 0
M  V30 47 H -0.288688 -3.454226 -0.189134 0
M  V30 48 H 0.307666 -1.343497 0.876086 0
M  V30 49 H 2.495089 -2.035101 -1.915808 0
M  V30 50 H 3.245507 -4.046655 -0.967116 0
M  V30 END ATOM
M  V30 BEGIN BOND
M  V30 1 2 1 2
M  V30 2 1 2 3
M  V30 3 1 3 4
M  V30 4 1 4 5
M  V30 5 2 5 6
M  V30 6 1 6 7
M  V30 7 2 7 8
M  V30 8 1 8 9
M  V30 9 2 9 10
M  V30 10 1 9 11
M  V30 11 1 11 12
M  V30 12 1 12 13
M  V30 13 2 13 14
M  V30 14 1 14 15
M  V30 15 2 15 16
M  V30 16 1 16 17
M  V30 17 1 17 18
M  V30 18 2 18 19
M  V30 19 1 19 20
M  V30 20 2 20 21
M  V30 21 1 21 22
M  V30 22 1 16 23
M  V30 23 1 23 24
M  V30 24 2 24 25
M  V30 25 1 25 26
M  V30 26 2 26 27
M  V30 27 1 27 28
M  V30 28 2 28 29
M  V30 29 1 8 30
M  V30 30 2 30 31
M  V30 31 1 31 32
M  V30 32 1 32 2
M  V30 33 1 31 5
M  V30 34 1 23 13
M  V30 35 1 29 24
M  V30 36 1 22 18
M  V30 37 1 3 33
M  V30 38 1 3 34
M  V30 39 1 6 35
M  V30 40 1 7 36
M  V30 41 1 11 37
M  V30 42 1 11 38
M  V30 43 1 17 39
M  V30 44 1 17 40
M  V30 45 1 19 41
M  V30 46 1 20 42
M  V30 47 1 21 43
M  V30 48 1 25 44
M  V30 49 1 26 45
M  V30 50 1 27 46
M  V30 51 1 28 47
M  V30 52 1 29 48
M  V30 53 1 30 49
M  V30 54 1 32 50
M  V30 END BOND
M  V30 END CTAB
M  END
>  <Dataset>  (368) 
ChEMBL_Kinases

>  <Ligand_Instance>  (368) 
nan

>  <PDB_ID>  (368) 
nan

>  <Standardized_SMILES>  (368) 
O=C1COc2ccc(C(=O)CSc3nnc(Cc4cccs4)n3-c3ccccc3)cc2N1

>  <Name>  (368) 
nan

>  <Pocket>  (368) 
nan

>  <ATP_Site>  (368) 
nan

>  <Peripheral>  (368) 
nan

>  <Num_H_Atoms_ProtBoundConf>  (368) 
nan

>  <Num_Resolved_Atoms>  (368) 
nan

>  <Num_Not_Resolved_Atoms>  (368) 
nan

$$$$
CHEMBL1565737
     RDKit          3D

  0  0  0  0  0  0  0  0  0  0999 V3000
M  V30 BEGIN CTAB
M  V30 COUNTS 34 37 0 0 0
M  V30 BEGIN ATOM
M  V30 1 C -3.857113 -1.608505 4.011736 0
M  V30 2 C -2.530962 -1.839614 4.276732 0
M  V30 3 N -1.621274 -1.930643 3.316882 0
M  V30 4 C -1.883451 -1.810476 2.004899 0
M  V30 5 C -0.958214 -1.899333 0.965697 0
M  V30 6 O 0.288137 -2.131006 1.450565 0
M  V30 7 C 1.485981 -2.279002 0.754411 0
M  V30 8 C 1.885550 -1.097181 -0.038380 0
M  V30 9 N 1.754628 -0.597461 -1.256011 0
M  V30 10 C 2.375712 0.584334 -1.384959 0
M  V30 11 C 2.440379 1.382163 -2.520092 0
M  V30 12 C 3.141860 2.566732 -2.416043 0
M  V30 13 C 3.731318 2.885435 -1.203722 0
M  V30 14 C 3.638125 2.052620 -0.094740 0
M  V30 15 C 2.945172 0.865204 -0.168847 0
M  V30 16 N 2.624874 -0.177646 0.618082 0
M  V30 17 C -1.457944 -1.743612 -0.299085 0
M  V30 18 C -2.773282 -1.511580 -0.607476 0
M  V30 19 C -3.657521 -1.429507 0.435996 0
M  V30 20 C -3.236707 -1.574755 1.736357 0
M  V30 21 C -4.225125 -1.470595 2.690440 0
M  V30 22 H -4.532979 -1.548292 4.850323 0
M  V30 23 H -2.123534 -1.965791 5.291306 0
M  V30 24 H 2.314729 -2.657016 1.400132 0
M  V30 25 H 1.312363 -3.142408 0.039486 0
M  V30 26 H 1.960930 1.084555 -3.442348 0
M  V30 27 H 3.229166 3.231900 -3.263732 0
M  V30 28 H 4.297488 3.807251 -1.062794 0
M  V30 29 H 4.095992 2.289850 0.864107 0
M  V30 30 H 2.999351 -0.107055 1.607476 0
M  V30 31 H -0.704075 -1.826738 -1.064663 0
M  V30 32 H -3.023124 -1.408792 -1.659694 0
M  V30 33 H -4.695064 -1.245648 0.178705 0
M  V30 34 H -5.242993 -1.290873 2.447497 0
M  V30 END ATOM
M  V30 BEGIN BOND
M  V30 1 2 1 2
M  V30 2 1 2 3
M  V30 3 2 3 4
M  V30 4 1 4 5
M  V30 5 1 5 6
M  V30 6 1 6 7
M  V30 7 1 7 8
M  V30 8 2 8 9
M  V30 9 1 9 10
M  V30 10 2 10 11
M  V30 11 1 11 12
M  V30 12 2 12 13
M  V30 13 1 13 14
M  V30 14 2 14 15
M  V30 15 1 15 16
M  V30 16 2 5 17
M  V30 17 1 17 18
M  V30 18 2 18 19
M  V30 19 1 19 20
M  V30 20 2 20 21
M  V30 21 1 21 1
M  V30 22 1 20 4
M  V30 23 1 16 8
M  V30 24 1 15 10
M  V30 25 1 1 22
M  V30 26 1 2 23
M  V30 27 1 7 24
M  V30 28 1 7 25
M  V30 29 1 11 26
M  V30 30 1 12 27
M  V30 31 1 13 28
M  V30 32 1 14 29
M  V30 33 1 16 30
M  V30 34 1 17 31
M  V30 35 1 18 32
M  V30 36 1 19 33
M  V30 37 1 21 34
M  V30 END BOND
M  V30 END CTAB
M  END
>  <Dataset>  (369) 
ChEMBL_Kinases

>  <Ligand_Instance>  (369) 
nan

>  <PDB_ID>  (369) 
nan

>  <Standardized_SMILES>  (369) 
c1cnc2c(OCc3nc4ccccc4[nH]3)cccc2c1

>  <Name>  (369) 
nan

>  <Pocket>  (369) 
nan

>  <ATP_Site>  (369) 
nan

>  <Peripheral>  (369) 
nan

>  <Num_H_Atoms_ProtBoundConf>  (369) 
nan

>  <Num_Resolved_Atoms>  (369) 
nan

>  <Num_Not_Resolved_Atoms>  (369) 
nan

$$$$
CHEMBL1565705
     RDKit          3D

  0  0  0  0  0  0  0  0  0  0999 V3000
M  V30 BEGIN CTAB
M  V30 COUNTS 14 14 0 0 0
M  V30 BEGIN ATOM
M  V30 1 O 1.630988 -1.236685 4.811700 0
M  V30 2 C 1.763213 -0.436664 3.870603 0
M  V30 3 N 1.518402 0.498704 3.053186 0
M  V30 4 C 1.380056 0.268386 1.655295 0
M  V30 5 C 0.534702 -0.748209 1.220558 0
M  V30 6 C 0.474842 -0.884088 -0.136840 0
M  V30 7 C 1.136334 -0.151326 -1.098885 0
M  V30 8 Cl 0.943936 -0.460165 -2.805890 0
M  V30 9 C 1.967540 0.851483 -0.604411 0
M  V30 10 Cl 2.854058 1.840697 -1.744800 0
M  V30 11 C 2.094687 1.067600 0.773459 0
M  V30 12 H -0.032087 -1.383985 1.880299 0
M  V30 13 H -0.179556 -1.673955 -0.533792 0
M  V30 14 H 2.740740 1.847464 1.166709 0
M  V30 END ATOM
M  V30 BEGIN BOND
M  V30 1 2 1 2
M  V30 2 2 2 3
M  V30 3 1 3 4
M  V30 4 2 4 5
M  V30 5 1 5 6
M  V30 6 2 6 7
M  V30 7 1 7 8
M  V30 8 1 7 9
M  V30 9 1 9 10
M  V30 10 2 9 11
M  V30 11 1 11 4
M  V30 12 1 5 12
M  V30 13 1 6 13
M  V30 14 1 11 14
M  V30 END BOND
M  V30 END CTAB
M  END
>  <Dataset>  (370) 
ChEMBL_Kinases

>  <Ligand_Instance>  (370) 
nan

>  <PDB_ID>  (370) 
nan

>  <Standardized_SMILES>  (370) 
O=C=Nc1ccc(Cl)c(Cl)c1

>  <Name>  (370) 
nan

>  <Pocket>  (370) 
nan

>  <ATP_Site>  (370) 
nan

>  <Peripheral>  (370) 
nan

>  <Num_H_Atoms_ProtBoundConf>  (370) 
nan

>  <Num_Resolved_Atoms>  (370) 
nan

>  <Num_Not_Resolved_Atoms>  (370) 
nan

$$$$
CHEMBL1565612
     RDKit          3D

  0  0  0  0  0  0  0  0  0  0999 V3000
M  V30 BEGIN CTAB
M  V30 COUNTS 33 34 0 0 0
M  V30 BEGIN ATOM
M  V30 1 C -3.004142 -4.692918 0.493021 0
M  V30 2 N -2.012214 -3.859638 1.176151 0
M  V30 3 C -0.648062 -3.856132 0.713832 0
M  V30 4 O -0.464969 -4.615504 -0.280532 0
M  V30 5 C 0.209341 -2.957069 1.523690 0
M  V30 6 C 1.632647 -2.933601 1.065654 0
M  V30 7 C 1.633385 -1.818602 0.059433 0
M  V30 8 O 2.265454 -1.701709 -1.022349 0
M  V30 9 N 0.742044 -0.853128 0.566084 0
M  V30 10 C 0.691682 0.544045 0.336489 0
M  V30 11 C -0.242690 1.388978 0.899684 0
M  V30 12 C -0.289266 2.749869 0.674161 0
M  V30 13 C 0.644550 3.323976 -0.161486 0
M  V30 14 C 0.553633 4.784060 -0.371650 0
M  V30 15 C 1.620015 2.536743 -0.767695 0
M  V30 16 C 1.599963 1.185698 -0.492312 0
M  V30 17 C -0.206209 -1.526741 1.432190 0
M  V30 18 H -2.684850 -4.756561 -0.577881 0
M  V30 19 H -3.982497 -4.175001 0.505914 0
M  V30 20 H -3.061354 -5.697944 0.955423 0
M  V30 21 H -2.386450 -3.297731 1.993648 0
M  V30 22 H 0.184112 -3.318395 2.583064 0
M  V30 23 H 1.978269 -3.892791 0.636583 0
M  V30 24 H 2.261534 -2.595653 1.936913 0
M  V30 25 H -0.996480 0.965604 1.566544 0
M  V30 26 H -1.071525 3.342883 1.167635 0
M  V30 27 H 1.542114 5.212153 -0.608089 0
M  V30 28 H 0.191156 5.314565 0.547191 0
M  V30 29 H -0.122832 5.056822 -1.200313 0
M  V30 30 H 2.333328 2.996452 -1.410089 0
M  V30 31 H 2.382224 0.632722 -0.993488 0
M  V30 32 H -1.245328 -1.434748 1.061062 0
M  V30 33 H -0.105603 -1.032775 2.426625 0
M  V30 END ATOM
M  V30 BEGIN BOND
M  V30 1 1 1 2
M  V30 2 1 2 3
M  V30 3 2 3 4
M  V30 4 1 3 5
M  V30 5 1 5 6
M  V30 6 1 6 7
M  V30 7 2 7 8
M  V30 8 1 7 9
M  V30 9 1 9 10
M  V30 10 2 10 11
M  V30 11 1 11 12
M  V30 12 2 12 13
M  V30 13 1 13 14
M  V30 14 1 13 15
M  V30 15 2 15 16
M  V30 16 1 9 17
M  V30 17 1 17 5
M  V30 18 1 16 10
M  V30 19 1 1 18
M  V30 20 1 1 19
M  V30 21 1 1 20
M  V30 22 1 2 21
M  V30 23 1 5 22
M  V30 24 1 6 23
M  V30 25 1 6 24
M  V30 26 1 11 25
M  V30 27 1 12 26
M  V30 28 1 14 27
M  V30 29 1 14 28
M  V30 30 1 14 29
M  V30 31 1 15 30
M  V30 32 1 16 31
M  V30 33 1 17 32
M  V30 34 1 17 33
M  V30 END BOND
M  V30 END CTAB
M  END
>  <Dataset>  (371) 
ChEMBL_Kinases

>  <Ligand_Instance>  (371) 
nan

>  <PDB_ID>  (371) 
nan

>  <Standardized_SMILES>  (371) 
CNC(=O)C1CC(=O)N(c2ccc(C)cc2)C1

>  <Name>  (371) 
nan

>  <Pocket>  (371) 
nan

>  <ATP_Site>  (371) 
nan

>  <Peripheral>  (371) 
nan

>  <Num_H_Atoms_ProtBoundConf>  (371) 
nan

>  <Num_Resolved_Atoms>  (371) 
nan

>  <Num_Not_Resolved_Atoms>  (371) 
nan

$$$$
CHEMBL1565522
     RDKit          3D

  0  0  0  0  0  0  0  0  0  0999 V3000
M  V30 BEGIN CTAB
M  V30 COUNTS 43 45 0 0 0
M  V30 BEGIN ATOM
M  V30 1 O 0.305513 -3.699209 -0.177631 0
M  V30 2 C 0.181607 -2.498290 -0.541207 0
M  V30 3 N 1.157665 -1.861297 -1.353220 0
M  V30 4 C 2.282590 -2.636778 -1.739783 0
M  V30 5 C 3.331683 -2.569320 -0.866405 0
M  V30 6 C 4.502141 -3.276000 -1.112174 0
M  V30 7 C 4.597796 -4.050886 -2.251315 0
M  V30 8 C 3.510854 -4.085885 -3.101720 0
M  V30 9 C 2.333334 -3.399022 -2.892109 0
M  V30 10 O 1.243598 -3.420723 -3.723965 0
M  V30 11 C -1.008470 -1.739798 -0.110000 0
M  V30 12 C -0.743810 -0.645332 0.685937 0
M  V30 13 C -1.774285 0.142664 1.152564 0
M  V30 14 S -1.752790 1.568520 2.152478 0
M  V30 15 O -2.686239 1.264142 3.311276 0
M  V30 16 O -2.319436 2.694194 1.315420 0
M  V30 17 N -0.210945 2.028492 2.660644 0
M  V30 18 C 0.522910 1.131435 3.465504 0
M  V30 19 C 0.579772 1.408787 4.927676 0
M  V30 20 O 0.509380 2.723063 5.304320 0
M  V30 21 C -0.415366 3.457282 4.564490 0
M  V30 22 C -0.094734 3.373258 3.094529 0
M  V30 23 C -3.072873 -0.208808 0.790711 0
M  V30 24 Cl -4.539700 0.644234 1.264775 0
M  V30 25 C -3.346292 -1.308556 -0.009808 0
M  V30 26 C -2.290357 -2.096204 -0.473690 0
M  V30 27 Cl -2.419240 -3.506269 -1.480739 0
M  V30 28 H 1.012229 -0.860069 -1.631099 0
M  V30 29 H 3.352493 -1.991842 0.049739 0
M  V30 30 H 5.357268 -3.240733 -0.431534 0
M  V30 31 H 5.509833 -4.603260 -2.445640 0
M  V30 32 H 3.594270 -4.695798 -3.992661 0
M  V30 33 H 1.144398 -2.994374 -4.622148 0
M  V30 34 H 0.220887 -0.289583 1.015813 0
M  V30 35 H 0.223530 0.063084 3.354904 0
M  V30 36 H 1.584089 1.140150 3.075795 0
M  V30 37 H 1.565986 1.024205 5.324271 0
M  V30 38 H -0.170528 0.772944 5.465772 0
M  V30 39 H -0.282640 4.527828 4.863391 0
M  V30 40 H -1.449746 3.195877 4.784830 0
M  V30 41 H -0.738560 4.088144 2.547623 0
M  V30 42 H 0.980231 3.689407 3.001053 0
M  V30 43 H -4.313080 -1.639055 -0.327876 0
M  V30 END ATOM
M  V30 BEGIN BOND
M  V30 1 2 1 2
M  V30 2 1 2 3
M  V30 3 1 3 4
M  V30 4 2 4 5
M  V30 5 1 5 6
M  V30 6 2 6 7
M  V30 7 1 7 8
M  V30 8 2 8 9
M  V30 9 1 9 10
M  V30 10 1 2 11
M  V30 11 2 11 12
M  V30 12 1 12 13
M  V30 13 1 13 14
M  V30 14 2 14 15
M  V30 15 2 14 16
M  V30 16 1 14 17
M  V30 17 1 17 18
M  V30 18 1 18 19
M  V30 19 1 19 20
M  V30 20 1 20 21
M  V30 21 1 21 22
M  V30 22 2 13 23
M  V30 23 1 23 24
M  V30 24 1 23 25
M  V30 25 2 25 26
M  V30 26 1 26 27
M  V30 27 1 9 4
M  V30 28 1 26 11
M  V30 29 1 22 17
M  V30 30 1 3 28
M  V30 31 1 5 29
M  V30 32 1 6 30
M  V30 33 1 7 31
M  V30 34 1 8 32
M  V30 35 1 10 33
M  V30 36 1 12 34
M  V30 37 1 18 35
M  V30 38 1 18 36
M  V30 39 1 19 37
M  V30 40 1 19 38
M  V30 41 1 21 39
M  V30 42 1 21 40
M  V30 43 1 22 41
M  V30 44 1 22 42
M  V30 45 1 25 43
M  V30 END BOND
M  V30 END CTAB
M  END
>  <Dataset>  (372) 
ChEMBL_Kinases

>  <Ligand_Instance>  (372) 
nan

>  <PDB_ID>  (372) 
nan

>  <Standardized_SMILES>  (372) 
O=C(Nc1ccccc1O)c1cc(S(=O)(=O)N2CCOCC2)c(Cl)cc1Cl

>  <Name>  (372) 
nan

>  <Pocket>  (372) 
nan

>  <ATP_Site>  (372) 
nan

>  <Peripheral>  (372) 
nan

>  <Num_H_Atoms_ProtBoundConf>  (372) 
nan

>  <Num_Resolved_Atoms>  (372) 
nan

>  <Num_Not_Resolved_Atoms>  (372) 
nan

$$$$
CHEMBL1565503
     RDKit          3D

  0  0  0  0  0  0  0  0  0  0999 V3000
M  V30 BEGIN CTAB
M  V30 COUNTS 35 37 0 0 0
M  V30 BEGIN ATOM
M  V30 1 C -1.190919 -3.535180 1.505865 0
M  V30 2 C 0.047699 -3.933100 1.962776 0
M  V30 3 C 1.100898 -3.077782 1.718651 0
M  V30 4 C 0.876039 -1.881145 1.039685 0
M  V30 5 N 2.048679 -1.116269 0.853169 0
M  V30 6 C 2.609199 -0.602046 1.991814 0
M  V30 7 C 3.755539 0.114319 1.686466 0
M  V30 8 C 3.911208 0.044277 0.331116 0
M  V30 9 C 2.866249 -0.706980 -0.162228 0
M  V30 10 C -0.352477 -1.472742 0.579518 0
M  V30 11 N -0.611919 -0.266487 -0.084225 0
M  V30 12 C -1.889289 -0.053863 -0.732496 0
M  V30 13 C -2.742263 0.905767 0.101335 0
M  V30 14 C -1.861600 2.072758 0.554751 0
M  V30 15 C -0.690534 2.181098 -0.396050 0
M  V30 16 C 0.165812 0.917971 -0.260259 0
M  V30 17 C -1.383913 -2.346726 0.837854 0
M  V30 18 H -1.983368 -4.261028 1.733282 0
M  V30 19 H 0.215347 -4.855835 2.485114 0
M  V30 20 H 2.080848 -3.382047 2.074651 0
M  V30 21 H 2.336179 -0.648656 3.038773 0
M  V30 22 H 4.450608 0.650381 2.299907 0
M  V30 23 H 4.607485 0.412250 -0.381395 0
M  V30 24 H 2.515501 -1.062708 -1.140950 0
M  V30 25 H -2.460539 -0.975021 -0.933595 0
M  V30 26 H -1.758061 0.415162 -1.743762 0
M  V30 27 H -3.592055 1.289646 -0.490015 0
M  V30 28 H -3.119415 0.373502 0.986530 0
M  V30 29 H -2.484361 2.984406 0.485019 0
M  V30 30 H -1.483861 1.867690 1.573477 0
M  V30 31 H -1.062392 2.296150 -1.411242 0
M  V30 32 H -0.098188 3.063954 -0.049604 0
M  V30 33 H 0.709973 0.854604 -1.224629 0
M  V30 34 H 0.778824 1.093307 0.622166 0
M  V30 35 H -2.416771 -2.231081 0.577821 0
M  V30 END ATOM
M  V30 BEGIN BOND
M  V30 1 2 1 2
M  V30 2 1 2 3
M  V30 3 2 3 4
M  V30 4 1 4 5
M  V30 5 1 5 6
M  V30 6 2 6 7
M  V30 7 1 7 8
M  V30 8 2 8 9
M  V30 9 1 4 10
M  V30 10 1 10 11
M  V30 11 1 11 12
M  V30 12 1 12 13
M  V30 13 1 13 14
M  V30 14 1 14 15
M  V30 15 1 15 16
M  V30 16 2 10 17
M  V30 17 1 17 1
M  V30 18 1 9 5
M  V30 19 1 16 11
M  V30 20 1 1 18
M  V30 21 1 2 19
M  V30 22 1 3 20
M  V30 23 1 6 21
M  V30 24 1 7 22
M  V30 25 1 8 23
M  V30 26 1 9 24
M  V30 27 1 12 25
M  V30 28 1 12 26
M  V30 29 1 13 27
M  V30 30 1 13 28
M  V30 31 1 14 29
M  V30 32 1 14 30
M  V30 33 1 15 31
M  V30 34 1 15 32
M  V30 35 1 16 33
M  V30 36 1 16 34
M  V30 37 1 17 35
M  V30 END BOND
M  V30 END CTAB
M  END
>  <Dataset>  (373) 
ChEMBL_Kinases

>  <Ligand_Instance>  (373) 
nan

>  <PDB_ID>  (373) 
nan

>  <Standardized_SMILES>  (373) 
c1ccc(-n2cccc2)c(N2CCCCC2)c1

>  <Name>  (373) 
nan

>  <Pocket>  (373) 
nan

>  <ATP_Site>  (373) 
nan

>  <Peripheral>  (373) 
nan

>  <Num_H_Atoms_ProtBoundConf>  (373) 
nan

>  <Num_Resolved_Atoms>  (373) 
nan

>  <Num_Not_Resolved_Atoms>  (373) 
nan

$$$$
CHEMBL1565421
     RDKit          3D

  0  0  0  0  0  0  0  0  0  0999 V3000
M  V30 BEGIN CTAB
M  V30 COUNTS 34 35 0 0 0
M  V30 BEGIN ATOM
M  V30 1 C -1.578368 0.894050 -4.435778 0
M  V30 2 C -2.182344 -0.433232 -4.790413 0
M  V30 3 O -2.783142 -1.120871 -3.719538 0
M  V30 4 C -2.143404 -1.595905 -2.611879 0
M  V30 5 C -0.832110 -1.542773 -2.241943 0
M  V30 6 C -0.315246 -2.066999 -1.089391 0
M  V30 7 S 1.297924 -1.997520 -0.521014 0
M  V30 8 O 2.161091 -1.449765 -1.636925 0
M  V30 9 O 1.776833 -3.380849 -0.219056 0
M  V30 10 N 1.587803 -1.011827 0.841977 0
M  V30 11 C 1.352446 0.297584 0.786049 0
M  V30 12 C 1.119402 1.603142 0.737451 0
M  V30 13 C 2.324745 2.353765 0.722879 0
M  V30 14 C 2.275562 3.741838 0.698231 0
M  V30 15 C 0.923966 4.331788 0.670982 0
M  V30 16 S -0.267347 2.836085 0.702163 0
M  V30 17 C -1.241506 -2.675247 -0.297815 0
M  V30 18 C -2.617073 -2.803543 -0.546774 0
M  V30 19 C -3.042005 -2.241806 -1.736046 0
M  V30 20 Cl -4.767236 -2.403985 -2.068368 0
M  V30 21 H -2.201061 1.734822 -4.911637 0
M  V30 22 H -1.447564 1.042199 -3.348840 0
M  V30 23 H -0.582889 0.988561 -4.960226 0
M  V30 24 H -1.308357 -1.094344 -5.108142 0
M  V30 25 H -2.821369 -0.382365 -5.685070 0
M  V30 26 H -0.156252 -1.065204 -2.942975 0
M  V30 27 H 1.859428 -1.547295 1.702564 0
M  V30 28 H 0.105550 0.037852 0.319981 0
M  V30 29 H 0.682742 0.207801 1.989822 0
M  V30 30 H 3.384341 2.177874 0.734746 0
M  V30 31 H 2.848025 4.628830 0.679775 0
M  V30 32 H 0.386143 5.392929 0.641884 0
M  V30 33 H -0.930991 -3.125238 0.668512 0
M  V30 34 H -3.255404 -3.303791 0.130469 0
M  V30 END ATOM
M  V30 BEGIN BOND
M  V30 1 1 1 2
M  V30 2 1 2 3
M  V30 3 1 3 4
M  V30 4 2 4 5
M  V30 5 1 5 6
M  V30 6 1 6 7
M  V30 7 2 7 8
M  V30 8 2 7 9
M  V30 9 1 7 10
M  V30 10 1 10 11
M  V30 11 1 11 12
M  V30 12 2 12 13
M  V30 13 1 13 14
M  V30 14 2 14 15
M  V30 15 1 15 16
M  V30 16 2 6 17
M  V30 17 1 17 18
M  V30 18 2 18 19
M  V30 19 1 19 20
M  V30 20 1 19 4
M  V30 21 1 16 12
M  V30 22 1 1 21
M  V30 23 1 1 22
M  V30 24 1 1 23
M  V30 25 1 2 24
M  V30 26 1 2 25
M  V30 27 1 5 26
M  V30 28 1 10 27
M  V30 29 1 11 28
M  V30 30 1 11 29
M  V30 31 1 13 30
M  V30 32 1 14 31
M  V30 33 1 15 32
M  V30 34 1 17 33
M  V30 35 1 18 34
M  V30 END BOND
M  V30 END CTAB
M  END
>  <Dataset>  (374) 
ChEMBL_Kinases

>  <Ligand_Instance>  (374) 
nan

>  <PDB_ID>  (374) 
nan

>  <Standardized_SMILES>  (374) 
CCOc1cc(S(=O)(=O)NCc2cccs2)ccc1Cl

>  <Name>  (374) 
nan

>  <Pocket>  (374) 
nan

>  <ATP_Site>  (374) 
nan

>  <Peripheral>  (374) 
nan

>  <Num_H_Atoms_ProtBoundConf>  (374) 
nan

>  <Num_Resolved_Atoms>  (374) 
nan

>  <Num_Not_Resolved_Atoms>  (374) 
nan

$$$$
CHEMBL1557793
     RDKit          3D

  0  0  0  0  0  0  0  0  0  0999 V3000
M  V30 BEGIN CTAB
M  V30 COUNTS 43 46 0 0 0
M  V30 BEGIN ATOM
M  V30 1 O -0.785675 -3.542429 0.683375 0
M  V30 2 S -0.401505 -2.601539 -0.447660 0
M  V30 3 O -1.373192 -2.870897 -1.554330 0
M  V30 4 C 1.217342 -3.034314 -0.939174 0
M  V30 5 C 2.103430 -3.605350 -0.039146 0
M  V30 6 C 3.397455 -3.979068 -0.334851 0
M  V30 7 C 3.794837 -3.747823 -1.636201 0
M  V30 8 C 2.984228 -3.187586 -2.591965 0
M  V30 9 C 1.686812 -2.833134 -2.224655 0
M  V30 10 C -0.509235 -0.980468 0.157120 0
M  V30 11 N -0.767584 0.149579 -0.552709 0
M  V30 12 C -0.763284 1.195041 0.292957 0
M  V30 13 C -0.998543 2.591744 -0.065398 0
M  V30 14 C -1.259953 2.984343 -1.371904 0
M  V30 15 C -1.469462 4.338750 -1.604465 0
M  V30 16 C -1.431569 5.300483 -0.617071 0
M  V30 17 C -1.169945 4.901493 0.685755 0
M  V30 18 C -0.962016 3.560623 0.919158 0
M  V30 19 O -0.506677 0.730369 1.513348 0
M  V30 20 C -0.349761 -0.569318 1.463956 0
M  V30 21 N -0.063163 -1.366528 2.608995 0
M  V30 22 C 1.266133 -1.688635 3.095520 0
M  V30 23 C 1.197795 -1.109450 4.505782 0
M  V30 24 C -0.133589 -1.657462 4.975067 0
M  V30 25 C -0.756661 -2.107712 3.654662 0
M  V30 26 H 1.725947 -3.756629 0.957770 0
M  V30 27 H 4.026146 -4.419991 0.428860 0
M  V30 28 H 4.823647 -4.044238 -1.873776 0
M  V30 29 H 3.350690 -3.027627 -3.605590 0
M  V30 30 H 1.028017 -2.388578 -2.963794 0
M  V30 31 H -1.294141 2.250759 -2.157684 0
M  V30 32 H -1.674761 4.683327 -2.602157 0
M  V30 33 H -1.598933 6.352356 -0.826418 0
M  V30 34 H -1.134110 5.636960 1.483181 0
M  V30 35 H -0.759754 3.276347 1.945372 0
M  V30 36 H 2.064606 -1.237355 2.507279 0
M  V30 37 H 1.452533 -2.777560 3.131874 0
M  V30 38 H 1.194961 0.004009 4.399623 0
M  V30 39 H 2.038454 -1.483731 5.121277 0
M  V30 40 H 0.082948 -2.501365 5.653646 0
M  V30 41 H -0.735913 -0.869398 5.478348 0
M  V30 42 H -0.734030 -3.192576 3.519368 0
M  V30 43 H -1.827555 -1.754801 3.715444 0
M  V30 END ATOM
M  V30 BEGIN BOND
M  V30 1 2 1 2
M  V30 2 2 2 3
M  V30 3 1 2 4
M  V30 4 2 4 5
M  V30 5 1 5 6
M  V30 6 2 6 7
M  V30 7 1 7 8
M  V30 8 2 8 9
M  V30 9 1 2 10
M  V30 10 1 10 11
M  V30 11 2 11 12
M  V30 12 1 12 13
M  V30 13 2 13 14
M  V30 14 1 14 15
M  V30 15 2 15 16
M  V30 16 1 16 17
M  V30 17 2 17 18
M  V30 18 1 12 19
M  V30 19 1 19 20
M  V30 20 1 20 21
M  V30 21 1 21 22
M  V30 22 1 22 23
M  V30 23 1 23 24
M  V30 24 1 24 25
M  V30 25 1 9 4
M  V30 26 2 20 10
M  V30 27 1 25 21
M  V30 28 1 18 13
M  V30 29 1 5 26
M  V30 30 1 6 27
M  V30 31 1 7 28
M  V30 32 1 8 29
M  V30 33 1 9 30
M  V30 34 1 14 31
M  V30 35 1 15 32
M  V30 36 1 16 33
M  V30 37 1 17 34
M  V30 38 1 18 35
M  V30 39 1 22 36
M  V30 40 1 22 37
M  V30 41 1 23 38
M  V30 42 1 23 39
M  V30 43 1 24 40
M  V30 44 1 24 41
M  V30 45 1 25 42
M  V30 46 1 25 43
M  V30 END BOND
M  V30 END CTAB
M  END
>  <Dataset>  (375) 
ChEMBL_Kinases

>  <Ligand_Instance>  (375) 
nan

>  <PDB_ID>  (375) 
nan

>  <Standardized_SMILES>  (375) 
O=S(=O)(c1ccccc1)c1nc(-c2ccccc2)oc1N1CCCC1

>  <Name>  (375) 
nan

>  <Pocket>  (375) 
nan

>  <ATP_Site>  (375) 
nan

>  <Peripheral>  (375) 
nan

>  <Num_H_Atoms_ProtBoundConf>  (375) 
nan

>  <Num_Resolved_Atoms>  (375) 
nan

>  <Num_Not_Resolved_Atoms>  (375) 
nan

$$$$
CHEMBL1563855
     RDKit          3D

  0  0  0  0  0  0  0  0  0  0999 V3000
M  V30 BEGIN CTAB
M  V30 COUNTS 29 30 0 0 0
M  V30 BEGIN ATOM
M  V30 1 O -1.128743 -1.011184 3.208599 0
M  V30 2 C -0.546943 -0.330113 2.294056 0
M  V30 3 C 0.249739 0.730511 2.909429 0
M  V30 4 O 0.950294 1.563922 2.061909 0
M  V30 5 C 1.932240 1.279087 1.161201 0
M  V30 6 C 2.553939 0.092409 0.793728 0
M  V30 7 C 3.542800 0.071590 -0.165866 0
M  V30 8 C 3.956445 1.223648 -0.800514 0
M  V30 9 Cl 5.218595 1.118595 -2.009536 0
M  V30 10 C 3.357727 2.417355 -0.456850 0
M  V30 11 C 2.352209 2.450276 0.516544 0
M  V30 12 Cl 1.716545 4.068015 0.811009 0
M  V30 13 N -0.786530 -0.727656 0.950050 0
M  V30 14 C -1.642344 -1.841653 0.699931 0
M  V30 15 C -1.112185 -3.131689 0.626800 0
M  V30 16 C -1.939301 -4.204802 0.385477 0
M  V30 17 C -3.319653 -4.058051 0.205919 0
M  V30 18 Cl -4.388651 -5.407785 -0.101689 0
M  V30 19 C -3.773941 -2.757737 0.291033 0
M  V30 20 N -2.987365 -1.683417 0.526724 0
M  V30 21 H 0.907782 0.301279 3.721071 0
M  V30 22 H -0.475029 1.371182 3.487121 0
M  V30 23 H 2.147820 -0.739574 1.356724 0
M  V30 24 H 3.956814 -0.914377 -0.371258 0
M  V30 25 H 3.713595 3.293731 -0.979790 0
M  V30 26 H -0.270055 -0.104843 0.290236 0
M  V30 27 H -0.063327 -3.317754 0.754652 0
M  V30 28 H -1.571133 -5.230758 0.319711 0
M  V30 29 H -4.828449 -2.572605 0.162273 0
M  V30 END ATOM
M  V30 BEGIN BOND
M  V30 1 2 1 2
M  V30 2 1 2 3
M  V30 3 1 3 4
M  V30 4 1 4 5
M  V30 5 2 5 6
M  V30 6 1 6 7
M  V30 7 2 7 8
M  V30 8 1 8 9
M  V30 9 1 8 10
M  V30 10 2 10 11
M  V30 11 1 11 12
M  V30 12 1 2 13
M  V30 13 1 13 14
M  V30 14 2 14 15
M  V30 15 1 15 16
M  V30 16 2 16 17
M  V30 17 1 17 18
M  V30 18 1 17 19
M  V30 19 2 19 20
M  V30 20 1 11 5
M  V30 21 1 20 14
M  V30 22 1 3 21
M  V30 23 1 3 22
M  V30 24 1 6 23
M  V30 25 1 7 24
M  V30 26 1 10 25
M  V30 27 1 13 26
M  V30 28 1 15 27
M  V30 29 1 16 28
M  V30 30 1 19 29
M  V30 END BOND
M  V30 END CTAB
M  END
>  <Dataset>  (376) 
ChEMBL_Kinases

>  <Ligand_Instance>  (376) 
nan

>  <PDB_ID>  (376) 
nan

>  <Standardized_SMILES>  (376) 
O=C(COc1ccc(Cl)cc1Cl)Nc1ccc(Cl)cn1

>  <Name>  (376) 
nan

>  <Pocket>  (376) 
nan

>  <ATP_Site>  (376) 
nan

>  <Peripheral>  (376) 
nan

>  <Num_H_Atoms_ProtBoundConf>  (376) 
nan

>  <Num_Resolved_Atoms>  (376) 
nan

>  <Num_Not_Resolved_Atoms>  (376) 
nan

$$$$
CHEMBL1563871
     RDKit          3D

  0  0  0  0  0  0  0  0  0  0999 V3000
M  V30 BEGIN CTAB
M  V30 COUNTS 37 39 0 0 0
M  V30 BEGIN ATOM
M  V30 1 C -0.909869 -3.493218 3.072547 0
M  V30 2 C 0.035622 -2.496433 2.576299 0
M  V30 3 C 1.257811 -2.331821 3.054323 0
M  V30 4 C 1.908136 -3.052719 4.112680 0
M  V30 5 N 2.437620 -3.631451 4.983367 0
M  V30 6 C 1.859817 -1.249249 2.309217 0
M  V30 7 N 3.099016 -0.697785 2.426650 0
M  V30 8 C 3.420259 0.322544 1.617416 0
M  V30 9 N 4.693097 0.878610 1.733284 0
M  V30 10 C 2.570540 0.854978 0.670839 0
M  V30 11 C 3.077055 1.960646 -0.140425 0
M  V30 12 N 3.494164 2.843069 -0.778955 0
M  V30 13 C 1.309051 0.340774 0.507337 0
M  V30 14 C 0.479132 1.098885 -0.393074 0
M  V30 15 C 1.017023 -0.697842 1.332843 0
M  V30 16 C -0.119782 -1.526490 1.535675 0
M  V30 17 C -1.155200 -1.429150 0.803270 0
M  V30 18 C -1.721532 -0.727602 -0.252380 0
M  V30 19 C -2.692736 0.265778 -0.462864 0
M  V30 20 C -3.164479 0.634924 -1.696433 0
M  V30 21 C -2.695701 0.028980 -2.840536 0
M  V30 22 C -1.743079 -0.957793 -2.749575 0
M  V30 23 C -1.274718 -1.320411 -1.476674 0
M  V30 24 H -1.019097 -3.422924 4.178260 0
M  V30 25 H -1.891041 -3.442028 2.553546 0
M  V30 26 H -0.490164 -4.511777 2.849304 0
M  V30 27 H 5.595707 1.272308 1.943396 0
M  V30 28 H 5.328819 1.157131 0.954841 0
M  V30 29 H -0.428879 1.516986 0.129028 0
M  V30 30 H 1.002812 2.137318 -0.543014 0
M  V30 31 H 0.328210 0.806286 -1.409537 0
M  V30 32 H -2.031491 -2.076809 0.971413 0
M  V30 33 H -2.955064 0.640208 0.524784 0
M  V30 34 H -3.900776 1.416914 -1.641812 0
M  V30 35 H -3.166276 0.433609 -3.720942 0
M  V30 36 H -1.429493 -1.381688 -3.686672 0
M  V30 37 H -0.526867 -2.119184 -1.604455 0
M  V30 END ATOM
M  V30 BEGIN BOND
M  V30 1 1 1 2
M  V30 2 2 2 3
M  V30 3 1 3 4
M  V30 4 3 4 5
M  V30 5 1 3 6
M  V30 6 2 6 7
M  V30 7 1 7 8
M  V30 8 1 8 9
M  V30 9 2 8 10
M  V30 10 1 10 11
M  V30 11 3 11 12
M  V30 12 1 10 13
M  V30 13 1 13 14
M  V30 14 2 13 15
M  V30 15 1 15 16
M  V30 16 2 16 17
M  V30 17 1 17 18
M  V30 18 2 18 19
M  V30 19 1 19 20
M  V30 20 2 20 21
M  V30 21 1 21 22
M  V30 22 2 22 23
M  V30 23 1 16 2
M  V30 24 1 23 18
M  V30 25 1 15 6
M  V30 26 1 1 24
M  V30 27 1 1 25
M  V30 28 1 1 26
M  V30 29 1 9 27
M  V30 30 1 9 28
M  V30 31 1 14 29
M  V30 32 1 14 30
M  V30 33 1 14 31
M  V30 34 1 17 32
M  V30 35 1 19 33
M  V30 36 1 20 34
M  V30 37 1 21 35
M  V30 38 1 22 36
M  V30 39 1 23 37
M  V30 END BOND
M  V30 END CTAB
M  END
>  <Dataset>  (377) 
ChEMBL_Kinases

>  <Ligand_Instance>  (377) 
nan

>  <PDB_ID>  (377) 
nan

>  <Standardized_SMILES>  (377) 
CC1=C(C#N)c2nc(N)c(C#N)c(C)c2/C1=C\c1ccccc1

>  <Name>  (377) 
nan

>  <Pocket>  (377) 
nan

>  <ATP_Site>  (377) 
nan

>  <Peripheral>  (377) 
nan

>  <Num_H_Atoms_ProtBoundConf>  (377) 
nan

>  <Num_Resolved_Atoms>  (377) 
nan

>  <Num_Not_Resolved_Atoms>  (377) 
nan

$$$$
CHEMBL1564007
     RDKit          3D

  0  0  0  0  0  0  0  0  0  0999 V3000
M  V30 BEGIN CTAB
M  V30 COUNTS 37 39 0 0 0
M  V30 BEGIN ATOM
M  V30 1 O 0.754304 -0.031027 2.385180 0
M  V30 2 C 0.466478 -0.537492 1.265242 0
M  V30 3 C 0.965830 -1.881657 0.977446 0
M  V30 4 C 1.689186 -2.549922 1.844023 0
M  V30 5 C 2.245830 -3.891561 1.680520 0
M  V30 6 C 2.999634 -4.494649 2.677071 0
M  V30 7 C 3.511927 -5.761007 2.494878 0
M  V30 8 C 3.310143 -6.486003 1.338606 0
M  V30 9 Cl 3.994547 -8.090514 1.182792 0
M  V30 10 C 2.562201 -5.902084 0.335268 0
M  V30 11 C 2.051196 -4.623456 0.532517 0
M  V30 12 N -0.312593 0.142915 0.292498 0
M  V30 13 C -0.749191 1.466461 0.692985 0
M  V30 14 C -2.261858 1.519454 0.575996 0
M  V30 15 C -2.555410 2.362286 -0.627042 0
M  V30 16 C -2.357033 3.805270 -0.259614 0
M  V30 17 C -0.853392 3.864095 -0.011406 0
M  V30 18 C -0.334208 2.484319 -0.339745 0
M  V30 19 C -1.290459 2.120042 -1.458706 0
M  V30 20 H 0.760747 -2.377512 0.043981 0
M  V30 21 H 1.890738 -2.037590 2.786538 0
M  V30 22 H 3.165714 -3.938448 3.588109 0
M  V30 23 H 4.085321 -6.144940 3.328005 0
M  V30 24 H 2.391369 -6.457422 -0.585006 0
M  V30 25 H 1.488504 -4.249258 -0.287636 0
M  V30 26 H -0.498135 -0.354415 -0.599210 0
M  V30 27 H -0.402353 1.726776 1.708426 0
M  V30 28 H -2.633937 2.021076 1.497253 0
M  V30 29 H -2.708868 0.509035 0.492351 0
M  V30 30 H -3.465991 2.115711 -1.163227 0
M  V30 31 H -2.672110 4.436376 -1.114994 0
M  V30 32 H -2.926584 4.075188 0.651451 0
M  V30 33 H -0.439603 4.553414 -0.774458 0
M  V30 34 H -0.587091 4.205513 0.993048 0
M  V30 35 H 0.708773 2.453078 -0.627114 0
M  V30 36 H -1.203299 2.890677 -2.252753 0
M  V30 37 H -1.192680 1.100844 -1.820299 0
M  V30 END ATOM
M  V30 BEGIN BOND
M  V30 1 2 1 2
M  V30 2 1 2 3
M  V30 3 2 3 4
M  V30 4 1 4 5
M  V30 5 2 5 6
M  V30 6 1 6 7
M  V30 7 2 7 8
M  V30 8 1 8 9
M  V30 9 1 8 10
M  V30 10 2 10 11
M  V30 11 1 2 12
M  V30 12 1 12 13
M  V30 13 1 13 14
M  V30 14 1 14 15
M  V30 15 1 15 16
M  V30 16 1 16 17
M  V30 17 1 17 18
M  V30 18 1 18 19
M  V30 19 1 11 5
M  V30 20 1 18 13
M  V30 21 1 19 15
M  V30 22 1 3 20
M  V30 23 1 4 21
M  V30 24 1 6 22
M  V30 25 1 7 23
M  V30 26 1 10 24
M  V30 27 1 11 25
M  V30 28 1 12 26
M  V30 29 1 13 27
M  V30 30 1 14 28
M  V30 31 1 14 29
M  V30 32 1 15 30
M  V30 33 1 16 31
M  V30 34 1 16 32
M  V30 35 1 17 33
M  V30 36 1 17 34
M  V30 37 1 18 35
M  V30 38 1 19 36
M  V30 39 1 19 37
M  V30 END BOND
M  V30 END CTAB
M  END
>  <Dataset>  (378) 
ChEMBL_Kinases

>  <Ligand_Instance>  (378) 
nan

>  <PDB_ID>  (378) 
nan

>  <Standardized_SMILES>  (378) 
O=C(/C=C/c1ccc(Cl)cc1)NC1CC2CCC1C2

>  <Name>  (378) 
nan

>  <Pocket>  (378) 
nan

>  <ATP_Site>  (378) 
nan

>  <Peripheral>  (378) 
nan

>  <Num_H_Atoms_ProtBoundConf>  (378) 
nan

>  <Num_Resolved_Atoms>  (378) 
nan

>  <Num_Not_Resolved_Atoms>  (378) 
nan

$$$$
CHEMBL1564077
     RDKit          3D

  0  0  0  0  0  0  0  0  0  0999 V3000
M  V30 BEGIN CTAB
M  V30 COUNTS 46 48 0 0 0
M  V30 BEGIN ATOM
M  V30 1 C 4.669669 -4.210978 5.175893 0
M  V30 2 C 5.269917 -3.580348 3.945233 0
M  V30 3 O 4.429254 -2.508917 3.549268 0
M  V30 4 C 4.812096 -1.786356 2.421630 0
M  V30 5 O 5.887540 -2.322746 2.027321 0
M  V30 6 C 3.949421 -0.660383 1.986183 0
M  V30 7 N 4.603901 -0.100047 0.811389 0
M  V30 8 C 3.785025 0.972554 0.405242 0
M  V30 9 O 2.750030 1.620207 0.639660 0
M  V30 10 C 3.666795 2.035591 -0.611896 0
M  V30 11 S 2.205298 3.043266 -0.517942 0
M  V30 12 C 0.684901 2.252724 -0.928632 0
M  V30 13 N 0.482419 2.280491 -2.285499 0
M  V30 14 C -0.623005 1.752338 -2.846226 0
M  V30 15 N -1.603943 1.160492 -2.101667 0
M  V30 16 C -1.459220 1.104759 -0.757407 0
M  V30 17 C -0.322985 1.651270 -0.215660 0
M  V30 18 C -0.325293 1.536549 1.154140 0
M  V30 19 N -1.479213 0.909868 1.432991 0
M  V30 20 N -2.150164 0.651505 0.331062 0
M  V30 21 C -3.415606 0.005091 0.118219 0
M  V30 22 C -3.543702 -0.925609 -0.903256 0
M  V30 23 C -4.744033 -1.565951 -1.133587 0
M  V30 24 C -5.863280 -1.309603 -0.361737 0
M  V30 25 C -7.150061 -2.009132 -0.623111 0
M  V30 26 C -5.704518 -0.379174 0.646066 0
M  V30 27 C -4.528464 0.289498 0.919381 0
M  V30 28 H 5.507128 -4.546728 5.847960 0
M  V30 29 H 3.996089 -3.549538 5.742153 0
M  V30 30 H 4.110020 -5.117148 4.923456 0
M  V30 31 H 5.368337 -4.279477 3.100102 0
M  V30 32 H 6.274153 -3.141188 4.209248 0
M  V30 33 H 2.932748 -1.023594 1.738056 0
M  V30 34 H 3.913943 0.091569 2.798052 0
M  V30 35 H 5.367535 -0.077707 0.107003 0
M  V30 36 H 4.579694 2.696256 -0.497148 0
M  V30 37 H 3.748727 1.609265 -1.652488 0
M  V30 38 H -0.840368 1.743080 -3.905268 0
M  V30 39 H 0.405554 1.868262 1.868542 0
M  V30 40 H -2.668401 -1.115341 -1.494412 0
M  V30 41 H -4.757392 -2.276929 -1.951086 0
M  V30 42 H -8.023461 -1.386490 -0.443934 0
M  V30 43 H -7.148791 -2.960671 -0.051498 0
M  V30 44 H -7.167129 -2.335784 -1.700359 0
M  V30 45 H -6.566247 -0.161038 1.264599 0
M  V30 46 H -4.426622 1.009773 1.707864 0
M  V30 END ATOM
M  V30 BEGIN BOND
M  V30 1 1 1 2
M  V30 2 1 2 3
M  V30 3 1 3 4
M  V30 4 2 4 5
M  V30 5 1 4 6
M  V30 6 1 6 7
M  V30 7 1 7 8
M  V30 8 2 8 9
M  V30 9 1 8 10
M  V30 10 1 10 11
M  V30 11 1 11 12
M  V30 12 2 12 13
M  V30 13 1 13 14
M  V30 14 2 14 15
M  V30 15 1 15 16
M  V30 16 2 16 17
M  V30 17 1 17 18
M  V30 18 2 18 19
M  V30 19 1 19 20
M  V30 20 1 20 21
M  V30 21 2 21 22
M  V30 22 1 22 23
M  V30 23 2 23 24
M  V30 24 1 24 25
M  V30 25 1 24 26
M  V30 26 2 26 27
M  V30 27 1 17 12
M  V30 28 1 27 21
M  V30 29 1 20 16
M  V30 30 1 1 28
M  V30 31 1 1 29
M  V30 32 1 1 30
M  V30 33 1 2 31
M  V30 34 1 2 32
M  V30 35 1 6 33
M  V30 36 1 6 34
M  V30 37 1 7 35
M  V30 38 1 10 36
M  V30 39 1 10 37
M  V30 40 1 14 38
M  V30 41 1 18 39
M  V30 42 1 22 40
M  V30 43 1 23 41
M  V30 44 1 25 42
M  V30 45 1 25 43
M  V30 46 1 25 44
M  V30 47 1 26 45
M  V30 48 1 27 46
M  V30 END BOND
M  V30 END CTAB
M  END
>  <Dataset>  (379) 
ChEMBL_Kinases

>  <Ligand_Instance>  (379) 
nan

>  <PDB_ID>  (379) 
nan

>  <Standardized_SMILES>  (379) 
CCOC(=O)CNC(=O)CSc1ncnc2c1cnn2-c1ccc(C)cc1

>  <Name>  (379) 
nan

>  <Pocket>  (379) 
nan

>  <ATP_Site>  (379) 
nan

>  <Peripheral>  (379) 
nan

>  <Num_H_Atoms_ProtBoundConf>  (379) 
nan

>  <Num_Resolved_Atoms>  (379) 
nan

>  <Num_Not_Resolved_Atoms>  (379) 
nan

$$$$
CHEMBL1564194
     RDKit          3D

  0  0  0  0  0  0  0  0  0  0999 V3000
M  V30 BEGIN CTAB
M  V30 COUNTS 37 39 0 0 0
M  V30 BEGIN ATOM
M  V30 1 C -2.013293 -2.475112 1.047881 0
M  V30 2 C -0.871528 -3.436642 1.022926 0
M  V30 3 C -1.117104 -4.802645 1.193940 0
M  V30 4 C -0.073261 -5.706267 1.173762 0
M  V30 5 C 1.186759 -5.204941 0.981718 0
M  V30 6 C 1.448110 -3.880410 0.813329 0
M  V30 7 C 0.404719 -2.950151 0.830650 0
M  V30 8 C 0.662287 -1.524950 0.652096 0
M  V30 9 N -0.270593 -0.553960 0.652882 0
M  V30 10 C 0.048734 0.741970 0.481167 0
M  V30 11 N -1.077064 1.640298 0.510942 0
M  V30 12 C -1.339042 2.760282 1.422410 0
M  V30 13 C -2.106821 1.412880 -0.503622 0
M  V30 14 C 1.363055 1.133180 0.294826 0
M  V30 15 C 1.600958 2.481068 0.126632 0
M  V30 16 C 2.944434 2.814314 -0.056824 0
M  V30 17 C 3.933555 1.841180 -0.063600 0
M  V30 18 C 3.634172 0.505649 0.110083 0
M  V30 19 C 2.317145 0.137376 0.294309 0
M  V30 20 N 1.932785 -1.123510 0.469518 0
M  V30 21 H -2.954871 -3.035133 1.237929 0
M  V30 22 H -2.178073 -1.973397 0.070327 0
M  V30 23 H -1.915978 -1.740164 1.897846 0
M  V30 24 H -2.138538 -5.143832 1.342751 0
M  V30 25 H -0.333681 -6.752754 1.312761 0
M  V30 26 H 2.018896 -5.921535 0.965245 0
M  V30 27 H 2.445130 -3.486348 0.661641 0
M  V30 28 H -0.488051 2.898153 2.124768 0
M  V30 29 H -1.430614 3.691694 0.827629 0
M  V30 30 H -2.295039 2.597456 1.965999 0
M  V30 31 H -2.987886 0.956125 -0.026794 0
M  V30 32 H -1.713608 0.832529 -1.374427 0
M  V30 33 H -2.431868 2.427549 -0.861875 0
M  V30 34 H 0.817754 3.216613 0.135678 0
M  V30 35 H 3.232115 3.846963 -0.197319 0
M  V30 36 H 4.973723 2.098942 -0.205621 0
M  V30 37 H 4.370227 -0.278894 0.111403 0
M  V30 END ATOM
M  V30 BEGIN BOND
M  V30 1 1 1 2
M  V30 2 2 2 3
M  V30 3 1 3 4
M  V30 4 2 4 5
M  V30 5 1 5 6
M  V30 6 2 6 7
M  V30 7 1 7 8
M  V30 8 2 8 9
M  V30 9 1 9 10
M  V30 10 1 10 11
M  V30 11 1 11 12
M  V30 12 1 11 13
M  V30 13 2 10 14
M  V30 14 1 14 15
M  V30 15 2 15 16
M  V30 16 1 16 17
M  V30 17 2 17 18
M  V30 18 1 18 19
M  V30 19 2 19 20
M  V30 20 1 7 2
M  V30 21 1 20 8
M  V30 22 1 19 14
M  V30 23 1 1 21
M  V30 24 1 1 22
M  V30 25 1 1 23
M  V30 26 1 3 24
M  V30 27 1 4 25
M  V30 28 1 5 26
M  V30 29 1 6 27
M  V30 30 1 12 28
M  V30 31 1 12 29
M  V30 32 1 12 30
M  V30 33 1 13 31
M  V30 34 1 13 32
M  V30 35 1 13 33
M  V30 36 1 15 34
M  V30 37 1 16 35
M  V30 38 1 17 36
M  V30 39 1 18 37
M  V30 END BOND
M  V30 END CTAB
M  END
>  <Dataset>  (380) 
ChEMBL_Kinases

>  <Ligand_Instance>  (380) 
nan

>  <PDB_ID>  (380) 
nan

>  <Standardized_SMILES>  (380) 
Cc1ccccc1-c1nc(N(C)C)c2ccccc2n1

>  <Name>  (380) 
nan

>  <Pocket>  (380) 
nan

>  <ATP_Site>  (380) 
nan

>  <Peripheral>  (380) 
nan

>  <Num_H_Atoms_ProtBoundConf>  (380) 
nan

>  <Num_Resolved_Atoms>  (380) 
nan

>  <Num_Not_Resolved_Atoms>  (380) 
nan

$$$$
CHEMBL156433
     RDKit          3D

  0  0  0  0  0  0  0  0  0  0999 V3000
M  V30 BEGIN CTAB
M  V30 COUNTS 53 58 0 0 0
M  V30 BEGIN ATOM
M  V30 1 C 4.457091 -5.860171 0.685742 0
M  V30 2 O 4.183616 -4.578492 0.214935 0
M  V30 3 C 3.055660 -3.848648 0.568256 0
M  V30 4 C 2.146072 -4.411192 1.433398 0
M  V30 5 C 1.070079 -3.615640 1.720401 0
M  V30 6 C 0.810688 -2.313295 1.229991 0
M  V30 7 C 1.749093 -1.790834 0.366214 0
M  V30 8 C 2.826630 -2.589603 0.079944 0
M  V30 9 C 1.281978 -0.545033 0.029826 0
M  V30 10 C 1.815158 0.397459 -0.793370 0
M  V30 11 C 1.132232 1.579952 -0.964012 0
M  V30 12 C -0.054760 1.750019 -0.293562 0
M  V30 13 C -0.896518 2.809391 -0.295522 0
M  V30 14 C -1.006308 4.053253 -0.860400 0
M  V30 15 C -2.020443 4.956260 -0.671015 0
M  V30 16 C -3.061428 4.630505 0.163137 0
M  V30 17 C -2.973168 3.391056 0.739532 0
M  V30 18 C -1.929862 2.458621 0.546518 0
M  V30 19 N -1.740613 1.215442 1.061102 0
M  V30 20 C -2.725897 0.702672 1.968941 0
M  V30 21 C -0.589467 0.783114 0.543610 0
M  V30 22 C 0.081408 -0.382791 0.712602 0
M  V30 23 N -0.232821 -1.448532 1.455326 0
M  V30 24 C -1.253816 -1.909426 2.306390 0
M  V30 25 C -2.242047 -2.719335 1.450226 0
M  V30 26 C -3.391577 -3.252267 2.253309 0
M  V30 27 C -4.273358 -4.010537 1.333834 0
M  V30 28 N -4.964201 -4.587852 0.606165 0
M  V30 29 C 1.905914 2.400175 -1.877967 0
M  V30 30 O 1.742459 3.540553 -2.358402 0
M  V30 31 N 3.093900 1.720988 -2.287415 0
M  V30 32 C 3.004391 0.466582 -1.587218 0
M  V30 33 O 3.961788 -0.308085 -1.800555 0
M  V30 34 H 3.575826 -6.537446 0.730291 0
M  V30 35 H 4.863774 -5.777280 1.711476 0
M  V30 36 H 5.248105 -6.302498 0.022603 0
M  V30 37 H 2.297907 -5.395417 1.832582 0
M  V30 38 H 0.388084 -4.145640 2.419250 0
M  V30 39 H 3.587217 -2.258474 -0.573337 0
M  V30 40 H -0.256100 4.406873 -1.522422 0
M  V30 41 H -2.029347 5.921539 -1.158140 0
M  V30 42 H -3.864617 5.331648 0.320290 0
M  V30 43 H -3.847236 3.219088 1.387902 0
M  V30 44 H -3.285796 -0.173306 1.644392 0
M  V30 45 H -3.573128 1.446558 2.125645 0
M  V30 46 H -2.327902 0.685288 3.031183 0
M  V30 47 H -0.840019 -2.727881 3.023831 0
M  V30 48 H -1.773568 -1.316192 2.997306 0
M  V30 49 H -1.683618 -3.588604 0.979594 0
M  V30 50 H -2.629841 -2.160729 0.589049 0
M  V30 51 H -3.061816 -3.912135 3.081612 0
M  V30 52 H -4.019738 -2.480387 2.695252 0
M  V30 53 H 3.856010 2.066703 -2.950714 0
M  V30 END ATOM
M  V30 BEGIN BOND
M  V30 1 1 1 2
M  V30 2 1 2 3
M  V30 3 2 3 4
M  V30 4 1 4 5
M  V30 5 2 5 6
M  V30 6 1 6 7
M  V30 7 2 7 8
M  V30 8 1 7 9
M  V30 9 2 9 10
M  V30 10 1 10 11
M  V30 11 2 11 12
M  V30 12 1 12 13
M  V30 13 2 13 14
M  V30 14 1 14 15
M  V30 15 2 15 16
M  V30 16 1 16 17
M  V30 17 2 17 18
M  V30 18 1 18 19
M  V30 19 1 19 20
M  V30 20 1 19 21
M  V30 21 2 21 22
M  V30 22 1 22 23
M  V30 23 1 23 24
M  V30 24 1 24 25
M  V30 25 1 25 26
M  V30 26 1 26 27
M  V30 27 3 27 28
M  V30 28 1 11 29
M  V30 29 2 29 30
M  V30 30 1 29 31
M  V30 31 1 31 32
M  V30 32 2 32 33
M  V30 33 1 8 3
M  V30 34 1 22 9
M  V30 35 1 23 6
M  V30 36 1 32 10
M  V30 37 1 21 12
M  V30 38 1 18 13
M  V30 39 1 1 34
M  V30 40 1 1 35
M  V30 41 1 1 36
M  V30 42 1 4 37
M  V30 43 1 5 38
M  V30 44 1 8 39
M  V30 45 1 14 40
M  V30 46 1 15 41
M  V30 47 1 16 42
M  V30 48 1 17 43
M  V30 49 1 20 44
M  V30 50 1 20 45
M  V30 51 1 20 46
M  V30 52 1 24 47
M  V30 53 1 24 48
M  V30 54 1 25 49
M  V30 55 1 25 50
M  V30 56 1 26 51
M  V30 57 1 26 52
M  V30 58 1 31 53
M  V30 END BOND
M  V30 END CTAB
M  END
>  <Dataset>  (381) 
ChEMBL_Kinases

>  <Ligand_Instance>  (381) 
nan

>  <PDB_ID>  (381) 
nan

>  <Standardized_SMILES>  (381) 
COc1ccc2c(c1)c1c3c(c4c5ccccc5n(C)c4c1n2CCCC#N)C(=O)NC3=O

>  <Name>  (381) 
nan

>  <Pocket>  (381) 
nan

>  <ATP_Site>  (381) 
nan

>  <Peripheral>  (381) 
nan

>  <Num_H_Atoms_ProtBoundConf>  (381) 
nan

>  <Num_Resolved_Atoms>  (381) 
nan

>  <Num_Not_Resolved_Atoms>  (381) 
nan

$$$$
CHEMBL1564619
     RDKit          3D

  0  0  0  0  0  0  0  0  0  0999 V3000
M  V30 BEGIN CTAB
M  V30 COUNTS 32 34 0 0 0
M  V30 BEGIN ATOM
M  V30 1 C -2.215277 -3.743879 4.513749 0
M  V30 2 O -1.038642 -4.010761 3.745122 0
M  V30 3 C -0.825497 -3.403466 2.514186 0
M  V30 4 C 0.369177 -3.803473 1.948634 0
M  V30 5 C 0.762793 -3.304013 0.711206 0
M  V30 6 C -0.072548 -2.403099 0.072261 0
M  V30 7 C 0.256776 -1.808970 -1.256519 0
M  V30 8 O -0.811719 -1.804870 -2.138180 0
M  V30 9 C 0.634776 -0.291004 -0.998597 0
M  V30 10 N 1.552377 0.347430 -0.934955 0
M  V30 11 C 1.716652 1.632858 -0.709996 0
M  V30 12 C 2.869086 2.391306 -0.637983 0
M  V30 13 C 2.773206 3.742126 -0.386143 0
M  V30 14 C 1.571797 4.432477 -0.191145 0
M  V30 15 C 0.394740 3.717869 -0.253746 0
M  V30 16 C 0.572920 2.348402 -0.513722 0
M  V30 17 S -0.727449 0.982028 -0.688091 0
M  V30 18 C -1.271070 -1.996032 0.630023 0
M  V30 19 C -1.643306 -2.503464 1.858686 0
M  V30 20 H -3.064081 -3.754260 3.769730 0
M  V30 21 H -2.199381 -2.764890 5.007881 0
M  V30 22 H -2.442960 -4.559596 5.206837 0
M  V30 23 H 1.085001 -4.499606 2.369809 0
M  V30 24 H 1.667216 -3.536211 0.165460 0
M  V30 25 H 1.185558 -2.164535 -1.682484 0
M  V30 26 H -1.266834 -0.930003 -2.115108 0
M  V30 27 H 3.877168 2.012529 -0.765040 0
M  V30 28 H 3.687996 4.358956 -0.326283 0
M  V30 29 H 1.455351 5.482456 0.007023 0
M  V30 30 H -0.620692 4.062554 -0.132481 0
M  V30 31 H -1.977059 -1.310917 0.217057 0
M  V30 32 H -2.558188 -2.262238 2.400186 0
M  V30 END ATOM
M  V30 BEGIN BOND
M  V30 1 1 1 2
M  V30 2 1 2 3
M  V30 3 2 3 4
M  V30 4 1 4 5
M  V30 5 2 5 6
M  V30 6 1 6 7
M  V30 7 1 7 8
M  V30 8 1 7 9
M  V30 9 2 9 10
M  V30 10 1 10 11
M  V30 11 2 11 12
M  V30 12 1 12 13
M  V30 13 2 13 14
M  V30 14 1 14 15
M  V30 15 2 15 16
M  V30 16 1 16 17
M  V30 17 1 6 18
M  V30 18 2 18 19
M  V30 19 1 19 3
M  V30 20 1 17 9
M  V30 21 1 16 11
M  V30 22 1 1 20
M  V30 23 1 1 21
M  V30 24 1 1 22
M  V30 25 1 4 23
M  V30 26 1 5 24
M  V30 27 1 7 25
M  V30 28 1 8 26
M  V30 29 1 12 27
M  V30 30 1 13 28
M  V30 31 1 14 29
M  V30 32 1 15 30
M  V30 33 1 18 31
M  V30 34 1 19 32
M  V30 END BOND
M  V30 END CTAB
M  END
>  <Dataset>  (382) 
ChEMBL_Kinases

>  <Ligand_Instance>  (382) 
nan

>  <PDB_ID>  (382) 
nan

>  <Standardized_SMILES>  (382) 
COc1ccc(C(O)c2nc3ccccc3s2)cc1

>  <Name>  (382) 
nan

>  <Pocket>  (382) 
nan

>  <ATP_Site>  (382) 
nan

>  <Peripheral>  (382) 
nan

>  <Num_H_Atoms_ProtBoundConf>  (382) 
nan

>  <Num_Resolved_Atoms>  (382) 
nan

>  <Num_Not_Resolved_Atoms>  (382) 
nan

$$$$
CHEMBL1565338
     RDKit          3D

  0  0  0  0  0  0  0  0  0  0999 V3000
M  V30 BEGIN CTAB
M  V30 COUNTS 57 60 0 0 0
M  V30 BEGIN ATOM
M  V30 1 O 4.454927 -0.428185 2.443632 0
M  V30 2 C 4.103642 0.286128 1.443743 0
M  V30 3 N 5.101895 1.181283 0.996495 0
M  V30 4 C 6.396037 1.275012 1.616063 0
M  V30 5 C 7.187156 0.079671 1.615578 0
M  V30 6 C 8.167836 -0.437395 0.651503 0
M  V30 7 C 8.756927 -1.624221 0.957761 0
M  V30 8 C 8.423230 -2.324477 2.170994 0
M  V30 9 S 7.151046 -1.190224 2.953178 0
M  V30 10 C 2.763828 0.169932 0.823869 0
M  V30 11 C 2.003906 1.478358 0.883407 0
M  V30 12 C 0.818825 1.460675 -0.023908 0
M  V30 13 N 0.419451 0.118779 -0.310807 0
M  V30 14 C -0.814452 -0.521313 0.003009 0
M  V30 15 C -1.500917 -0.975286 -1.126544 0
M  V30 16 C -2.731838 -1.629175 -1.018015 0
M  V30 17 C -3.281145 -1.830840 0.231555 0
M  V30 18 S -4.808622 -2.631349 0.512082 0
M  V30 19 O -4.812699 -3.335894 1.847134 0
M  V30 20 O -5.075946 -3.691799 -0.514717 0
M  V30 21 N -6.128019 -1.547625 0.513584 0
M  V30 22 C -6.323672 -0.850069 -0.728190 0
M  V30 23 C -7.520443 -1.360745 -1.499952 0
M  V30 24 O -7.686007 -2.732648 -1.323866 0
M  V30 25 C -8.097472 -2.942199 -0.013210 0
M  V30 26 C -7.302210 -2.197708 1.005285 0
M  V30 27 C -2.595570 -1.378879 1.340696 0
M  V30 28 C -1.380834 -0.732793 1.244166 0
M  V30 29 Cl -0.466927 -0.140632 2.584794 0
M  V30 30 C 1.417122 -0.673230 -1.012873 0
M  V30 31 C 2.817652 -0.289902 -0.620470 0
M  V30 32 H 4.831052 1.782705 0.168579 0
M  V30 33 H 6.235722 1.644562 2.665303 0
M  V30 34 H 6.953145 2.112236 1.114250 0
M  V30 35 H 8.301260 0.199102 -0.193885 0
M  V30 36 H 9.477320 -2.014484 0.260239 0
M  V30 37 H 8.882738 -3.258316 2.418017 0
M  V30 38 H 2.226091 -0.645468 1.362996 0
M  V30 39 H 1.770928 1.749504 1.937111 0
M  V30 40 H 2.761460 2.258449 0.576248 0
M  V30 41 H 1.177032 1.884120 -1.007424 0
M  V30 42 H -0.001741 2.127440 0.272228 0
M  V30 43 H -1.142898 -0.860114 -2.157712 0
M  V30 44 H -3.276527 -1.986887 -1.880972 0
M  V30 45 H -5.401717 -1.002497 -1.326160 0
M  V30 46 H -6.403858 0.227721 -0.497459 0
M  V30 47 H -8.413552 -0.895328 -0.994021 0
M  V30 48 H -7.417221 -1.055708 -2.546298 0
M  V30 49 H -8.106455 -4.047060 0.170960 0
M  V30 50 H -9.178631 -2.633965 0.011537 0
M  V30 51 H -7.010058 -2.859588 1.845421 0
M  V30 52 H -7.956615 -1.393904 1.450014 0
M  V30 53 H -2.950743 -1.492723 2.369032 0
M  V30 54 H 1.300838 -0.408406 -2.086182 0
M  V30 55 H 1.206993 -1.744233 -0.925510 0
M  V30 56 H 3.283036 0.433646 -1.291219 0
M  V30 57 H 3.457706 -1.217806 -0.669980 0
M  V30 END ATOM
M  V30 BEGIN BOND
M  V30 1 2 1 2
M  V30 2 1 2 3
M  V30 3 1 3 4
M  V30 4 1 4 5
M  V30 5 2 5 6
M  V30 6 1 6 7
M  V30 7 2 7 8
M  V30 8 1 8 9
M  V30 9 1 2 10
M  V30 10 1 10 11
M  V30 11 1 11 12
M  V30 12 1 12 13
M  V30 13 1 13 14
M  V30 14 2 14 15
M  V30 15 1 15 16
M  V30 16 2 16 17
M  V30 17 1 17 18
M  V30 18 2 18 19
M  V30 19 2 18 20
M  V30 20 1 18 21
M  V30 21 1 21 22
M  V30 22 1 22 23
M  V30 23 1 23 24
M  V30 24 1 24 25
M  V30 25 1 25 26
M  V30 26 1 17 27
M  V30 27 2 27 28
M  V30 28 1 28 29
M  V30 29 1 13 30
M  V30 30 1 30 31
M  V30 31 1 9 5
M  V30 32 1 31 10
M  V30 33 1 28 14
M  V30 34 1 26 21
M  V30 35 1 3 32
M  V30 36 1 4 33
M  V30 37 1 4 34
M  V30 38 1 6 35
M  V30 39 1 7 36
M  V30 40 1 8 37
M  V30 41 1 10 38
M  V30 42 1 11 39
M  V30 43 1 11 40
M  V30 44 1 12 41
M  V30 45 1 12 42
M  V30 46 1 15 43
M  V30 47 1 16 44
M  V30 48 1 22 45
M  V30 49 1 22 46
M  V30 50 1 23 47
M  V30 51 1 23 48
M  V30 52 1 25 49
M  V30 53 1 25 50
M  V30 54 1 26 51
M  V30 55 1 26 52
M  V30 56 1 27 53
M  V30 57 1 30 54
M  V30 58 1 30 55
M  V30 59 1 31 56
M  V30 60 1 31 57
M  V30 END BOND
M  V30 END CTAB
M  END
>  <Dataset>  (383) 
ChEMBL_Kinases

>  <Ligand_Instance>  (383) 
nan

>  <PDB_ID>  (383) 
nan

>  <Standardized_SMILES>  (383) 
O=C(NCc1cccs1)C1CCN(c2ccc(S(=O)(=O)N3CCOCC3)cc2Cl)CC1

>  <Name>  (383) 
nan

>  <Pocket>  (383) 
nan

>  <ATP_Site>  (383) 
nan

>  <Peripheral>  (383) 
nan

>  <Num_H_Atoms_ProtBoundConf>  (383) 
nan

>  <Num_Resolved_Atoms>  (383) 
nan

>  <Num_Not_Resolved_Atoms>  (383) 
nan

$$$$
CHEMBL1564737
     RDKit          3D

  0  0  0  0  0  0  0  0  0  0999 V3000
M  V30 BEGIN CTAB
M  V30 COUNTS 47 50 0 0 0
M  V30 BEGIN ATOM
M  V30 1 O 2.291005 -1.406154 1.135049 0
M  V30 2 C 1.268100 -0.873429 1.638992 0
M  V30 3 N 1.489551 0.296782 2.366821 0
M  V30 4 C 2.921797 0.794713 2.471053 0
M  V30 5 N 3.391294 1.582060 1.628325 0
M  V30 6 C 4.623447 2.030898 1.689985 0
M  V30 7 C 5.139033 2.953853 0.682536 0
M  V30 8 C 4.398166 3.416385 -0.384317 0
M  V30 9 C 4.858886 4.282019 -1.341459 0
M  V30 10 C 6.149645 4.738825 -1.257054 0
M  V30 11 C 6.936285 4.315706 -0.219835 0
M  V30 12 C 6.425435 3.443223 0.718719 0
M  V30 13 C 5.412626 1.578072 2.769902 0
M  V30 14 S 4.147987 0.455678 3.636592 0
M  V30 15 C -0.072376 -1.430648 1.482140 0
M  V30 16 C -1.205221 -0.858301 2.030351 0
M  V30 17 C -2.471319 -1.387151 1.880251 0
M  V30 18 C -2.604362 -2.546809 1.143752 0
M  V30 19 N -3.906144 -3.098496 0.982207 0
M  V30 20 C -4.519670 -3.273783 -0.344097 0
M  V30 21 C -5.568667 -2.194123 -0.520975 0
M  V30 22 O -6.119627 -1.917398 0.732112 0
M  V30 23 C -6.246200 -3.111996 1.468068 0
M  V30 24 C -4.883658 -3.586356 1.967603 0
M  V30 25 C -1.466901 -3.108491 0.601880 0
M  V30 26 N -1.568209 -4.303363 -0.161431 0 CHG=1 VAL=4
M  V30 27 O -0.771219 -4.624871 -1.064908 0
M  V30 28 O -2.416619 -5.383113 -0.210263 0 CHG=-1 VAL=1
M  V30 29 C -0.194389 -2.590572 0.743811 0
M  V30 30 H 0.755042 0.832365 2.828417 0
M  V30 31 H 3.358939 3.065754 -0.476419 0
M  V30 32 H 4.190679 4.585920 -2.144459 0
M  V30 33 H 6.448489 5.417216 -2.042073 0
M  V30 34 H 7.940600 4.677316 -0.162766 0
M  V30 35 H 7.102862 3.160580 1.497060 0
M  V30 36 H 6.496513 1.888105 2.943390 0
M  V30 37 H -1.112857 0.050229 2.609235 0
M  V30 38 H -3.325301 -0.896910 2.331862 0
M  V30 39 H -3.731055 -3.055981 -1.089453 0
M  V30 40 H -4.915677 -4.278692 -0.487873 0
M  V30 41 H -6.330678 -2.532877 -1.221476 0
M  V30 42 H -5.152992 -1.237110 -0.884162 0
M  V30 43 H -6.957758 -2.910734 2.279322 0
M  V30 44 H -6.708413 -3.838204 0.765499 0
M  V30 45 H -4.916413 -4.702912 1.833143 0
M  V30 46 H -4.659051 -3.278165 2.987472 0
M  V30 47 H 0.668479 -3.083330 0.289066 0
M  V30 END ATOM
M  V30 BEGIN BOND
M  V30 1 2 1 2
M  V30 2 1 2 3
M  V30 3 1 3 4
M  V30 4 2 4 5
M  V30 5 1 5 6
M  V30 6 1 6 7
M  V30 7 2 7 8
M  V30 8 1 8 9
M  V30 9 2 9 10
M  V30 10 1 10 11
M  V30 11 2 11 12
M  V30 12 2 6 13
M  V30 13 1 13 14
M  V30 14 1 2 15
M  V30 15 2 15 16
M  V30 16 1 16 17
M  V30 17 2 17 18
M  V30 18 1 18 19
M  V30 19 1 19 20
M  V30 20 1 20 21
M  V30 21 1 21 22
M  V30 22 1 22 23
M  V30 23 1 23 24
M  V30 24 1 18 25
M  V30 25 1 25 26
M  V30 26 2 26 27
M  V30 27 1 26 28
M  V30 28 2 25 29
M  V30 29 1 14 4
M  V30 30 1 29 15
M  V30 31 1 12 7
M  V30 32 1 24 19
M  V30 33 1 3 30
M  V30 34 1 8 31
M  V30 35 1 9 32
M  V30 36 1 10 33
M  V30 37 1 11 34
M  V30 38 1 12 35
M  V30 39 1 13 36
M  V30 40 1 16 37
M  V30 41 1 17 38
M  V30 42 1 20 39
M  V30 43 1 20 40
M  V30 44 1 21 41
M  V30 45 1 21 42
M  V30 46 1 23 43
M  V30 47 1 23 44
M  V30 48 1 24 45
M  V30 49 1 24 46
M  V30 50 1 29 47
M  V30 END BOND
M  V30 END CTAB
M  END
>  <Dataset>  (384) 
ChEMBL_Kinases

>  <Ligand_Instance>  (384) 
nan

>  <PDB_ID>  (384) 
nan

>  <Standardized_SMILES>  (384) 
O=C(Nc1nc(-c2ccccc2)cs1)c1ccc(N2CCOCC2)c([N+](=O)[O-])c1

>  <Name>  (384) 
nan

>  <Pocket>  (384) 
nan

>  <ATP_Site>  (384) 
nan

>  <Peripheral>  (384) 
nan

>  <Num_H_Atoms_ProtBoundConf>  (384) 
nan

>  <Num_Resolved_Atoms>  (384) 
nan

>  <Num_Not_Resolved_Atoms>  (384) 
nan

$$$$
CHEMBL1564779
     RDKit          3D

  0  0  0  0  0  0  0  0  0  0999 V3000
M  V30 BEGIN CTAB
M  V30 COUNTS 46 49 0 0 0
M  V30 BEGIN ATOM
M  V30 1 O -1.034950 -2.355197 3.645503 0
M  V30 2 C -0.887825 -1.280125 2.955441 0
M  V30 3 C -1.934331 -0.335750 3.232428 0
M  V30 4 S -1.871150 1.318305 2.688890 0
M  V30 5 C -1.707374 1.658105 0.981159 0
M  V30 6 N -2.442467 1.725709 -0.143987 0
M  V30 7 C -1.730711 2.156403 -1.193494 0
M  V30 8 C -0.456120 2.388600 -0.741668 0
M  V30 9 C 0.603891 2.874578 -1.612950 0
M  V30 10 O 1.771512 3.079508 -1.171406 0
M  V30 11 O 0.422362 3.139574 -2.939865 0
M  V30 12 N -0.468861 2.080365 0.577990 0
M  V30 13 C 0.794706 2.321900 1.234090 0
M  V30 14 C 2.037064 1.747925 1.238396 0
M  V30 15 C 3.067750 2.246771 1.986491 0
M  V30 16 C 2.877578 3.370108 2.777145 0
M  V30 17 F 3.941872 3.802510 3.482396 0
M  V30 18 C 1.635850 3.985421 2.804284 0
M  V30 19 C 0.593295 3.462339 2.033050 0
M  V30 20 N 0.218435 -1.293811 2.124782 0
M  V30 21 C 1.287392 -2.225665 1.819514 0
M  V30 22 C 0.753002 -3.333680 0.935862 0
M  V30 23 C 0.286657 -4.444281 1.609790 0
M  V30 24 C -0.260179 -5.543581 0.991490 0
M  V30 25 C -0.309864 -5.451076 -0.399764 0
M  V30 26 C 0.154878 -4.341469 -1.114746 0
M  V30 27 C 0.690706 -3.276258 -0.425666 0
M  V30 28 O -0.086145 -4.672869 -2.443088 0
M  V30 29 C -1.133668 -5.662052 -2.494077 0
M  V30 30 O -0.807032 -6.393063 -1.312655 0
M  V30 31 H -2.918667 -0.816385 2.907730 0
M  V30 32 H -2.083396 -0.309358 4.368153 0
M  V30 33 H -2.170270 2.268649 -2.195616 0
M  V30 34 H 1.219422 3.170697 -3.593432 0
M  V30 35 H 1.988144 0.885057 0.559503 0
M  V30 36 H 3.972308 1.686495 1.880052 0
M  V30 37 H 1.546637 4.869555 3.443710 0
M  V30 38 H -0.311682 4.074374 2.178836 0
M  V30 39 H 0.261257 -0.425488 1.586166 0
M  V30 40 H 2.151878 -1.737090 1.371405 0
M  V30 41 H 1.632916 -2.650348 2.783125 0
M  V30 42 H 0.325277 -4.527219 2.702468 0
M  V30 43 H -0.625006 -6.411929 1.525730 0
M  V30 44 H 1.053906 -2.411052 -0.933727 0
M  V30 45 H -2.140114 -5.212160 -2.405866 0
M  V30 46 H -1.020588 -6.249514 -3.415670 0
M  V30 END ATOM
M  V30 BEGIN BOND
M  V30 1 2 1 2
M  V30 2 1 2 3
M  V30 3 1 3 4
M  V30 4 1 4 5
M  V30 5 2 5 6
M  V30 6 1 6 7
M  V30 7 2 7 8
M  V30 8 1 8 9
M  V30 9 2 9 10
M  V30 10 1 9 11
M  V30 11 1 8 12
M  V30 12 1 12 13
M  V30 13 2 13 14
M  V30 14 1 14 15
M  V30 15 2 15 16
M  V30 16 1 16 17
M  V30 17 1 16 18
M  V30 18 2 18 19
M  V30 19 1 2 20
M  V30 20 1 20 21
M  V30 21 1 21 22
M  V30 22 2 22 23
M  V30 23 1 23 24
M  V30 24 2 24 25
M  V30 25 1 25 26
M  V30 26 2 26 27
M  V30 27 1 26 28
M  V30 28 1 28 29
M  V30 29 1 29 30
M  V30 30 1 12 5
M  V30 31 1 19 13
M  V30 32 1 27 22
M  V30 33 1 30 25
M  V30 34 1 3 31
M  V30 35 1 3 32
M  V30 36 1 7 33
M  V30 37 1 11 34
M  V30 38 1 14 35
M  V30 39 1 15 36
M  V30 40 1 18 37
M  V30 41 1 19 38
M  V30 42 1 20 39
M  V30 43 1 21 40
M  V30 44 1 21 41
M  V30 45 1 23 42
M  V30 46 1 24 43
M  V30 47 1 27 44
M  V30 48 1 29 45
M  V30 49 1 29 46
M  V30 END BOND
M  V30 END CTAB
M  END
>  <Dataset>  (385) 
ChEMBL_Kinases

>  <Ligand_Instance>  (385) 
nan

>  <PDB_ID>  (385) 
nan

>  <Standardized_SMILES>  (385) 
O=C(CSc1ncc(C(=O)O)n1-c1ccc(F)cc1)NCc1ccc2c(c1)OCO2

>  <Name>  (385) 
nan

>  <Pocket>  (385) 
nan

>  <ATP_Site>  (385) 
nan

>  <Peripheral>  (385) 
nan

>  <Num_H_Atoms_ProtBoundConf>  (385) 
nan

>  <Num_Resolved_Atoms>  (385) 
nan

>  <Num_Not_Resolved_Atoms>  (385) 
nan

$$$$
CHEMBL1564845
     RDKit          3D

  0  0  0  0  0  0  0  0  0  0999 V3000
M  V30 BEGIN CTAB
M  V30 COUNTS 35 37 0 0 0
M  V30 BEGIN ATOM
M  V30 1 C -0.955010 -1.643832 3.731995 0
M  V30 2 O 0.144447 -2.055187 2.969565 0
M  V30 3 C -0.181883 -3.134731 2.160076 0
M  V30 4 C 1.034195 -3.630128 1.345406 0
M  V30 5 N 1.507635 -2.604039 0.505019 0
M  V30 6 C 2.120002 -1.657172 -0.395977 0
M  V30 7 N 3.262131 -1.794714 -1.086708 0
M  V30 8 C 3.846305 -0.930094 -1.896798 0
M  V30 9 N 3.160566 0.201142 -1.994707 0
M  V30 10 C 2.014347 0.482609 -1.372254 0
M  V30 11 C 1.511141 1.733368 -1.661778 0
M  V30 12 C 0.318378 2.095479 -1.061951 0
M  V30 13 C -0.285572 1.184417 -0.217443 0
M  V30 14 C -1.539364 1.632244 0.372781 0
M  V30 15 C -2.426667 2.474453 -0.272166 0
M  V30 16 C -3.510816 2.703773 0.582692 0
M  V30 17 O -3.289682 2.032209 1.692196 0
M  V30 18 C -2.157581 1.410133 1.585992 0
M  V30 19 C 0.275785 -0.048131 0.025109 0
M  V30 20 C 1.458174 -0.461442 -0.542020 0
M  V30 21 H -0.639681 -0.783094 4.332670 0
M  V30 22 H -1.241829 -2.448252 4.466941 0
M  V30 23 H -1.849018 -1.440233 3.132418 0
M  V30 24 H -0.486717 -3.950590 2.842386 0
M  V30 25 H -1.025958 -2.921857 1.478241 0
M  V30 26 H 0.708153 -4.574411 0.819695 0
M  V30 27 H 1.802067 -3.965583 2.099857 0
M  V30 28 H 2.254403 -3.339899 0.287237 0
M  V30 29 H 4.773877 -1.186471 -2.386689 0
M  V30 30 H 1.991404 2.428612 -2.319075 0
M  V30 31 H -0.105129 3.062418 -1.263252 0
M  V30 32 H -2.321679 2.898721 -1.272100 0
M  V30 33 H -4.359482 3.329956 0.334046 0
M  V30 34 H -1.709306 0.778292 2.337991 0
M  V30 35 H -0.203475 -0.749423 0.669895 0
M  V30 END ATOM
M  V30 BEGIN BOND
M  V30 1 1 1 2
M  V30 2 1 2 3
M  V30 3 1 3 4
M  V30 4 1 4 5
M  V30 5 1 5 6
M  V30 6 2 6 7
M  V30 7 1 7 8
M  V30 8 2 8 9
M  V30 9 1 9 10
M  V30 10 2 10 11
M  V30 11 1 11 12
M  V30 12 2 12 13
M  V30 13 1 13 14
M  V30 14 1 14 15
M  V30 15 2 15 16
M  V30 16 1 16 17
M  V30 17 1 17 18
M  V30 18 1 13 19
M  V30 19 2 19 20
M  V30 20 1 20 6
M  V30 21 1 20 10
M  V30 22 2 18 14
M  V30 23 1 1 21
M  V30 24 1 1 22
M  V30 25 1 1 23
M  V30 26 1 3 24
M  V30 27 1 3 25
M  V30 28 1 4 26
M  V30 29 1 4 27
M  V30 30 1 5 28
M  V30 31 1 8 29
M  V30 32 1 11 30
M  V30 33 1 12 31
M  V30 34 1 15 32
M  V30 35 1 16 33
M  V30 36 1 18 34
M  V30 37 1 19 35
M  V30 END BOND
M  V30 END CTAB
M  END
>  <Dataset>  (386) 
ChEMBL_Kinases

>  <Ligand_Instance>  (386) 
nan

>  <PDB_ID>  (386) 
nan

>  <Standardized_SMILES>  (386) 
COCCNc1ncnc2ccc(-c3ccoc3)cc12

>  <Name>  (386) 
nan

>  <Pocket>  (386) 
nan

>  <ATP_Site>  (386) 
nan

>  <Peripheral>  (386) 
nan

>  <Num_H_Atoms_ProtBoundConf>  (386) 
nan

>  <Num_Resolved_Atoms>  (386) 
nan

>  <Num_Not_Resolved_Atoms>  (386) 
nan

$$$$
CHEMBL1565033
     RDKit          3D

  0  0  0  0  0  0  0  0  0  0999 V3000
M  V30 BEGIN CTAB
M  V30 COUNTS 39 41 0 0 0
M  V30 BEGIN ATOM
M  V30 1 C 0.329717 -4.256530 3.320767 0
M  V30 2 C 1.766590 -4.070980 3.040803 0
M  V30 3 C 2.625502 -4.803529 3.799174 0
M  V30 4 C 4.005339 -4.766798 3.685584 0
M  V30 5 C 4.554263 -3.930155 2.738203 0
M  V30 6 C 3.641649 -3.194883 1.979695 0
M  V30 7 S 3.888376 -1.945313 0.595172 0
M  V30 8 C 2.067365 -1.693540 0.415557 0
M  V30 9 N 1.276867 -0.831945 -0.488065 0
M  V30 10 C 0.998730 0.489025 0.021456 0
M  V30 11 O 1.543520 0.547292 1.174313 0
M  V30 12 C 0.201455 1.270113 -0.961362 0
M  V30 13 N -0.103767 2.585824 -0.511029 0
M  V30 14 C 1.010422 3.265099 0.100420 0
M  V30 15 S -1.562556 2.778525 0.334341 0
M  V30 16 O -1.600945 2.015351 1.626536 0
M  V30 17 O -1.646114 4.241041 0.732801 0
M  V30 18 C -2.976673 2.398375 -0.552515 0
M  V30 19 C -3.265836 1.982898 -1.808678 0
M  V30 20 C -4.538144 1.763790 -2.234121 0
M  V30 21 C -5.544653 2.030144 -1.177088 0
M  V30 22 Br -7.480064 1.742189 -1.683080 0
M  V30 23 S -4.535249 2.555582 0.275182 0
M  V30 24 N 1.595252 -2.412027 1.229178 0
M  V30 25 C 2.228799 -3.207955 2.069075 0
M  V30 26 H -0.097338 -3.463042 3.991365 0
M  V30 27 H -0.284548 -4.190641 2.378309 0
M  V30 28 H 0.096855 -5.260454 3.725168 0
M  V30 29 H 2.269062 -5.498006 4.580301 0
M  V30 30 H 4.745870 -5.313277 4.246021 0
M  V30 31 H 5.584667 -3.736523 2.470965 0
M  V30 32 H 1.047928 -1.338060 -1.364072 0
M  V30 33 H 0.810266 1.340263 -1.886387 0
M  V30 34 H -0.729620 0.707330 -1.174742 0
M  V30 35 H 1.126847 2.851221 1.125741 0
M  V30 36 H 1.911124 3.068009 -0.528778 0
M  V30 37 H 0.813112 4.358880 0.116243 0
M  V30 38 H -2.396491 1.847679 -2.431064 0
M  V30 39 H -4.790615 1.434222 -3.225278 0
M  V30 END ATOM
M  V30 BEGIN BOND
M  V30 1 1 1 2
M  V30 2 2 2 3
M  V30 3 1 3 4
M  V30 4 2 4 5
M  V30 5 1 5 6
M  V30 6 1 6 7
M  V30 7 1 7 8
M  V30 8 1 8 9
M  V30 9 1 9 10
M  V30 10 2 10 11
M  V30 11 1 10 12
M  V30 12 1 12 13
M  V30 13 1 13 14
M  V30 14 1 13 15
M  V30 15 2 15 16
M  V30 16 2 15 17
M  V30 17 1 15 18
M  V30 18 2 18 19
M  V30 19 1 19 20
M  V30 20 2 20 21
M  V30 21 1 21 22
M  V30 22 1 21 23
M  V30 23 2 8 24
M  V30 24 1 24 25
M  V30 25 1 25 2
M  V30 26 2 25 6
M  V30 27 1 23 18
M  V30 28 1 1 26
M  V30 29 1 1 27
M  V30 30 1 1 28
M  V30 31 1 3 29
M  V30 32 1 4 30
M  V30 33 1 5 31
M  V30 34 1 9 32
M  V30 35 1 12 33
M  V30 36 1 12 34
M  V30 37 1 14 35
M  V30 38 1 14 36
M  V30 39 1 14 37
M  V30 40 1 19 38
M  V30 41 1 20 39
M  V30 END BOND
M  V30 END CTAB
M  END
>  <Dataset>  (387) 
ChEMBL_Kinases

>  <Ligand_Instance>  (387) 
nan

>  <PDB_ID>  (387) 
nan

>  <Standardized_SMILES>  (387) 
Cc1cccc2sc(NC(=O)CN(C)S(=O)(=O)c3ccc(Br)s3)nc12

>  <Name>  (387) 
nan

>  <Pocket>  (387) 
nan

>  <ATP_Site>  (387) 
nan

>  <Peripheral>  (387) 
nan

>  <Num_H_Atoms_ProtBoundConf>  (387) 
nan

>  <Num_Resolved_Atoms>  (387) 
nan

>  <Num_Not_Resolved_Atoms>  (387) 
nan

$$$$
CHEMBL1565054
     RDKit          3D

  0  0  0  0  0  0  0  0  0  0999 V3000
M  V30 BEGIN CTAB
M  V30 COUNTS 62 65 0 0 0
M  V30 BEGIN ATOM
M  V30 1 C 3.683432 -2.028369 7.094284 0
M  V30 2 O 3.159776 -2.165682 5.781235 0
M  V30 3 C 3.527521 -1.277842 4.780575 0
M  V30 4 C 4.394543 -0.224025 4.946334 0
M  V30 5 C 4.725333 0.629126 3.914031 0
M  V30 6 C 4.180982 0.445526 2.648896 0
M  V30 7 C 4.658901 1.461177 1.668639 0
M  V30 8 C 3.791183 2.700695 1.642946 0
M  V30 9 N 2.451579 2.295329 1.270170 0
M  V30 10 C 2.046815 1.670091 0.072794 0
M  V30 11 O 2.907638 1.413036 -0.807254 0
M  V30 12 C 0.650904 1.312599 -0.172301 0
M  V30 13 O -0.330310 1.522914 0.651302 0
M  V30 14 C -1.482599 1.110113 0.195024 0
M  V30 15 C -2.750181 1.132580 0.721281 0
M  V30 16 C -3.819270 0.622701 0.024205 0
M  V30 17 C -3.544653 0.089303 -1.230101 0
M  V30 18 S -4.810074 -0.585782 -2.209452 0
M  V30 19 O -4.558149 -0.404458 -3.691846 0
M  V30 20 O -6.111242 0.101925 -1.906383 0
M  V30 21 N -5.051054 -2.263431 -1.929917 0
M  V30 22 C -3.916284 -3.083284 -2.227611 0
M  V30 23 C -4.092617 -3.674607 -3.592168 0
M  V30 24 O -5.183852 -4.511613 -3.709232 0
M  V30 25 C -6.295630 -4.102527 -3.027324 0
M  V30 26 C -6.260048 -2.668434 -2.572930 0
M  V30 27 C -2.261973 0.065748 -1.764389 0
M  V30 28 C -1.205304 0.582226 -1.048386 0
M  V30 29 C 0.145824 0.701560 -1.300187 0
M  V30 30 C 0.881681 0.273540 -2.500753 0
M  V30 31 C 3.312952 -0.602228 2.464743 0
M  V30 32 C 3.003521 -1.435058 3.515073 0
M  V30 33 O 2.128219 -2.477792 3.296207 0
M  V30 34 C 1.545013 -2.708134 2.022655 0
M  V30 35 H 4.781095 -1.954889 6.990029 0
M  V30 36 H 3.481746 -2.940297 7.686700 0
M  V30 37 H 3.287500 -1.131744 7.596706 0
M  V30 38 H 4.810022 -0.096011 5.941306 0
M  V30 39 H 5.419621 1.417781 4.181035 0
M  V30 40 H 5.729359 1.715083 1.842945 0
M  V30 41 H 4.642134 0.982883 0.668970 0
M  V30 42 H 3.801888 3.158700 2.635764 0
M  V30 43 H 4.247194 3.365932 0.866843 0
M  V30 44 H 1.673207 2.476077 1.951862 0
M  V30 45 H -2.892661 1.567496 1.713288 0
M  V30 46 H -4.820065 0.637973 0.434346 0
M  V30 47 H -3.921099 -3.935417 -1.501041 0
M  V30 48 H -2.978222 -2.517384 -2.217053 0
M  V30 49 H -4.113029 -2.933715 -4.398712 0
M  V30 50 H -3.190561 -4.326692 -3.771016 0
M  V30 51 H -6.538650 -4.778273 -2.164018 0
M  V30 52 H -7.160530 -4.197684 -3.722752 0
M  V30 53 H -7.089657 -2.542774 -1.833497 0
M  V30 54 H -6.541499 -1.973290 -3.411828 0
M  V30 55 H -2.073593 -0.360622 -2.755244 0
M  V30 56 H 0.854320 1.114664 -3.237978 0
M  V30 57 H 1.910419 -0.060371 -2.322882 0
M  V30 58 H 0.255994 -0.534629 -2.980932 0
M  V30 59 H 2.935181 -0.686707 1.473717 0
M  V30 60 H 0.651091 -3.343635 2.084548 0
M  V30 61 H 2.319504 -3.114833 1.342638 0
M  V30 62 H 1.195531 -1.746784 1.569801 0
M  V30 END ATOM
M  V30 BEGIN BOND
M  V30 1 1 1 2
M  V30 2 1 2 3
M  V30 3 2 3 4
M  V30 4 1 4 5
M  V30 5 2 5 6
M  V30 6 1 6 7
M  V30 7 1 7 8
M  V30 8 1 8 9
M  V30 9 1 9 10
M  V30 10 2 10 11
M  V30 11 1 10 12
M  V30 12 1 12 13
M  V30 13 1 13 14
M  V30 14 2 14 15
M  V30 15 1 15 16
M  V30 16 2 16 17
M  V30 17 1 17 18
M  V30 18 2 18 19
M  V30 19 2 18 20
M  V30 20 1 18 21
M  V30 21 1 21 22
M  V30 22 1 22 23
M  V30 23 1 23 24
M  V30 24 1 24 25
M  V30 25 1 25 26
M  V30 26 1 17 27
M  V30 27 2 27 28
M  V30 28 1 28 29
M  V30 29 1 29 30
M  V30 30 1 6 31
M  V30 31 2 31 32
M  V30 32 1 32 33
M  V30 33 1 33 34
M  V30 34 1 32 3
M  V30 35 2 29 12
M  V30 36 1 28 14
M  V30 37 1 26 21
M  V30 38 1 1 35
M  V30 39 1 1 36
M  V30 40 1 1 37
M  V30 41 1 4 38
M  V30 42 1 5 39
M  V30 43 1 7 40
M  V30 44 1 7 41
M  V30 45 1 8 42
M  V30 46 1 8 43
M  V30 47 1 9 44
M  V30 48 1 15 45
M  V30 49 1 16 46
M  V30 50 1 22 47
M  V30 51 1 22 48
M  V30 52 1 23 49
M  V30 53 1 23 50
M  V30 54 1 25 51
M  V30 55 1 25 52
M  V30 56 1 26 53
M  V30 57 1 26 54
M  V30 58 1 27 55
M  V30 59 1 30 56
M  V30 60 1 30 57
M  V30 61 1 30 58
M  V30 62 1 31 59
M  V30 63 1 34 60
M  V30 64 1 34 61
M  V30 65 1 34 62
M  V30 END BOND
M  V30 END CTAB
M  END
>  <Dataset>  (388) 
ChEMBL_Kinases

>  <Ligand_Instance>  (388) 
nan

>  <PDB_ID>  (388) 
nan

>  <Standardized_SMILES>  (388) 
COc1ccc(CCNC(=O)c2oc3ccc(S(=O)(=O)N4CCOCC4)cc3c2C)cc1OC

>  <Name>  (388) 
nan

>  <Pocket>  (388) 
nan

>  <ATP_Site>  (388) 
nan

>  <Peripheral>  (388) 
nan

>  <Num_H_Atoms_ProtBoundConf>  (388) 
nan

>  <Num_Resolved_Atoms>  (388) 
nan

>  <Num_Not_Resolved_Atoms>  (388) 
nan

$$$$
CHEMBL1565302
     RDKit          3D

  0  0  0  0  0  0  0  0  0  0999 V3000
M  V30 BEGIN CTAB
M  V30 COUNTS 70 74 0 0 0
M  V30 BEGIN ATOM
M  V30 1 C 4.159157 -0.220794 -2.580144 0
M  V30 2 O 2.864798 0.280553 -2.315982 0
M  V30 3 C 2.348119 0.297016 -1.032427 0
M  V30 4 O 3.273010 -0.204962 -0.307111 0
M  V30 5 C 1.079589 0.719737 -0.322700 0 CFG=1
M  V30 6 C 0.928648 2.179483 -0.648643 0
M  V30 7 C -0.245251 2.855559 -0.095397 0
M  V30 8 C -0.420684 3.512157 1.097861 0
M  V30 9 C -1.561405 4.127250 1.520249 0
M  V30 10 C -2.652764 4.104509 0.697349 0
M  V30 11 F -3.770789 4.732189 1.159431 0
M  V30 12 C -2.565984 3.466400 -0.521973 0
M  V30 13 C -1.389760 2.857493 -0.906801 0
M  V30 14 C -0.085470 -0.108637 -0.696796 0 CFG=2
M  V30 15 C -0.029069 -1.300759 0.214873 0 CFG=1
M  V30 16 C 0.732548 -2.370251 -0.493837 0
M  V30 17 C 0.713052 -1.998695 -1.938511 0
M  V30 18 O 1.204582 -2.644188 -2.847191 0
M  V30 19 C -0.004874 -0.715463 -2.066752 0 CFG=1
M  V30 20 C -1.351327 -0.895123 -2.680613 0
M  V30 21 C -2.284166 -1.755230 -1.949308 0
M  V30 22 O -3.094009 -1.161397 -1.157820 0
M  V30 23 C -2.313612 -3.205398 -2.092217 0
M  V30 24 O -1.748985 -4.164229 -2.704930 0
M  V30 25 N -3.247474 -3.977425 -1.352383 0
M  V30 26 C -3.284707 -5.422303 -1.478679 0
M  V30 27 C -3.154257 -5.818342 -0.000106 0
M  V30 28 C -3.885432 -4.696239 0.744264 0
M  V30 29 C -4.318508 -3.775356 -0.385856 0
M  V30 30 C 0.666296 -0.814862 1.469234 0
M  V30 31 N 1.325192 0.415607 1.047829 0
M  V30 32 C 2.079393 1.081880 2.011102 0
M  V30 33 O 2.757947 2.144463 1.946518 0
M  V30 34 C 2.319656 0.752195 3.406741 0
M  V30 35 C 3.510674 0.340559 3.993272 0
M  V30 36 C 3.544785 0.070054 5.353760 0
M  V30 37 C 2.450630 0.184727 6.182387 0
M  V30 38 C 1.256084 0.592326 5.621291 0
M  V30 39 C 1.225465 0.860500 4.268374 0
M  V30 40 H 4.531850 0.336924 -3.467609 0
M  V30 41 H 4.827130 0.113915 -1.746697 0
M  V30 42 H 4.171544 -1.309534 -2.710710 0
M  V30 43 H 0.966916 2.242032 -1.768277 0
M  V30 44 H 1.891224 2.662288 -0.333902 0
M  V30 45 H 0.444107 3.528723 1.740765 0
M  V30 46 H -1.553701 4.616411 2.507857 0
M  V30 47 H -3.472802 3.495449 -1.109703 0
M  V30 48 H -1.495185 2.399707 -1.903393 0
M  V30 49 H -1.017882 0.483322 -0.552322 0
M  V30 50 H -1.037753 -1.655009 0.535366 0
M  V30 51 H 0.256968 -3.371461 -0.332651 0
M  V30 52 H 1.769924 -2.468579 -0.145628 0
M  V30 53 H 0.642845 -0.084262 -2.747334 0
M  V30 54 H -1.193842 -1.235566 -3.743410 0
M  V30 55 H -1.773667 0.145268 -2.811660 0
M  V30 56 H -4.297775 -5.779779 -1.769400 0
M  V30 57 H -2.479530 -5.852859 -2.072499 0
M  V30 58 H -2.085594 -5.757933 0.291477 0
M  V30 59 H -3.612005 -6.802920 0.203934 0
M  V30 60 H -3.243141 -4.146451 1.432036 0
M  V30 61 H -4.737031 -5.145933 1.279781 0
M  V30 62 H -4.447159 -2.736098 -0.083088 0
M  V30 63 H -5.268165 -4.237892 -0.785438 0
M  V30 64 H 1.480888 -1.541502 1.725733 0
M  V30 65 H 0.011472 -0.701193 2.332867 0
M  V30 66 H 4.334852 0.263110 3.318863 0
M  V30 67 H 4.510171 -0.253046 5.771105 0
M  V30 68 H 2.476571 -0.025641 7.239570 0
M  V30 69 H 0.400500 0.685670 6.254710 0
M  V30 70 H 0.248941 1.173514 3.909803 0
M  V30 END ATOM
M  V30 BEGIN BOND
M  V30 1 1 1 2
M  V30 2 1 2 3
M  V30 3 2 3 4
M  V30 4 1 3 5
M  V30 5 1 5 6 CFG=1
M  V30 6 1 6 7
M  V30 7 2 7 8
M  V30 8 1 8 9
M  V30 9 2 9 10
M  V30 10 1 10 11
M  V30 11 1 10 12
M  V30 12 2 12 13
M  V30 13 1 5 14
M  V30 14 1 14 15
M  V30 15 1 15 16
M  V30 16 1 16 17
M  V30 17 2 17 18
M  V30 18 1 17 19
M  V30 19 1 19 20
M  V30 20 1 20 21
M  V30 21 2 21 22
M  V30 22 1 21 23
M  V30 23 2 23 24
M  V30 24 1 23 25
M  V30 25 1 25 26
M  V30 26 1 26 27
M  V30 27 1 27 28
M  V30 28 1 28 29
M  V30 29 1 15 30
M  V30 30 1 30 31
M  V30 31 1 31 32
M  V30 32 2 32 33
M  V30 33 1 32 34
M  V30 34 2 34 35
M  V30 35 1 35 36
M  V30 36 2 36 37
M  V30 37 1 37 38
M  V30 38 2 38 39
M  V30 39 1 31 5
M  V30 40 1 39 34
M  V30 41 1 13 7
M  V30 42 1 19 14
M  V30 43 1 29 25
M  V30 44 1 1 40
M  V30 45 1 1 41
M  V30 46 1 1 42
M  V30 47 1 6 43
M  V30 48 1 6 44
M  V30 49 1 8 45
M  V30 50 1 9 46
M  V30 51 1 12 47
M  V30 52 1 13 48
M  V30 53 1 14 49 CFG=3
M  V30 54 1 15 50 CFG=1
M  V30 55 1 16 51
M  V30 56 1 16 52
M  V30 57 1 19 53 CFG=3
M  V30 58 1 20 54
M  V30 59 1 20 55
M  V30 60 1 26 56
M  V30 61 1 26 57
M  V30 62 1 27 58
M  V30 63 1 27 59
M  V30 64 1 28 60
M  V30 65 1 28 61
M  V30 66 1 29 62
M  V30 67 1 29 63
M  V30 68 1 30 64
M  V30 69 1 30 65
M  V30 70 1 35 66
M  V30 71 1 36 67
M  V30 72 1 37 68
M  V30 73 1 38 69
M  V30 74 1 39 70
M  V30 END BOND
M  V30 END CTAB
M  END
>  <Dataset>  (389) 
ChEMBL_Kinases

>  <Ligand_Instance>  (389) 
nan

>  <PDB_ID>  (389) 
nan

>  <Standardized_SMILES>  (389) 
COC(=O)[C@@]1(Cc2ccc(F)cc2)[C@@H]2[C@@H](CC(=O)[C@H]2CC(=O)C(=O)N2CCCC2)CN1C(=O)c1ccccc1

>  <Name>  (389) 
nan

>  <Pocket>  (389) 
nan

>  <ATP_Site>  (389) 
nan

>  <Peripheral>  (389) 
nan

>  <Num_H_Atoms_ProtBoundConf>  (389) 
nan

>  <Num_Resolved_Atoms>  (389) 
nan

>  <Num_Not_Resolved_Atoms>  (389) 
nan

$$$$
CHEMBL1565318
     RDKit          3D

  0  0  0  0  0  0  0  0  0  0999 V3000
M  V30 BEGIN CTAB
M  V30 COUNTS 30 32 0 0 0
M  V30 BEGIN ATOM
M  V30 1 N 2.065521 0.945110 4.274805 0
M  V30 2 C 1.240251 0.816086 3.122195 0
M  V30 3 O 0.095624 1.326710 3.078417 0
M  V30 4 C 1.734473 0.078647 1.975447 0
M  V30 5 O 2.899597 -0.515826 1.851614 0
M  V30 6 C 3.016919 -1.092942 0.672815 0
M  V30 7 C 4.029598 -1.830563 0.067029 0
M  V30 8 C 3.846759 -2.315997 -1.218475 0
M  V30 9 C 2.661118 -2.074986 -1.913077 0
M  V30 10 C 1.648211 -1.334021 -1.299984 0
M  V30 11 C 1.833363 -0.857443 -0.032034 0
M  V30 12 C 1.036962 -0.111683 0.817947 0
M  V30 13 N -0.285969 0.344660 0.465554 0
M  V30 14 C -1.226687 -0.631584 0.850744 0
M  V30 15 O -0.743199 -1.657458 1.399435 0
M  V30 16 C -2.671784 -0.539942 0.664666 0
M  V30 17 C -3.513477 -1.552466 1.077225 0
M  V30 18 C -4.805655 -1.131288 0.745048 0
M  V30 19 C -4.669463 0.125149 0.144306 0
M  V30 20 O -3.370647 0.412037 0.131078 0
M  V30 21 H 2.561544 0.216558 4.858207 0
M  V30 22 H 2.190914 1.935383 4.581633 0
M  V30 23 H 4.950424 -2.010530 0.622771 0
M  V30 24 H 4.626039 -2.896458 -1.713598 0
M  V30 25 H 2.537734 -2.468999 -2.930345 0
M  V30 26 H 0.740992 -1.163488 -1.862773 0
M  V30 27 H -0.660879 1.218410 0.001827 0
M  V30 28 H -3.375976 -2.497163 1.552369 0
M  V30 29 H -5.789135 -1.570935 0.863760 0
M  V30 30 H -5.400296 0.817879 -0.265702 0
M  V30 END ATOM
M  V30 BEGIN BOND
M  V30 1 1 1 2
M  V30 2 2 2 3
M  V30 3 1 2 4
M  V30 4 1 4 5
M  V30 5 1 5 6
M  V30 6 2 6 7
M  V30 7 1 7 8
M  V30 8 2 8 9
M  V30 9 1 9 10
M  V30 10 2 10 11
M  V30 11 1 11 12
M  V30 12 1 12 13
M  V30 13 1 13 14
M  V30 14 2 14 15
M  V30 15 1 14 16
M  V30 16 2 16 17
M  V30 17 1 17 18
M  V30 18 2 18 19
M  V30 19 1 19 20
M  V30 20 2 12 4
M  V30 21 1 20 16
M  V30 22 1 11 6
M  V30 23 1 1 21
M  V30 24 1 1 22
M  V30 25 1 7 23
M  V30 26 1 8 24
M  V30 27 1 9 25
M  V30 28 1 10 26
M  V30 29 1 13 27
M  V30 30 1 17 28
M  V30 31 1 18 29
M  V30 32 1 19 30
M  V30 END BOND
M  V30 END CTAB
M  END
>  <Dataset>  (390) 
ChEMBL_Kinases

>  <Ligand_Instance>  (390) 
nan

>  <PDB_ID>  (390) 
nan

>  <Standardized_SMILES>  (390) 
NC(=O)c1oc2ccccc2c1NC(=O)c1ccco1

>  <Name>  (390) 
nan

>  <Pocket>  (390) 
nan

>  <ATP_Site>  (390) 
nan

>  <Peripheral>  (390) 
nan

>  <Num_H_Atoms_ProtBoundConf>  (390) 
nan

>  <Num_Resolved_Atoms>  (390) 
nan

>  <Num_Not_Resolved_Atoms>  (390) 
nan

$$$$
CHEMBL1564660
     RDKit          3D

  0  0  0  0  0  0  0  0  0  0999 V3000
M  V30 BEGIN CTAB
M  V30 COUNTS 31 32 0 0 0
M  V30 BEGIN ATOM
M  V30 1 F 4.245929 -1.458249 2.924237 0
M  V30 2 C 3.962121 -0.112175 2.803624 0
M  V30 3 F 3.277262 0.251568 3.965426 0
M  V30 4 C 3.025352 0.114183 1.633068 0
M  V30 5 F 1.876080 -0.625090 1.935878 0
M  V30 6 F 3.578750 -0.444498 0.505191 0
M  V30 7 C 2.710395 1.572776 1.450630 0
M  V30 8 F 3.940327 2.201356 1.226545 0
M  V30 9 F 2.076136 2.106476 2.542226 0
M  V30 10 C 1.834986 1.792515 0.251159 0
M  V30 11 F 1.525533 3.120731 0.051839 0
M  V30 12 F 2.588570 1.401061 -0.862329 0
M  V30 13 C 0.607370 0.966744 0.318334 0
M  V30 14 C 0.177025 -0.292420 -0.118109 0
M  V30 15 C -1.129714 -0.479500 0.282803 0
M  V30 16 C -1.849784 -1.710051 -0.031398 0
M  V30 17 C -1.343259 -2.785482 -0.731763 0
M  V30 18 C -2.124876 -3.891232 -0.963610 0
M  V30 19 C -3.442009 -3.973404 -0.508835 0
M  V30 20 C -3.921925 -2.878330 0.190878 0
M  V30 21 C -3.164533 -1.752476 0.441350 0
M  V30 22 N -1.485850 0.636123 0.945842 0
M  V30 23 N -0.468821 1.481496 0.965990 0
M  V30 24 H 4.863680 0.512973 2.740916 0
M  V30 25 H 0.904017 -0.874356 -0.666791 0
M  V30 26 H -0.320181 -2.698652 -1.074074 0
M  V30 27 H -1.688752 -4.713121 -1.517219 0
M  V30 28 H -4.054681 -4.831275 -0.686348 0
M  V30 29 H -4.943466 -2.950605 0.539534 0
M  V30 30 H -3.659115 -0.951752 1.006852 0
M  V30 31 H -2.441931 0.740355 1.353617 0
M  V30 END ATOM
M  V30 BEGIN BOND
M  V30 1 1 1 2
M  V30 2 1 2 3
M  V30 3 1 2 4
M  V30 4 1 4 5
M  V30 5 1 4 6
M  V30 6 1 4 7
M  V30 7 1 7 8
M  V30 8 1 7 9
M  V30 9 1 7 10
M  V30 10 1 10 11
M  V30 11 1 10 12
M  V30 12 1 10 13
M  V30 13 1 13 14
M  V30 14 2 14 15
M  V30 15 1 15 16
M  V30 16 2 16 17
M  V30 17 1 17 18
M  V30 18 2 18 19
M  V30 19 1 19 20
M  V30 20 2 20 21
M  V30 21 1 15 22
M  V30 22 1 22 23
M  V30 23 2 23 13
M  V30 24 1 21 16
M  V30 25 1 2 24
M  V30 26 1 14 25
M  V30 27 1 17 26
M  V30 28 1 18 27
M  V30 29 1 19 28
M  V30 30 1 20 29
M  V30 31 1 21 30
M  V30 32 1 22 31
M  V30 END BOND
M  V30 END CTAB
M  END
>  <Dataset>  (391) 
ChEMBL_Kinases

>  <Ligand_Instance>  (391) 
nan

>  <PDB_ID>  (391) 
nan

>  <Standardized_SMILES>  (391) 
FC(F)C(F)(F)C(F)(F)C(F)(F)c1cc(-c2ccccc2)[nH]n1

>  <Name>  (391) 
nan

>  <Pocket>  (391) 
nan

>  <ATP_Site>  (391) 
nan

>  <Peripheral>  (391) 
nan

>  <Num_H_Atoms_ProtBoundConf>  (391) 
nan

>  <Num_Resolved_Atoms>  (391) 
nan

>  <Num_Not_Resolved_Atoms>  (391) 
nan

$$$$
CHEMBL1569529
     RDKit          3D

  0  0  0  0  0  0  0  0  0  0999 V3000
M  V30 BEGIN CTAB
M  V30 COUNTS 47 50 0 0 0
M  V30 BEGIN ATOM
M  V30 1 C 1.272430 -6.787172 5.410614 0
M  V30 2 O 0.790177 -6.603589 4.093249 0
M  V30 3 C 0.809643 -5.365399 3.462730 0
M  V30 4 C 1.261953 -4.149681 3.936476 0
M  V30 5 C 1.180907 -3.037766 3.121723 0
M  V30 6 C 0.657222 -3.122549 1.847194 0
M  V30 7 C 0.643330 -1.855091 1.116439 0
M  V30 8 N 1.706056 -1.008997 1.094590 0
M  V30 9 C 1.654122 0.160430 0.403327 0
M  V30 10 C 2.807664 0.918835 0.471101 0
M  V30 11 N 2.753199 2.093151 -0.224045 0
M  V30 12 C 1.654068 2.457350 -0.910071 0
M  V30 13 N 1.670987 3.696641 -1.611338 0
M  V30 14 C 2.855226 4.533028 -1.574795 0
M  V30 15 C 0.495323 4.121728 -2.365450 0
M  V30 16 N 0.552624 1.684067 -0.946693 0
M  V30 17 C 0.505919 0.507050 -0.293979 0
M  V30 18 N -0.566780 -0.324206 -0.284949 0
M  V30 19 C -1.728308 0.067406 -1.013763 0
M  V30 20 C -2.711363 0.834304 -0.327292 0
M  V30 21 C -3.929705 0.611784 0.471883 0
M  V30 22 C -4.575427 1.695522 0.942412 0
M  V30 23 C -4.107082 2.985697 0.682328 0
M  V30 24 S -2.598572 2.728059 -0.327976 0
M  V30 25 C -0.493260 -1.490931 0.414149 0
M  V30 26 O -1.527656 -2.241687 0.393792 0
M  V30 27 C 0.201609 -4.332554 1.361989 0
M  V30 28 C 0.283765 -5.462282 2.189303 0
M  V30 29 H 2.329683 -7.131055 5.450710 0
M  V30 30 H 0.654317 -7.552703 5.960987 0
M  V30 31 H 1.172482 -5.866459 6.038687 0
M  V30 32 H 1.649076 -4.207525 4.944811 0
M  V30 33 H 1.559632 -2.135328 3.581755 0
M  V30 34 H 3.669013 0.606810 1.023930 0
M  V30 35 H 3.425109 4.259654 -0.672180 0
M  V30 36 H 3.481213 4.432605 -2.495472 0
M  V30 37 H 2.610428 5.606468 -1.469127 0
M  V30 38 H 0.684833 5.133051 -2.779964 0
M  V30 39 H -0.322895 4.281169 -1.617993 0
M  V30 40 H 0.237270 3.399476 -3.160235 0
M  V30 41 H -1.377703 0.602543 -1.945899 0
M  V30 42 H -2.196990 -0.868618 -1.439824 0
M  V30 43 H -4.063360 -0.451212 0.518965 0
M  V30 44 H -5.456221 1.443742 1.516567 0
M  V30 45 H -4.680610 3.849644 1.096391 0
M  V30 46 H -0.195005 -4.320793 0.355030 0
M  V30 47 H -0.108257 -6.338884 1.681511 0
M  V30 END ATOM
M  V30 BEGIN BOND
M  V30 1 1 1 2
M  V30 2 1 2 3
M  V30 3 2 3 4
M  V30 4 1 4 5
M  V30 5 2 5 6
M  V30 6 1 6 7
M  V30 7 2 7 8
M  V30 8 1 8 9
M  V30 9 2 9 10
M  V30 10 1 10 11
M  V30 11 2 11 12
M  V30 12 1 12 13
M  V30 13 1 13 14
M  V30 14 1 13 15
M  V30 15 1 12 16
M  V30 16 2 16 17
M  V30 17 1 17 18
M  V30 18 1 18 19
M  V30 19 1 19 20
M  V30 20 2 20 21
M  V30 21 1 21 22
M  V30 22 2 22 23
M  V30 23 1 23 24
M  V30 24 1 18 25
M  V30 25 2 25 26
M  V30 26 1 6 27
M  V30 27 2 27 28
M  V30 28 1 28 3
M  V30 29 1 25 7
M  V30 30 1 17 9
M  V30 31 1 24 20
M  V30 32 1 1 29
M  V30 33 1 1 30
M  V30 34 1 1 31
M  V30 35 1 4 32
M  V30 36 1 5 33
M  V30 37 1 10 34
M  V30 38 1 14 35
M  V30 39 1 14 36
M  V30 40 1 14 37
M  V30 41 1 15 38
M  V30 42 1 15 39
M  V30 43 1 15 40
M  V30 44 1 19 41
M  V30 45 1 19 42
M  V30 46 1 21 43
M  V30 47 1 22 44
M  V30 48 1 23 45
M  V30 49 1 27 46
M  V30 50 1 28 47
M  V30 END BOND
M  V30 END CTAB
M  END
>  <Dataset>  (392) 
ChEMBL_Kinases

>  <Ligand_Instance>  (392) 
nan

>  <PDB_ID>  (392) 
nan

>  <Standardized_SMILES>  (392) 
COc1ccc(-c2nc3cnc(N(C)C)nc3n(Cc3cccs3)c2=O)cc1

>  <Name>  (392) 
nan

>  <Pocket>  (392) 
nan

>  <ATP_Site>  (392) 
nan

>  <Peripheral>  (392) 
nan

>  <Num_H_Atoms_ProtBoundConf>  (392) 
nan

>  <Num_Resolved_Atoms>  (392) 
nan

>  <Num_Not_Resolved_Atoms>  (392) 
nan

$$$$
CHEMBL1569493
     RDKit          3D

  0  0  0  0  0  0  0  0  0  0999 V3000
M  V30 BEGIN CTAB
M  V30 COUNTS 21 21 0 0 0
M  V30 BEGIN ATOM
M  V30 1 C 1.141415 2.378564 2.056461 0
M  V30 2 N 0.561542 1.064645 2.006604 0
M  V30 3 C -0.155705 0.566058 3.180847 0
M  V30 4 C 0.601662 0.147793 0.904553 0
M  V30 5 C 0.024827 -1.115743 0.902591 0
M  V30 6 C 0.135969 -1.902121 -0.226742 0
M  V30 7 C 0.799210 -1.486580 -1.362351 0
M  V30 8 N 0.854649 -2.387107 -2.483201 0
M  V30 9 O -0.159112 -3.082684 -2.783706 0
M  V30 10 C 1.384250 -0.215462 -1.371754 0
M  V30 11 C 1.271871 0.575757 -0.234144 0
M  V30 12 H 0.400145 3.114470 1.671098 0
M  V30 13 H 1.355783 2.623992 3.117044 0
M  V30 14 H 2.072376 2.432664 1.433094 0
M  V30 15 H 0.415831 -0.267514 3.629997 0
M  V30 16 H -0.351822 1.369717 3.923004 0
M  V30 17 H -1.154279 0.174242 2.865404 0
M  V30 18 H -0.482715 -1.422738 1.783670 0
M  V30 19 H -0.324755 -2.885358 -0.199857 0
M  V30 20 H 1.889931 0.070056 -2.271951 0
M  V30 21 H 1.766767 1.532510 -0.372106 0
M  V30 END ATOM
M  V30 BEGIN BOND
M  V30 1 1 1 2
M  V30 2 1 2 3
M  V30 3 1 2 4
M  V30 4 2 4 5
M  V30 5 1 5 6
M  V30 6 2 6 7
M  V30 7 1 7 8
M  V30 8 2 8 9
M  V30 9 1 7 10
M  V30 10 2 10 11
M  V30 11 1 11 4
M  V30 12 1 1 12
M  V30 13 1 1 13
M  V30 14 1 1 14
M  V30 15 1 3 15
M  V30 16 1 3 16
M  V30 17 1 3 17
M  V30 18 1 5 18
M  V30 19 1 6 19
M  V30 20 1 10 20
M  V30 21 1 11 21
M  V30 END BOND
M  V30 END CTAB
M  END
>  <Dataset>  (393) 
ChEMBL_Kinases

>  <Ligand_Instance>  (393) 
nan

>  <PDB_ID>  (393) 
nan

>  <Standardized_SMILES>  (393) 
CN(C)c1ccc(N=O)cc1

>  <Name>  (393) 
nan

>  <Pocket>  (393) 
nan

>  <ATP_Site>  (393) 
nan

>  <Peripheral>  (393) 
nan

>  <Num_H_Atoms_ProtBoundConf>  (393) 
nan

>  <Num_Resolved_Atoms>  (393) 
nan

>  <Num_Not_Resolved_Atoms>  (393) 
nan

$$$$
CHEMBL1569481
     RDKit          3D

  0  0  0  0  0  0  0  0  0  0999 V3000
M  V30 BEGIN CTAB
M  V30 COUNTS 32 33 0 0 0
M  V30 BEGIN ATOM
M  V30 1 C -0.763639 -2.440599 3.779158 0
M  V30 2 O -0.141196 -2.042706 2.572086 0
M  V30 3 C 1.229591 -1.950186 2.418699 0
M  V30 4 C 2.190700 -2.213837 3.361142 0
M  V30 5 C 3.510959 -2.064665 3.021438 0
M  V30 6 C 3.945868 -1.661499 1.778031 0
M  V30 7 C 2.957203 -1.395600 0.825550 0
M  V30 8 C 1.626200 -1.543940 1.161472 0
M  V30 9 N 0.717745 -1.237406 0.087419 0
M  V30 10 C 0.318734 0.128631 0.053089 0
M  V30 11 O 0.812348 0.878760 0.962309 0
M  V30 12 N -0.580003 0.547114 -0.968544 0
M  V30 13 C -1.328929 0.030938 -2.127150 0
M  V30 14 C -2.748073 0.286824 -1.633697 0
M  V30 15 C -2.576840 1.738229 -1.167189 0
M  V30 16 C -1.058238 1.928147 -1.100627 0
M  V30 17 H -0.417497 -3.428455 4.148740 0
M  V30 18 H -0.602700 -1.679352 4.590245 0
M  V30 19 H -1.863934 -2.442009 3.597790 0
M  V30 20 H 1.830515 -2.529132 4.331449 0
M  V30 21 H 4.230418 -2.282843 3.793449 0
M  V30 22 H 5.022632 -1.564131 1.578633 0
M  V30 23 H 3.302637 -1.079157 -0.149992 0
M  V30 24 H 0.365609 -1.938013 -0.619974 0
M  V30 25 H -1.151830 0.636340 -3.014691 0
M  V30 26 H -1.088670 -1.035781 -2.234284 0
M  V30 27 H -3.503159 0.179936 -2.413742 0
M  V30 28 H -2.954129 -0.336223 -0.720435 0
M  V30 29 H -3.040250 2.357796 -1.963116 0
M  V30 30 H -3.037463 1.885211 -0.170104 0
M  V30 31 H -0.751790 2.348893 -2.095011 0
M  V30 32 H -0.754931 2.574420 -0.274771 0
M  V30 END ATOM
M  V30 BEGIN BOND
M  V30 1 1 1 2
M  V30 2 1 2 3
M  V30 3 2 3 4
M  V30 4 1 4 5
M  V30 5 2 5 6
M  V30 6 1 6 7
M  V30 7 2 7 8
M  V30 8 1 8 9
M  V30 9 1 9 10
M  V30 10 2 10 11
M  V30 11 1 10 12
M  V30 12 1 12 13
M  V30 13 1 13 14
M  V30 14 1 14 15
M  V30 15 1 15 16
M  V30 16 1 8 3
M  V30 17 1 16 12
M  V30 18 1 1 17
M  V30 19 1 1 18
M  V30 20 1 1 19
M  V30 21 1 4 20
M  V30 22 1 5 21
M  V30 23 1 6 22
M  V30 24 1 7 23
M  V30 25 1 9 24
M  V30 26 1 13 25
M  V30 27 1 13 26
M  V30 28 1 14 27
M  V30 29 1 14 28
M  V30 30 1 15 29
M  V30 31 1 15 30
M  V30 32 1 16 31
M  V30 33 1 16 32
M  V30 END BOND
M  V30 END CTAB
M  END
>  <Dataset>  (394) 
ChEMBL_Kinases

>  <Ligand_Instance>  (394) 
nan

>  <PDB_ID>  (394) 
nan

>  <Standardized_SMILES>  (394) 
COc1ccccc1NC(=O)N1CCCC1

>  <Name>  (394) 
nan

>  <Pocket>  (394) 
nan

>  <ATP_Site>  (394) 
nan

>  <Peripheral>  (394) 
nan

>  <Num_H_Atoms_ProtBoundConf>  (394) 
nan

>  <Num_Resolved_Atoms>  (394) 
nan

>  <Num_Not_Resolved_Atoms>  (394) 
nan

$$$$
CHEMBL1569418
     RDKit          3D

  0  0  0  0  0  0  0  0  0  0999 V3000
M  V30 BEGIN CTAB
M  V30 COUNTS 39 41 0 0 0
M  V30 BEGIN ATOM
M  V30 1 O -0.918205 -4.178876 1.256460 0
M  V30 2 C -0.286746 -3.148743 0.828452 0
M  V30 3 C 0.853356 -3.616851 0.048441 0
M  V30 4 C 1.892088 -2.551535 -0.022363 0
M  V30 5 C 2.692382 -2.278327 1.068897 0
M  V30 6 C 3.672845 -1.312822 1.005351 0
M  V30 7 C 3.796546 -0.653700 -0.199034 0
M  V30 8 C 3.013369 -0.901684 -1.311875 0
M  V30 9 C 2.029208 -1.873880 -1.237552 0
M  V30 10 N -0.788390 -1.869107 1.176919 0
M  V30 11 N -0.102513 -0.744960 0.753433 0
M  V30 12 C -0.682643 0.346352 1.071841 0
M  V30 13 C -0.341231 1.742940 0.847141 0
M  V30 14 C -1.067652 2.849400 1.228363 0
M  V30 15 C -0.654562 4.134117 0.989436 0
M  V30 16 N 0.512853 4.359293 0.354255 0
M  V30 17 C 1.255875 3.293788 -0.036039 0
M  V30 18 C 0.847778 1.981791 0.200124 0
M  V30 19 C -1.932608 0.067778 1.818633 0
M  V30 20 C -1.930838 -1.437264 1.933072 0
M  V30 21 O -1.693020 -1.836590 3.258411 0
M  V30 22 C -3.247952 -2.011038 1.519740 0
M  V30 23 F -3.507881 -1.676290 0.197583 0
M  V30 24 F -3.256081 -3.362202 1.739424 0
M  V30 25 F -4.207563 -1.379843 2.313733 0
M  V30 26 H 0.591077 -3.949835 -0.978455 0
M  V30 27 H 1.353814 -4.492017 0.514824 0
M  V30 28 H 2.517358 -2.839976 1.952394 0
M  V30 29 H 4.270307 -1.130182 1.875970 0
M  V30 30 H 4.565030 0.114267 -0.272784 0
M  V30 31 H 3.156563 -0.353155 -2.238691 0
M  V30 32 H 1.416762 -2.077337 -2.095825 0
M  V30 33 H -2.004268 2.641209 1.735904 0
M  V30 34 H -1.265215 4.958750 1.308652 0
M  V30 35 H 2.189820 3.576684 -0.544761 0
M  V30 36 H 1.549220 1.281486 -0.172833 0
M  V30 37 H -2.847759 0.450982 1.326809 0
M  V30 38 H -1.841696 0.477021 2.854958 0
M  V30 39 H -1.012462 -1.240449 3.677101 0
M  V30 END ATOM
M  V30 BEGIN BOND
M  V30 1 2 1 2
M  V30 2 1 2 3
M  V30 3 1 3 4
M  V30 4 2 4 5
M  V30 5 1 5 6
M  V30 6 2 6 7
M  V30 7 1 7 8
M  V30 8 2 8 9
M  V30 9 1 2 10
M  V30 10 1 10 11
M  V30 11 2 11 12
M  V30 12 1 12 13
M  V30 13 2 13 14
M  V30 14 1 14 15
M  V30 15 2 15 16
M  V30 16 1 16 17
M  V30 17 2 17 18
M  V30 18 1 12 19
M  V30 19 1 19 20
M  V30 20 1 20 21
M  V30 21 1 20 22
M  V30 22 1 22 23
M  V30 23 1 22 24
M  V30 24 1 22 25
M  V30 25 1 9 4
M  V30 26 1 20 10
M  V30 27 1 18 13
M  V30 28 1 3 26
M  V30 29 1 3 27
M  V30 30 1 5 28
M  V30 31 1 6 29
M  V30 32 1 7 30
M  V30 33 1 8 31
M  V30 34 1 9 32
M  V30 35 1 14 33
M  V30 36 1 15 34
M  V30 37 1 17 35
M  V30 38 1 18 36
M  V30 39 1 19 37
M  V30 40 1 19 38
M  V30 41 1 21 39
M  V30 END BOND
M  V30 END CTAB
M  END
>  <Dataset>  (395) 
ChEMBL_Kinases

>  <Ligand_Instance>  (395) 
nan

>  <PDB_ID>  (395) 
nan

>  <Standardized_SMILES>  (395) 
O=C(Cc1ccccc1)N1N=C(c2ccncc2)CC1(O)C(F)(F)F

>  <Name>  (395) 
nan

>  <Pocket>  (395) 
nan

>  <ATP_Site>  (395) 
nan

>  <Peripheral>  (395) 
nan

>  <Num_H_Atoms_ProtBoundConf>  (395) 
nan

>  <Num_Resolved_Atoms>  (395) 
nan

>  <Num_Not_Resolved_Atoms>  (395) 
nan

$$$$
CHEMBL1569410
     RDKit          3D

  0  0  0  0  0  0  0  0  0  0999 V3000
M  V30 BEGIN CTAB
M  V30 COUNTS 54 58 0 0 0
M  V30 BEGIN ATOM
M  V30 1 O 0.527351 -0.895570 3.392939 0
M  V30 2 P 0.932900 -0.569760 1.952655 0
M  V30 3 C 2.122374 -1.717924 1.334773 0
M  V30 4 C 2.876541 -1.353631 0.229069 0
M  V30 5 C 3.800991 -2.280344 -0.227536 0
M  V30 6 C 3.979460 -3.522557 0.380294 0
M  V30 7 C 3.232431 -3.866736 1.464726 0
M  V30 8 C 2.308092 -2.955740 1.931394 0
M  V30 9 C 1.774356 1.025394 2.064264 0
M  V30 10 C 1.151962 2.250287 1.944228 0
M  V30 11 C 1.872774 3.417026 2.042648 0
M  V30 12 C 3.216374 3.399742 2.260524 0
M  V30 13 C 3.900244 2.210299 2.389973 0
M  V30 14 C 3.154687 1.054093 2.287369 0
M  V30 15 C -0.555154 -0.473310 1.018019 0
M  V30 16 N -1.401613 0.562383 1.032670 0
M  V30 17 C -2.427249 0.296241 0.203301 0
M  V30 18 C -3.529646 1.236769 -0.004806 0
M  V30 19 C -3.609807 2.471513 0.628875 0
M  V30 20 C -4.700708 3.307882 0.370905 0
M  V30 21 C -5.694168 2.921317 -0.502667 0
M  V30 22 Cl -7.029000 4.050934 -0.759401 0
M  V30 23 C -5.625587 1.689074 -1.142611 0
M  V30 24 C -4.530913 0.861820 -0.877149 0
M  V30 25 O -2.203555 -0.888830 -0.308193 0
M  V30 26 C -1.082411 -1.383997 0.160639 0
M  V30 27 N -0.557001 -2.657242 -0.199276 0
M  V30 28 C 0.367639 -3.100666 -1.255803 0
M  V30 29 C -0.490172 -3.886062 -2.227581 0
M  V30 30 O -1.686738 -4.313305 -1.627827 0
M  V30 31 C -1.458646 -4.853580 -0.369876 0
M  V30 32 C -1.006429 -3.774740 0.622869 0
M  V30 33 H 2.808540 -0.422740 -0.301623 0
M  V30 34 H 4.457862 -2.138158 -1.075886 0
M  V30 35 H 4.691843 -4.257810 0.042430 0
M  V30 36 H 3.262818 -4.794929 2.037537 0
M  V30 37 H 1.676278 -3.156029 2.789230 0
M  V30 38 H 0.105734 2.245096 1.774804 0
M  V30 39 H 1.334472 4.345572 1.940813 0
M  V30 40 H 3.760673 4.341824 2.333636 0
M  V30 41 H 4.963574 2.169898 2.563057 0
M  V30 42 H 3.708041 0.130192 2.391318 0
M  V30 43 H -2.796788 2.723781 1.308336 0
M  V30 44 H -4.707442 4.269797 0.901379 0
M  V30 45 H -6.426903 1.414171 -1.826743 0
M  V30 46 H -4.515996 -0.095366 -1.399801 0
M  V30 47 H 1.134489 -3.704563 -0.766655 0
M  V30 48 H 0.781265 -2.222578 -1.796885 0
M  V30 49 H 0.054752 -4.730771 -2.706323 0
M  V30 50 H -0.773688 -3.219813 -3.090388 0
M  V30 51 H -2.401049 -5.325305 -0.035897 0
M  V30 52 H -0.702807 -5.668239 -0.430448 0
M  V30 53 H -1.899588 -3.533194 1.234773 0
M  V30 54 H -0.254502 -4.155066 1.312624 0
M  V30 END ATOM
M  V30 BEGIN BOND
M  V30 1 2 1 2
M  V30 2 1 2 3
M  V30 3 2 3 4
M  V30 4 1 4 5
M  V30 5 2 5 6
M  V30 6 1 6 7
M  V30 7 2 7 8
M  V30 8 1 2 9
M  V30 9 2 9 10
M  V30 10 1 10 11
M  V30 11 2 11 12
M  V30 12 1 12 13
M  V30 13 2 13 14
M  V30 14 1 2 15
M  V30 15 1 15 16
M  V30 16 2 16 17
M  V30 17 1 17 18
M  V30 18 2 18 19
M  V30 19 1 19 20
M  V30 20 2 20 21
M  V30 21 1 21 22
M  V30 22 1 21 23
M  V30 23 2 23 24
M  V30 24 1 17 25
M  V30 25 1 25 26
M  V30 26 1 26 27
M  V30 27 1 27 28
M  V30 28 1 28 29
M  V30 29 1 29 30
M  V30 30 1 30 31
M  V30 31 1 31 32
M  V30 32 1 8 3
M  V30 33 1 14 9
M  V30 34 2 26 15
M  V30 35 1 32 27
M  V30 36 1 24 18
M  V30 37 1 4 33
M  V30 38 1 5 34
M  V30 39 1 6 35
M  V30 40 1 7 36
M  V30 41 1 8 37
M  V30 42 1 10 38
M  V30 43 1 11 39
M  V30 44 1 12 40
M  V30 45 1 13 41
M  V30 46 1 14 42
M  V30 47 1 19 43
M  V30 48 1 20 44
M  V30 49 1 23 45
M  V30 50 1 24 46
M  V30 51 1 28 47
M  V30 52 1 28 48
M  V30 53 1 29 49
M  V30 54 1 29 50
M  V30 55 1 31 51
M  V30 56 1 31 52
M  V30 57 1 32 53
M  V30 58 1 32 54
M  V30 END BOND
M  V30 END CTAB
M  END
>  <Dataset>  (396) 
ChEMBL_Kinases

>  <Ligand_Instance>  (396) 
nan

>  <PDB_ID>  (396) 
nan

>  <Standardized_SMILES>  (396) 
O=P(c1ccccc1)(c1ccccc1)c1nc(-c2ccc(Cl)cc2)oc1N1CCOCC1

>  <Name>  (396) 
nan

>  <Pocket>  (396) 
nan

>  <ATP_Site>  (396) 
nan

>  <Peripheral>  (396) 
nan

>  <Num_H_Atoms_ProtBoundConf>  (396) 
nan

>  <Num_Resolved_Atoms>  (396) 
nan

>  <Num_Not_Resolved_Atoms>  (396) 
nan

$$$$
CHEMBL1569398
     RDKit          3D

  0  0  0  0  0  0  0  0  0  0999 V3000
M  V30 BEGIN CTAB
M  V30 COUNTS 59 63 0 0 0
M  V30 BEGIN ATOM
M  V30 1 C 2.660017 -0.665701 4.920722 0
M  V30 2 C 3.719186 -1.602400 4.354410 0
M  V30 3 O 3.886729 -1.357328 2.950778 0
M  V30 4 C 4.285405 -0.091881 2.552187 0
M  V30 5 O 4.520931 0.885330 3.306579 0
M  V30 6 N 4.443967 0.129167 1.176736 0
M  V30 7 C 4.852390 1.380047 0.570770 0
M  V30 8 C 3.816281 1.924851 -0.400710 0
M  V30 9 N 2.734892 0.963063 -0.419258 0
M  V30 10 C 1.493369 1.460021 -0.013490 0
M  V30 11 O 1.578912 2.683288 0.294700 0
M  V30 12 C 0.104134 0.967661 0.160328 0
M  V30 13 C -0.722972 2.134042 0.658657 0
M  V30 14 C -2.142208 1.678151 0.773449 0
M  V30 15 C -2.672644 1.202700 -0.557585 0
M  V30 16 N -1.815574 0.250612 -1.211385 0
M  V30 17 C -2.306006 -0.923991 -1.844151 0
M  V30 18 N -2.120271 -1.179702 -3.173649 0
M  V30 19 C -2.650468 -2.335620 -3.602582 0
M  V30 20 N -3.307941 -3.196645 -2.852398 0
M  V30 21 C -3.529287 -3.012676 -1.538495 0
M  V30 22 C -3.001464 -1.851454 -1.088037 0
M  V30 23 S -3.378912 -1.771899 0.628007 0
M  V30 24 C -4.290758 -3.430015 0.629154 0
M  V30 25 C -4.896693 -4.049835 1.709709 0
M  V30 26 C -5.494635 -5.258893 1.437871 0
M  V30 27 C -5.427716 -5.709350 0.156265 0
M  V30 28 C -4.813333 -5.055374 -0.882167 0
M  V30 29 F -4.835712 -5.639958 -2.100422 0
M  V30 30 C -4.195468 -3.840156 -0.677740 0
M  V30 31 C -0.400335 0.546118 -1.197234 0
M  V30 32 C 3.182931 -0.358322 -0.869856 0
M  V30 33 C 4.237397 -0.821411 0.114508 0
M  V30 34 H 1.750284 -1.236116 5.214505 0
M  V30 35 H 3.002837 -0.149498 5.828815 0
M  V30 36 H 2.424364 0.115323 4.169784 0
M  V30 37 H 4.667254 -1.482103 4.906664 0
M  V30 38 H 3.385755 -2.643893 4.504170 0
M  V30 39 H 5.830600 1.175231 0.089614 0
M  V30 40 H 5.079739 2.161214 1.347974 0
M  V30 41 H 4.305355 1.866868 -1.417679 0
M  V30 42 H 3.523876 2.946538 -0.162117 0
M  V30 43 H 0.010340 0.162751 0.916546 0
M  V30 44 H -0.371127 2.446989 1.659940 0
M  V30 45 H -0.632110 2.971374 -0.054149 0
M  V30 46 H -2.244772 0.926698 1.571539 0
M  V30 47 H -2.761235 2.551904 1.076955 0
M  V30 48 H -2.905944 2.044946 -1.215165 0
M  V30 49 H -3.647528 0.681945 -0.355741 0
M  V30 50 H -2.530866 -2.593899 -4.668334 0
M  V30 51 H -4.876880 -3.587693 2.664076 0
M  V30 52 H -5.970658 -5.755476 2.265197 0
M  V30 53 H -5.909768 -6.678598 -0.050621 0
M  V30 54 H -0.246163 1.395578 -1.888544 0
M  V30 55 H 0.144487 -0.358136 -1.500191 0
M  V30 56 H 2.374613 -1.076804 -0.991945 0
M  V30 57 H 3.601568 -0.187799 -1.898657 0
M  V30 58 H 5.186584 -0.935999 -0.458725 0
M  V30 59 H 3.964117 -1.828718 0.489964 0
M  V30 END ATOM
M  V30 BEGIN BOND
M  V30 1 1 1 2
M  V30 2 1 2 3
M  V30 3 1 3 4
M  V30 4 2 4 5
M  V30 5 1 4 6
M  V30 6 1 6 7
M  V30 7 1 7 8
M  V30 8 1 8 9
M  V30 9 1 9 10
M  V30 10 2 10 11
M  V30 11 1 10 12
M  V30 12 1 12 13
M  V30 13 1 13 14
M  V30 14 1 14 15
M  V30 15 1 15 16
M  V30 16 1 16 17
M  V30 17 2 17 18
M  V30 18 1 18 19
M  V30 19 2 19 20
M  V30 20 1 20 21
M  V30 21 2 21 22
M  V30 22 1 22 23
M  V30 23 1 23 24
M  V30 24 2 24 25
M  V30 25 1 25 26
M  V30 26 2 26 27
M  V30 27 1 27 28
M  V30 28 1 28 29
M  V30 29 2 28 30
M  V30 30 1 16 31
M  V30 31 1 9 32
M  V30 32 1 32 33
M  V30 33 1 33 6
M  V30 34 1 31 12
M  V30 35 1 22 17
M  V30 36 1 30 24
M  V30 37 1 30 21
M  V30 38 1 1 34
M  V30 39 1 1 35
M  V30 40 1 1 36
M  V30 41 1 2 37
M  V30 42 1 2 38
M  V30 43 1 7 39
M  V30 44 1 7 40
M  V30 45 1 8 41
M  V30 46 1 8 42
M  V30 47 1 12 43
M  V30 48 1 13 44
M  V30 49 1 13 45
M  V30 50 1 14 46
M  V30 51 1 14 47
M  V30 52 1 15 48
M  V30 53 1 15 49
M  V30 54 1 19 50
M  V30 55 1 25 51
M  V30 56 1 26 52
M  V30 57 1 27 53
M  V30 58 1 31 54
M  V30 59 1 31 55
M  V30 60 1 32 56
M  V30 61 1 32 57
M  V30 62 1 33 58
M  V30 63 1 33 59
M  V30 END BOND
M  V30 END CTAB
M  END
>  <Dataset>  (397) 
ChEMBL_Kinases

>  <Ligand_Instance>  (397) 
nan

>  <PDB_ID>  (397) 
nan

>  <Standardized_SMILES>  (397) 
CCOC(=O)N1CCN(C(=O)C2CCCN(c3ncnc4c3sc3cccc(F)c34)C2)CC1

>  <Name>  (397) 
nan

>  <Pocket>  (397) 
nan

>  <ATP_Site>  (397) 
nan

>  <Peripheral>  (397) 
nan

>  <Num_H_Atoms_ProtBoundConf>  (397) 
nan

>  <Num_Resolved_Atoms>  (397) 
nan

>  <Num_Not_Resolved_Atoms>  (397) 
nan

$$$$
CHEMBL1569096
     RDKit          3D

  0  0  0  0  0  0  0  0  0  0999 V3000
M  V30 BEGIN CTAB
M  V30 COUNTS 54 57 0 0 0
M  V30 BEGIN ATOM
M  V30 1 C 0.637191 -3.270388 5.059898 0
M  V30 2 C 1.671919 -3.601427 4.014388 0
M  V30 3 C 1.441204 -2.916474 2.733676 0
M  V30 4 O 0.559925 -3.569749 2.126382 0
M  V30 5 N 2.151159 -1.746368 2.378271 0
M  V30 6 C 3.095719 -1.188576 3.330290 0
M  V30 7 C 3.423089 0.244602 2.983027 0
M  V30 8 C 2.293661 0.928174 2.252898 0
M  V30 9 C 1.979835 0.236063 0.971847 0
M  V30 10 C 1.753882 0.789163 -0.268210 0
M  V30 11 C 1.477715 -0.016522 -1.352053 0
M  V30 12 S 1.200811 0.782316 -2.903185 0
M  V30 13 O 2.094848 1.984163 -2.939685 0
M  V30 14 O 1.665812 -0.168931 -3.975429 0
M  V30 15 N -0.436633 1.153582 -3.094457 0
M  V30 16 C -1.003364 2.032464 -2.158267 0
M  V30 17 C -2.068501 1.450879 -1.275193 0
M  V30 18 N -2.383093 0.079538 -1.596838 0
M  V30 19 C -3.320766 -0.545939 -0.699955 0
M  V30 20 N -3.850443 0.122389 0.339818 0
M  V30 21 C -4.726002 -0.391848 1.213825 0
M  V30 22 C -5.121839 -1.696540 1.049813 0
M  V30 23 C -4.586502 -2.387821 -0.009236 0
M  V30 24 N -3.716331 -1.831143 -0.854248 0
M  V30 25 C -1.884115 -0.746301 -2.695183 0
M  V30 26 C -1.264848 0.180275 -3.690659 0
M  V30 27 C 1.425550 -1.395602 -1.197668 0
M  V30 28 C 1.648625 -1.979874 0.038934 0
M  V30 29 C 1.925505 -1.135394 1.114172 0
M  V30 30 H 1.023773 -3.306633 6.079871 0
M  V30 31 H 0.143870 -2.289667 4.890615 0
M  V30 32 H -0.162306 -4.039333 4.979158 0
M  V30 33 H 1.741835 -4.704988 3.951718 0
M  V30 34 H 2.663245 -3.276926 4.415325 0
M  V30 35 H 4.042793 -1.764469 3.280326 0
M  V30 36 H 2.742008 -1.254367 4.380095 0
M  V30 37 H 3.557394 0.799595 3.933889 0
M  V30 38 H 4.373975 0.347847 2.416238 0
M  V30 39 H 1.384771 0.888351 2.877967 0
M  V30 40 H 2.627263 1.967706 2.058953 0
M  V30 41 H 1.815764 1.860016 -0.286419 0
M  V30 42 H -1.399621 2.924833 -2.697441 0
M  V30 43 H -0.198438 2.427767 -1.483062 0
M  V30 44 H -1.789123 1.459179 -0.200848 0
M  V30 45 H -2.996858 2.052103 -1.365028 0
M  V30 46 H -5.150849 0.143321 2.045835 0
M  V30 47 H -5.814245 -2.257679 1.660366 0
M  V30 48 H -4.809854 -3.423631 -0.258454 0
M  V30 49 H -2.750931 -1.256188 -3.189683 0
M  V30 50 H -1.222576 -1.556453 -2.356951 0
M  V30 51 H -2.120283 0.718734 -4.194539 0
M  V30 52 H -0.707295 -0.328241 -4.498614 0
M  V30 53 H 1.205031 -1.985586 -2.082493 0
M  V30 54 H 1.607602 -3.063452 0.154904 0
M  V30 END ATOM
M  V30 BEGIN BOND
M  V30 1 1 1 2
M  V30 2 1 2 3
M  V30 3 2 3 4
M  V30 4 1 3 5
M  V30 5 1 5 6
M  V30 6 1 6 7
M  V30 7 1 7 8
M  V30 8 1 8 9
M  V30 9 2 9 10
M  V30 10 1 10 11
M  V30 11 1 11 12
M  V30 12 2 12 13
M  V30 13 2 12 14
M  V30 14 1 12 15
M  V30 15 1 15 16
M  V30 16 1 16 17
M  V30 17 1 17 18
M  V30 18 1 18 19
M  V30 19 2 19 20
M  V30 20 1 20 21
M  V30 21 2 21 22
M  V30 22 1 22 23
M  V30 23 2 23 24
M  V30 24 1 18 25
M  V30 25 1 25 26
M  V30 26 2 11 27
M  V30 27 1 27 28
M  V30 28 2 28 29
M  V30 29 1 29 5
M  V30 30 1 29 9
M  V30 31 1 26 15
M  V30 32 1 24 19
M  V30 33 1 1 30
M  V30 34 1 1 31
M  V30 35 1 1 32
M  V30 36 1 2 33
M  V30 37 1 2 34
M  V30 38 1 6 35
M  V30 39 1 6 36
M  V30 40 1 7 37
M  V30 41 1 7 38
M  V30 42 1 8 39
M  V30 43 1 8 40
M  V30 44 1 10 41
M  V30 45 1 16 42
M  V30 46 1 16 43
M  V30 47 1 17 44
M  V30 48 1 17 45
M  V30 49 1 21 46
M  V30 50 1 22 47
M  V30 51 1 23 48
M  V30 52 1 25 49
M  V30 53 1 25 50
M  V30 54 1 26 51
M  V30 55 1 26 52
M  V30 56 1 27 53
M  V30 57 1 28 54
M  V30 END BOND
M  V30 END CTAB
M  END
>  <Dataset>  (398) 
ChEMBL_Kinases

>  <Ligand_Instance>  (398) 
nan

>  <PDB_ID>  (398) 
nan

>  <Standardized_SMILES>  (398) 
CCC(=O)N1CCCc2cc(S(=O)(=O)N3CCN(c4ncccn4)CC3)ccc21

>  <Name>  (398) 
nan

>  <Pocket>  (398) 
nan

>  <ATP_Site>  (398) 
nan

>  <Peripheral>  (398) 
nan

>  <Num_H_Atoms_ProtBoundConf>  (398) 
nan

>  <Num_Resolved_Atoms>  (398) 
nan

>  <Num_Not_Resolved_Atoms>  (398) 
nan

$$$$
CHEMBL1568873
     RDKit          3D

  0  0  0  0  0  0  0  0  0  0999 V3000
M  V30 BEGIN CTAB
M  V30 COUNTS 38 40 0 0 0
M  V30 BEGIN ATOM
M  V30 1 C 0.082060 -2.413983 1.838537 0
M  V30 2 C -0.139544 -3.413536 0.754982 0
M  V30 3 C -1.253171 -4.404721 1.125595 0
M  V30 4 C 1.126099 -4.282724 0.715627 0
M  V30 5 C -0.380113 -2.852056 -0.581770 0
M  V30 6 C -0.563059 -3.847508 -1.547279 0
M  V30 7 N -0.776777 -3.253068 -2.737218 0
M  V30 8 N -0.730411 -1.950225 -2.529366 0
M  V30 9 N -0.495418 -1.695518 -1.252877 0
M  V30 10 C -0.353949 -0.489512 -0.517243 0
M  V30 11 C 0.861280 0.175669 -0.731443 0
M  V30 12 C 1.064603 1.365869 -0.048818 0
M  V30 13 C 0.173871 1.949585 0.821567 0
M  V30 14 C 0.454048 3.202349 1.504335 0
M  V30 15 C -0.524087 3.773190 2.413355 0
M  V30 16 S 0.392950 5.332323 2.955779 0
M  V30 17 C 1.834528 4.916362 1.899314 0
M  V30 18 N 3.000292 5.746526 1.821806 0
M  V30 19 N 1.571696 3.876368 1.348866 0
M  V30 20 C -0.994579 1.243574 0.983280 0
M  V30 21 C -1.281474 0.054980 0.346918 0
M  V30 22 H -0.883690 -2.055849 2.272894 0
M  V30 23 H 0.600640 -2.875920 2.734358 0
M  V30 24 H 0.761707 -1.625971 1.510484 0
M  V30 25 H -1.396262 -4.484310 2.205416 0
M  V30 26 H -2.202113 -4.104791 0.602193 0
M  V30 27 H -1.013970 -5.421236 0.743511 0
M  V30 28 H 1.993780 -3.591642 0.697814 0
M  V30 29 H 1.129322 -4.825070 1.690184 0
M  V30 30 H 1.111488 -5.014526 -0.105370 0
M  V30 31 H -0.580111 -4.946130 -1.601787 0
M  V30 32 H 1.620156 -0.200997 -1.392643 0
M  V30 33 H 2.012225 1.866931 -0.227600 0
M  V30 34 H -1.499013 3.325975 2.642705 0
M  V30 35 H 2.868416 6.701610 1.383740 0
M  V30 36 H 3.844524 5.278750 2.221018 0
M  V30 37 H -1.773816 1.596149 1.639463 0
M  V30 38 H -2.187409 -0.478048 0.481852 0
M  V30 END ATOM
M  V30 BEGIN BOND
M  V30 1 1 1 2
M  V30 2 1 2 3
M  V30 3 1 2 4
M  V30 4 1 2 5
M  V30 5 2 5 6
M  V30 6 1 6 7
M  V30 7 2 7 8
M  V30 8 1 8 9
M  V30 9 1 9 10
M  V30 10 2 10 11
M  V30 11 1 11 12
M  V30 12 2 12 13
M  V30 13 1 13 14
M  V30 14 2 14 15
M  V30 15 1 15 16
M  V30 16 1 16 17
M  V30 17 1 17 18
M  V30 18 2 17 19
M  V30 19 1 13 20
M  V30 20 2 20 21
M  V30 21 1 9 5
M  V30 22 1 21 10
M  V30 23 1 19 14
M  V30 24 1 1 22
M  V30 25 1 1 23
M  V30 26 1 1 24
M  V30 27 1 3 25
M  V30 28 1 3 26
M  V30 29 1 3 27
M  V30 30 1 4 28
M  V30 31 1 4 29
M  V30 32 1 4 30
M  V30 33 1 6 31
M  V30 34 1 11 32
M  V30 35 1 12 33
M  V30 36 1 15 34
M  V30 37 1 18 35
M  V30 38 1 18 36
M  V30 39 1 20 37
M  V30 40 1 21 38
M  V30 END BOND
M  V30 END CTAB
M  END
>  <Dataset>  (399) 
ChEMBL_Kinases

>  <Ligand_Instance>  (399) 
nan

>  <PDB_ID>  (399) 
nan

>  <Standardized_SMILES>  (399) 
CC(C)(C)c1cnnn1-c1ccc(-c2csc(N)n2)cc1

>  <Name>  (399) 
nan

>  <Pocket>  (399) 
nan

>  <ATP_Site>  (399) 
nan

>  <Peripheral>  (399) 
nan

>  <Num_H_Atoms_ProtBoundConf>  (399) 
nan

>  <Num_Resolved_Atoms>  (399) 
nan

>  <Num_Not_Resolved_Atoms>  (399) 
nan

$$$$
CHEMBL1568840
     RDKit          3D

  0  0  0  0  0  0  0  0  0  0999 V3000
M  V30 BEGIN CTAB
M  V30 COUNTS 37 40 0 0 0
M  V30 BEGIN ATOM
M  V30 1 C -1.767969 -4.276584 1.103914 0
M  V30 2 C -0.409230 -3.756968 1.483847 0
M  V30 3 N 0.164679 -2.756513 1.870071 0
M  V30 4 C 1.452278 -2.676601 2.113082 0
M  V30 5 C 2.194484 -1.452112 2.583980 0
M  V30 6 S 2.940355 -0.467324 1.394354 0
M  V30 7 C 2.173281 0.516803 0.243178 0
M  V30 8 N 3.129439 1.076148 -0.546903 0
M  V30 9 C 2.889721 1.910802 -1.546886 0
M  V30 10 N 3.559198 2.627620 -2.500238 0
M  V30 11 N 2.716593 3.309869 -3.248093 0
M  V30 12 C 1.438410 3.125821 -2.884457 0
M  V30 13 C 1.502305 2.254566 -1.820248 0
M  V30 14 C 0.533756 1.688623 -1.020096 0
M  V30 15 O -0.794404 2.003158 -1.263875 0
M  V30 16 N 0.916222 0.855106 -0.036276 0
M  V30 17 C -0.167240 0.365478 0.732131 0
M  V30 18 C -1.027636 -0.406830 -0.064676 0
M  V30 19 C -2.181843 -0.972756 0.439475 0
M  V30 20 C -2.506282 -0.772473 1.785097 0
M  V30 21 C -1.665473 -0.015957 2.571574 0
M  V30 22 C -0.518221 0.541755 2.054060 0
M  V30 23 C 2.205853 -3.860657 1.900326 0
M  V30 24 S 0.867561 -5.073425 1.322303 0
M  V30 25 H -1.965298 -5.281069 1.550150 0
M  V30 26 H -2.576338 -3.633165 1.507089 0
M  V30 27 H -1.855509 -4.297399 -0.002264 0
M  V30 28 H 3.005817 -1.859051 3.272742 0
M  V30 29 H 1.563845 -0.881938 3.306952 0
M  V30 30 H 0.531222 3.541321 -3.297340 0
M  V30 31 H -1.283644 2.745519 -0.747956 0
M  V30 32 H -0.890283 -0.639315 -1.125985 0
M  V30 33 H -2.868204 -1.572759 -0.141152 0
M  V30 34 H -3.409222 -1.204534 2.213457 0
M  V30 35 H -1.853468 0.180155 3.621352 0
M  V30 36 H 0.221056 1.153945 2.567348 0
M  V30 37 H 3.331836 -3.995683 2.052934 0
M  V30 END ATOM
M  V30 BEGIN BOND
M  V30 1 1 1 2
M  V30 2 2 2 3
M  V30 3 1 3 4
M  V30 4 1 4 5
M  V30 5 1 5 6
M  V30 6 1 6 7
M  V30 7 2 7 8
M  V30 8 1 8 9
M  V30 9 2 9 10
M  V30 10 1 10 11
M  V30 11 2 11 12
M  V30 12 1 12 13
M  V30 13 2 13 14
M  V30 14 1 14 15
M  V30 15 1 14 16
M  V30 16 1 16 17
M  V30 17 2 17 18
M  V30 18 1 18 19
M  V30 19 2 19 20
M  V30 20 1 20 21
M  V30 21 2 21 22
M  V30 22 2 4 23
M  V30 23 1 23 24
M  V30 24 1 24 2
M  V30 25 1 16 7
M  V30 26 1 22 17
M  V30 27 1 13 9
M  V30 28 1 1 25
M  V30 29 1 1 26
M  V30 30 1 1 27
M  V30 31 1 5 28
M  V30 32 1 5 29
M  V30 33 1 12 30
M  V30 34 1 15 31
M  V30 35 1 18 32
M  V30 36 1 19 33
M  V30 37 1 20 34
M  V30 38 1 21 35
M  V30 39 1 22 36
M  V30 40 1 23 37
M  V30 END BOND
M  V30 END CTAB
M  END
>  <Dataset>  (400) 
ChEMBL_Kinases

>  <Ligand_Instance>  (400) 
nan

>  <PDB_ID>  (400) 
nan

>  <Standardized_SMILES>  (400) 
Cc1nc(CSc2nc3nncc-3c(O)n2-c2ccccc2)cs1

>  <Name>  (400) 
nan

>  <Pocket>  (400) 
nan

>  <ATP_Site>  (400) 
nan

>  <Peripheral>  (400) 
nan

>  <Num_H_Atoms_ProtBoundConf>  (400) 
nan

>  <Num_Resolved_Atoms>  (400) 
nan

>  <Num_Not_Resolved_Atoms>  (400) 
nan

$$$$
CHEMBL1568767
     RDKit          3D

  0  0  0  0  0  0  0  0  0  0999 V3000
M  V30 BEGIN CTAB
M  V30 COUNTS 45 48 0 0 0
M  V30 BEGIN ATOM
M  V30 1 C 3.937179 -4.725749 -2.041943 0
M  V30 2 C 3.356745 -3.445107 -2.539715 0
M  V30 3 C 4.170465 -2.342841 -2.672436 0
M  V30 4 C 3.551682 -1.189450 -3.142270 0
M  V30 5 C 2.202214 -1.186801 -3.446518 0
M  V30 6 C 1.402582 -2.324017 -3.300351 0
M  V30 7 C 0.000394 -2.050497 -3.710009 0
M  V30 8 N -0.687018 -1.469570 -2.575290 0
M  V30 9 C -0.936992 -2.066359 -1.313945 0
M  V30 10 N -0.538133 -3.310604 -1.042101 0
M  V30 11 C -0.764364 -3.899968 0.137250 0
M  V30 12 N -1.427856 -3.224156 1.120442 0
M  V30 13 C -1.854834 -1.969645 0.909229 0
M  V30 14 C -2.522551 -1.298413 1.907963 0
M  V30 15 C -2.981519 -0.007677 1.740310 0
M  V30 16 C -2.738992 0.593158 0.507783 0
M  V30 17 C -3.222631 1.964832 0.318903 0
M  V30 18 C -3.603038 2.342145 -0.973591 0
M  V30 19 C -4.059983 3.631167 -1.163163 0
M  V30 20 C -4.144672 4.534271 -0.114983 0
M  V30 21 C -3.755655 4.117974 1.157233 0
M  V30 22 C -3.862744 5.090756 2.207502 0
M  V30 23 N -3.966877 5.877428 3.050427 0
M  V30 24 C -3.287288 2.824454 1.396715 0
M  V30 25 C -2.066298 -0.110942 -0.469431 0
M  V30 26 C -1.605017 -1.393705 -0.315863 0
M  V30 27 C 2.015228 -3.461197 -2.837113 0
M  V30 28 H 4.917873 -4.946205 -2.547383 0
M  V30 29 H 4.111138 -4.685683 -0.939469 0
M  V30 30 H 3.288325 -5.592570 -2.251548 0
M  V30 31 H 5.212085 -2.416911 -2.416773 0
M  V30 32 H 4.191498 -0.323634 -3.246670 0
M  V30 33 H 1.861700 -0.203444 -3.804925 0
M  V30 34 H -0.064827 -1.392223 -4.576050 0
M  V30 35 H -0.488744 -3.041968 -3.895074 0
M  V30 36 H -1.013720 -0.500986 -2.760302 0
M  V30 37 H -0.470719 -4.908007 0.432334 0
M  V30 38 H -2.675588 -1.829768 2.842586 0
M  V30 39 H -3.494214 0.447791 2.569184 0
M  V30 40 H -3.542967 1.648330 -1.804301 0
M  V30 41 H -4.376606 3.998908 -2.151155 0
M  V30 42 H -4.509479 5.550819 -0.286905 0
M  V30 43 H -2.993007 2.529853 2.392195 0
M  V30 44 H -1.936999 0.439396 -1.363078 0
M  V30 45 H 1.351641 -4.295265 -2.758334 0
M  V30 END ATOM
M  V30 BEGIN BOND
M  V30 1 1 1 2
M  V30 2 2 2 3
M  V30 3 1 3 4
M  V30 4 2 4 5
M  V30 5 1 5 6
M  V30 6 1 6 7
M  V30 7 1 7 8
M  V30 8 1 8 9
M  V30 9 2 9 10
M  V30 10 1 10 11
M  V30 11 2 11 12
M  V30 12 1 12 13
M  V30 13 2 13 14
M  V30 14 1 14 15
M  V30 15 2 15 16
M  V30 16 1 16 17
M  V30 17 2 17 18
M  V30 18 1 18 19
M  V30 19 2 19 20
M  V30 20 1 20 21
M  V30 21 1 21 22
M  V30 22 3 22 23
M  V30 23 2 21 24
M  V30 24 1 16 25
M  V30 25 2 25 26
M  V30 26 2 6 27
M  V30 27 1 27 2
M  V30 28 1 26 9
M  V30 29 1 26 13
M  V30 30 1 24 17
M  V30 31 1 1 28
M  V30 32 1 1 29
M  V30 33 1 1 30
M  V30 34 1 3 31
M  V30 35 1 4 32
M  V30 36 1 5 33
M  V30 37 1 7 34
M  V30 38 1 7 35
M  V30 39 1 8 36
M  V30 40 1 11 37
M  V30 41 1 14 38
M  V30 42 1 15 39
M  V30 43 1 18 40
M  V30 44 1 19 41
M  V30 45 1 20 42
M  V30 46 1 24 43
M  V30 47 1 25 44
M  V30 48 1 27 45
M  V30 END BOND
M  V30 END CTAB
M  END
>  <Dataset>  (401) 
ChEMBL_Kinases

>  <Ligand_Instance>  (401) 
nan

>  <PDB_ID>  (401) 
nan

>  <Standardized_SMILES>  (401) 
Cc1cccc(CNc2ncnc3ccc(-c4cccc(C#N)c4)cc23)c1

>  <Name>  (401) 
nan

>  <Pocket>  (401) 
nan

>  <ATP_Site>  (401) 
nan

>  <Peripheral>  (401) 
nan

>  <Num_H_Atoms_ProtBoundConf>  (401) 
nan

>  <Num_Resolved_Atoms>  (401) 
nan

>  <Num_Not_Resolved_Atoms>  (401) 
nan

$$$$
CHEMBL1568588
     RDKit          3D

  0  0  0  0  0  0  0  0  0  0999 V3000
M  V30 BEGIN CTAB
M  V30 COUNTS 51 53 0 0 0
M  V30 BEGIN ATOM
M  V30 1 C 2.233012 1.898109 5.640527 0
M  V30 2 O 2.942569 1.803536 4.438803 0
M  V30 3 C 3.905347 0.870769 4.149964 0
M  V30 4 C 4.292853 -0.110740 5.044597 0
M  V30 5 C 5.281291 -0.989248 4.616083 0
M  V30 6 C 5.866786 -0.910209 3.362478 0
M  V30 7 C 5.447335 0.079966 2.514600 0
M  V30 8 C 4.470244 0.976440 2.891407 0
M  V30 9 N 4.063977 2.000394 1.961933 0
M  V30 10 C 2.983404 1.650533 1.090344 0
M  V30 11 O 2.624728 0.467857 1.356483 0
M  V30 12 C 2.574753 2.735944 0.126558 0
M  V30 13 O 1.497661 2.132256 -0.609435 0
M  V30 14 C 0.350875 1.688390 -0.004837 0
M  V30 15 O 0.257910 1.824160 1.242965 0
M  V30 16 C -0.763025 1.070819 -0.718843 0
M  V30 17 C -1.852889 0.677346 0.053452 0
M  V30 18 C -2.913023 0.087274 -0.642035 0
M  V30 19 C -2.913863 -0.109880 -2.015034 0
M  V30 20 S -4.333639 -0.863795 -2.692899 0
M  V30 21 O -4.583360 -0.304583 -4.065706 0
M  V30 22 O -5.532132 -0.496671 -1.863863 0
M  V30 23 N -4.188109 -2.578394 -2.735122 0
M  V30 24 C -4.043209 -3.067932 -1.388887 0
M  V30 25 C -3.908936 -4.538666 -1.300819 0
M  V30 26 C -4.947333 -5.438948 -1.168001 0
M  V30 27 C -4.331660 -6.682267 -1.128917 0
M  V30 28 C -2.962593 -6.453581 -1.240489 0
M  V30 29 O -2.758627 -5.169756 -1.339977 0
M  V30 30 C -1.800855 0.304238 -2.717998 0
M  V30 31 C -0.723175 0.893033 -2.088043 0
M  V30 32 H 1.730032 2.905301 5.674361 0
M  V30 33 H 1.412196 1.135071 5.598547 0
M  V30 34 H 2.867264 1.805613 6.527136 0
M  V30 35 H 3.835768 -0.172275 6.022991 0
M  V30 36 H 5.589452 -1.765345 5.320140 0
M  V30 37 H 6.637114 -1.607415 3.049439 0
M  V30 38 H 5.914416 0.135731 1.526678 0
M  V30 39 H 4.599125 2.916135 2.006899 0
M  V30 40 H 3.445570 2.907123 -0.505772 0
M  V30 41 H 2.255687 3.631277 0.679449 0
M  V30 42 H -1.912038 0.803234 1.122777 0
M  V30 43 H -3.759967 -0.217576 -0.035484 0
M  V30 44 H -3.469616 -2.902458 -3.400065 0
M  V30 45 H -4.971276 -2.788880 -0.842239 0
M  V30 46 H -3.141758 -2.600128 -0.947888 0
M  V30 47 H -5.974766 -5.141777 -1.115351 0
M  V30 48 H -4.962184 -7.571676 -1.025533 0
M  V30 49 H -2.385179 -7.384141 -1.219445 0
M  V30 50 H -1.835891 0.133017 -3.799623 0
M  V30 51 H 0.137439 1.206071 -2.681648 0
M  V30 END ATOM
M  V30 BEGIN BOND
M  V30 1 1 1 2
M  V30 2 1 2 3
M  V30 3 2 3 4
M  V30 4 1 4 5
M  V30 5 2 5 6
M  V30 6 1 6 7
M  V30 7 2 7 8
M  V30 8 1 8 9
M  V30 9 1 9 10
M  V30 10 2 10 11
M  V30 11 1 10 12
M  V30 12 1 12 13
M  V30 13 1 13 14
M  V30 14 2 14 15
M  V30 15 1 14 16
M  V30 16 2 16 17
M  V30 17 1 17 18
M  V30 18 2 18 19
M  V30 19 1 19 20
M  V30 20 2 20 21
M  V30 21 2 20 22
M  V30 22 1 20 23
M  V30 23 1 23 24
M  V30 24 1 24 25
M  V30 25 2 25 26
M  V30 26 1 26 27
M  V30 27 2 27 28
M  V30 28 1 28 29
M  V30 29 1 19 30
M  V30 30 2 30 31
M  V30 31 1 8 3
M  V30 32 1 31 16
M  V30 33 1 29 25
M  V30 34 1 1 32
M  V30 35 1 1 33
M  V30 36 1 1 34
M  V30 37 1 4 35
M  V30 38 1 5 36
M  V30 39 1 6 37
M  V30 40 1 7 38
M  V30 41 1 9 39
M  V30 42 1 12 40
M  V30 43 1 12 41
M  V30 44 1 17 42
M  V30 45 1 18 43
M  V30 46 1 23 44
M  V30 47 1 24 45
M  V30 48 1 24 46
M  V30 49 1 26 47
M  V30 50 1 27 48
M  V30 51 1 28 49
M  V30 52 1 30 50
M  V30 53 1 31 51
M  V30 END BOND
M  V30 END CTAB
M  END
>  <Dataset>  (402) 
ChEMBL_Kinases

>  <Ligand_Instance>  (402) 
nan

>  <PDB_ID>  (402) 
nan

>  <Standardized_SMILES>  (402) 
COc1ccccc1NC(=O)COC(=O)c1ccc(S(=O)(=O)NCc2ccco2)cc1

>  <Name>  (402) 
nan

>  <Pocket>  (402) 
nan

>  <ATP_Site>  (402) 
nan

>  <Peripheral>  (402) 
nan

>  <Num_H_Atoms_ProtBoundConf>  (402) 
nan

>  <Num_Resolved_Atoms>  (402) 
nan

>  <Num_Not_Resolved_Atoms>  (402) 
nan

$$$$
CHEMBL1568585
     RDKit          3D

  0  0  0  0  0  0  0  0  0  0999 V3000
M  V30 BEGIN CTAB
M  V30 COUNTS 52 55 0 0 0
M  V30 BEGIN ATOM
M  V30 1 C 3.970559 -1.044340 5.593207 0
M  V30 2 O 4.391887 -1.715013 4.406632 0
M  V30 3 C 3.813923 -1.243372 3.222363 0
M  V30 4 C 2.891885 -0.191068 3.212682 0
M  V30 5 C 2.377533 0.200831 1.987950 0
M  V30 6 C 2.746937 -0.412709 0.791322 0
M  V30 7 N 2.068649 0.181675 -0.320180 0
M  V30 8 C 0.781534 -0.309750 -0.794133 0
M  V30 9 O 0.680260 -1.230822 0.058939 0
M  V30 10 C 0.418514 0.547272 -1.932228 0
M  V30 11 S -1.177397 0.054851 -2.604475 0
M  V30 12 C -2.464167 0.403555 -1.424417 0
M  V30 13 N -2.960386 1.636693 -1.476542 0
M  V30 14 C -3.965797 2.043237 -0.651909 0
M  V30 15 C -4.430827 1.074551 0.243877 0
M  V30 16 C -3.889570 -0.185336 0.262234 0
M  V30 17 O -4.420986 -0.933902 1.125308 0
M  V30 18 N -2.897097 -0.540293 -0.572686 0
M  V30 19 C -2.411678 -1.861259 -0.501370 0
M  V30 20 C -2.224351 -2.434109 0.740917 0
M  V30 21 C -1.756541 -3.730313 0.922430 0
M  V30 22 C -1.461770 -4.490002 -0.202739 0
M  V30 23 F -0.998079 -5.773723 -0.061502 0
M  V30 24 C -1.633968 -3.958245 -1.467919 0
M  V30 25 C -2.100802 -2.667527 -1.586374 0
M  V30 26 S -5.731842 1.919425 1.174018 0
M  V30 27 C -5.148644 3.614960 0.763042 0
M  V30 28 C -4.609704 3.378443 -0.602992 0
M  V30 29 C 3.657580 -1.449417 0.816420 0
M  V30 30 O 3.929673 -1.960022 -0.430021 0
M  V30 31 C 4.850115 -3.031886 -0.558566 0
M  V30 32 C 4.169417 -1.839392 2.035426 0
M  V30 33 H 4.266629 0.009440 5.477594 0
M  V30 34 H 4.406746 -1.461087 6.510448 0
M  V30 35 H 2.854377 -1.096448 5.662310 0
M  V30 36 H 2.632015 0.255078 4.149412 0
M  V30 37 H 1.665725 1.030624 2.092701 0
M  V30 38 H 2.779934 0.949720 -0.559330 0
M  V30 39 H 1.223805 0.517250 -2.705297 0
M  V30 40 H 0.355992 1.613183 -1.554724 0
M  V30 41 H -2.414147 -1.948161 1.692905 0
M  V30 42 H -1.604022 -4.194209 1.888009 0
M  V30 43 H -1.397248 -4.570155 -2.326197 0
M  V30 44 H -2.237595 -2.251362 -2.573422 0
M  V30 45 H -6.088892 4.222315 0.675805 0
M  V30 46 H -4.439655 3.992925 1.505444 0
M  V30 47 H -5.432368 3.471810 -1.348727 0
M  V30 48 H -3.857612 4.134616 -0.826105 0
M  V30 49 H 5.173619 -3.071631 -1.619655 0
M  V30 50 H 5.754945 -2.869872 0.053301 0
M  V30 51 H 4.374253 -4.018807 -0.354301 0
M  V30 52 H 4.882978 -2.664768 1.974801 0
M  V30 END ATOM
M  V30 BEGIN BOND
M  V30 1 1 1 2
M  V30 2 1 2 3
M  V30 3 2 3 4
M  V30 4 1 4 5
M  V30 5 2 5 6
M  V30 6 1 6 7
M  V30 7 1 7 8
M  V30 8 2 8 9
M  V30 9 1 8 10
M  V30 10 1 10 11
M  V30 11 1 11 12
M  V30 12 2 12 13
M  V30 13 1 13 14
M  V30 14 2 14 15
M  V30 15 1 15 16
M  V30 16 2 16 17
M  V30 17 1 16 18
M  V30 18 1 18 19
M  V30 19 2 19 20
M  V30 20 1 20 21
M  V30 21 2 21 22
M  V30 22 1 22 23
M  V30 23 1 22 24
M  V30 24 2 24 25
M  V30 25 1 15 26
M  V30 26 1 26 27
M  V30 27 1 27 28
M  V30 28 1 6 29
M  V30 29 1 29 30
M  V30 30 1 30 31
M  V30 31 2 29 32
M  V30 32 1 32 3
M  V30 33 1 18 12
M  V30 34 1 25 19
M  V30 35 1 28 14
M  V30 36 1 1 33
M  V30 37 1 1 34
M  V30 38 1 1 35
M  V30 39 1 4 36
M  V30 40 1 5 37
M  V30 41 1 7 38
M  V30 42 1 10 39
M  V30 43 1 10 40
M  V30 44 1 20 41
M  V30 45 1 21 42
M  V30 46 1 24 43
M  V30 47 1 25 44
M  V30 48 1 27 45
M  V30 49 1 27 46
M  V30 50 1 28 47
M  V30 51 1 28 48
M  V30 52 1 31 49
M  V30 53 1 31 50
M  V30 54 1 31 51
M  V30 55 1 32 52
M  V30 END BOND
M  V30 END CTAB
M  END
>  <Dataset>  (403) 
ChEMBL_Kinases

>  <Ligand_Instance>  (403) 
nan

>  <PDB_ID>  (403) 
nan

>  <Standardized_SMILES>  (403) 
COc1ccc(NC(=O)CSc2nc3c(c(=O)n2-c2ccc(F)cc2)SCC3)c(OC)c1

>  <Name>  (403) 
nan

>  <Pocket>  (403) 
nan

>  <ATP_Site>  (403) 
nan

>  <Peripheral>  (403) 
nan

>  <Num_H_Atoms_ProtBoundConf>  (403) 
nan

>  <Num_Resolved_Atoms>  (403) 
nan

>  <Num_Not_Resolved_Atoms>  (403) 
nan

$$$$
CHEMBL1568575
     RDKit          3D

  0  0  0  0  0  0  0  0  0  0999 V3000
M  V30 BEGIN CTAB
M  V30 COUNTS 35 38 0 0 0
M  V30 BEGIN ATOM
M  V30 1 C 1.305761 -2.383724 4.490118 0
M  V30 2 C 0.926945 -3.540779 3.833207 0
M  V30 3 C 0.321426 -3.391500 2.612919 0
M  V30 4 C 0.046515 -2.185154 1.962104 0
M  V30 5 N -0.580806 -2.249473 0.688633 0
M  V30 6 C -0.604758 -0.960877 0.063173 0
M  V30 7 N 0.627702 -0.557857 -0.351365 0
M  V30 8 C 0.861633 0.610213 -0.969142 0
M  V30 9 C 2.246053 0.877541 -1.326973 0
M  V30 10 C 3.254659 0.015610 -1.695989 0
M  V30 11 C 4.385465 0.806554 -1.910496 0
M  V30 12 O 4.064101 2.055326 -1.682163 0
M  V30 13 C 2.797085 2.136968 -1.332128 0
M  V30 14 N -0.204795 1.398885 -1.173143 0
M  V30 15 C -1.446174 1.065077 -0.790618 0
M  V30 16 C -2.524906 1.874970 -1.005601 0
M  V30 17 C -3.794973 1.457202 -0.579023 0
M  V30 18 C -3.955149 0.236786 0.052739 0
M  V30 19 C -2.886395 -0.621021 0.292469 0
M  V30 20 C -1.685901 -0.134406 -0.155716 0
M  V30 21 C 0.435314 -1.056606 2.642584 0
M  V30 22 C 1.053626 -1.158214 3.884409 0
M  V30 23 H 1.784905 -2.500901 5.449666 0
M  V30 24 H 1.084158 -4.533664 4.233052 0
M  V30 25 H 0.024269 -4.320305 2.099040 0
M  V30 26 H -0.952844 -3.132197 0.315449 0
M  V30 27 H 3.075499 -1.070659 -1.770803 0
M  V30 28 H 5.314609 0.344747 -2.212615 0
M  V30 29 H 2.322803 3.094628 -1.095120 0
M  V30 30 H -2.446411 2.829341 -1.491171 0
M  V30 31 H -4.617529 2.119529 -0.765071 0
M  V30 32 H -4.946418 -0.065057 0.371084 0
M  V30 33 H -2.983795 -1.570577 0.780311 0
M  V30 34 H 0.234561 -0.118155 2.157704 0
M  V30 35 H 1.357929 -0.243707 4.407766 0
M  V30 END ATOM
M  V30 BEGIN BOND
M  V30 1 2 1 2
M  V30 2 1 2 3
M  V30 3 2 3 4
M  V30 4 1 4 5
M  V30 5 1 5 6
M  V30 6 2 6 7
M  V30 7 1 7 8
M  V30 8 1 8 9
M  V30 9 1 9 10
M  V30 10 2 10 11
M  V30 11 1 11 12
M  V30 12 1 12 13
M  V30 13 2 8 14
M  V30 14 1 14 15
M  V30 15 2 15 16
M  V30 16 1 16 17
M  V30 17 2 17 18
M  V30 18 1 18 19
M  V30 19 2 19 20
M  V30 20 1 4 21
M  V30 21 2 21 22
M  V30 22 1 22 1
M  V30 23 1 20 6
M  V30 24 2 13 9
M  V30 25 1 20 15
M  V30 26 1 1 23
M  V30 27 1 2 24
M  V30 28 1 3 25
M  V30 29 1 5 26
M  V30 30 1 10 27
M  V30 31 1 11 28
M  V30 32 1 13 29
M  V30 33 1 16 30
M  V30 34 1 17 31
M  V30 35 1 18 32
M  V30 36 1 19 33
M  V30 37 1 21 34
M  V30 38 1 22 35
M  V30 END BOND
M  V30 END CTAB
M  END
>  <Dataset>  (404) 
ChEMBL_Kinases

>  <Ligand_Instance>  (404) 
nan

>  <PDB_ID>  (404) 
nan

>  <Standardized_SMILES>  (404) 
c1ccc(Nc2nc(-c3ccoc3)nc3ccccc23)cc1

>  <Name>  (404) 
nan

>  <Pocket>  (404) 
nan

>  <ATP_Site>  (404) 
nan

>  <Peripheral>  (404) 
nan

>  <Num_H_Atoms_ProtBoundConf>  (404) 
nan

>  <Num_Resolved_Atoms>  (404) 
nan

>  <Num_Not_Resolved_Atoms>  (404) 
nan

$$$$
CHEMBL1568540
     RDKit          3D

  0  0  0  0  0  0  0  0  0  0999 V3000
M  V30 BEGIN CTAB
M  V30 COUNTS 55 57 0 0 0
M  V30 BEGIN ATOM
M  V30 1 C 4.275150 -1.603443 8.155881 0
M  V30 2 C 5.265096 -1.831709 7.019763 0
M  V30 3 O 4.600343 -1.486849 5.830749 0
M  V30 4 C 5.104009 -1.535659 4.560870 0
M  V30 5 O 6.286698 -1.928413 4.420370 0
M  V30 6 C 4.254783 -1.132336 3.422030 0
M  V30 7 C 2.959918 -0.708512 3.644605 0
M  V30 8 C 2.216563 -0.345109 2.539298 0
M  V30 9 C 2.686865 -0.379315 1.228978 0
M  V30 10 N 1.818073 0.024785 0.148395 0
M  V30 11 C 1.680603 1.345904 -0.380719 0
M  V30 12 O 2.416426 2.342468 -0.087646 0
M  V30 13 C 0.521050 1.368535 -1.343949 0
M  V30 14 C -0.196618 0.078119 -1.006159 0
M  V30 15 N -0.949495 -0.332982 -2.143856 0
M  V30 16 C -1.880917 0.753379 -2.402759 0
M  V30 17 C -2.700681 0.547397 -3.637572 0
M  V30 18 C -3.356724 -0.799839 -3.711539 0
M  V30 19 C -4.747558 -0.710181 -3.175484 0
M  V30 20 O -5.857321 -0.947251 -3.722499 0
M  V30 21 O -4.755880 -0.297313 -1.869779 0
M  V30 22 C -5.985042 -0.139198 -1.146934 0
M  V30 23 C -6.747533 -1.436098 -1.072914 0
M  V30 24 C -2.567118 -1.897434 -3.072944 0
M  V30 25 C -1.756197 -1.510928 -1.900629 0
M  V30 26 C 0.914818 -0.805441 -0.618696 0
M  V30 27 O 1.160510 -2.042822 -0.837372 0
M  V30 28 C 3.991265 -0.809432 1.037134 0
M  V30 29 C 4.764612 -1.181816 2.129032 0
M  V30 30 H 4.575983 -2.138433 9.077727 0
M  V30 31 H 4.236180 -0.507077 8.306452 0
M  V30 32 H 3.268989 -1.896559 7.801223 0
M  V30 33 H 5.430652 -2.936789 6.984934 0
M  V30 34 H 6.216174 -1.306285 7.183229 0
M  V30 35 H 2.541286 -0.661733 4.641621 0
M  V30 36 H 1.187700 -0.002781 2.659337 0
M  V30 37 H 0.849951 1.425864 -2.382384 0
M  V30 38 H -0.091371 2.236706 -1.001438 0
M  V30 39 H -0.815170 0.239648 -0.097677 0
M  V30 40 H -1.408937 1.738381 -2.476481 0
M  V30 41 H -2.578316 0.770077 -1.534886 0
M  V30 42 H -3.488327 1.329274 -3.636922 0
M  V30 43 H -2.050217 0.755812 -4.513221 0
M  V30 44 H -3.463960 -1.050605 -4.788917 0
M  V30 45 H -6.642526 0.606940 -1.654051 0
M  V30 46 H -5.763846 0.262501 -0.139127 0
M  V30 47 H -7.651344 -1.408663 -1.707396 0
M  V30 48 H -7.118250 -1.541657 -0.030156 0
M  V30 49 H -6.155882 -2.309212 -1.383083 0
M  V30 50 H -3.297693 -2.672169 -2.733476 0
M  V30 51 H -1.913464 -2.414564 -3.819922 0
M  V30 52 H -2.363907 -1.304729 -0.999300 0
M  V30 53 H -1.125182 -2.397036 -1.640922 0
M  V30 54 H 4.376187 -0.843646 0.027478 0
M  V30 55 H 5.774674 -1.512707 1.958953 0
M  V30 END ATOM
M  V30 BEGIN BOND
M  V30 1 1 1 2
M  V30 2 1 2 3
M  V30 3 1 3 4
M  V30 4 2 4 5
M  V30 5 1 4 6
M  V30 6 2 6 7
M  V30 7 1 7 8
M  V30 8 2 8 9
M  V30 9 1 9 10
M  V30 10 1 10 11
M  V30 11 2 11 12
M  V30 12 1 11 13
M  V30 13 1 13 14
M  V30 14 1 14 15
M  V30 15 1 15 16
M  V30 16 1 16 17
M  V30 17 1 17 18
M  V30 18 1 18 19
M  V30 19 2 19 20
M  V30 20 1 19 21
M  V30 21 1 21 22
M  V30 22 1 22 23
M  V30 23 1 18 24
M  V30 24 1 24 25
M  V30 25 1 14 26
M  V30 26 2 26 27
M  V30 27 1 9 28
M  V30 28 2 28 29
M  V30 29 1 29 6
M  V30 30 1 26 10
M  V30 31 1 25 15
M  V30 32 1 1 30
M  V30 33 1 1 31
M  V30 34 1 1 32
M  V30 35 1 2 33
M  V30 36 1 2 34
M  V30 37 1 7 35
M  V30 38 1 8 36
M  V30 39 1 13 37
M  V30 40 1 13 38
M  V30 41 1 14 39
M  V30 42 1 16 40
M  V30 43 1 16 41
M  V30 44 1 17 42
M  V30 45 1 17 43
M  V30 46 1 18 44
M  V30 47 1 22 45
M  V30 48 1 22 46
M  V30 49 1 23 47
M  V30 50 1 23 48
M  V30 51 1 23 49
M  V30 52 1 24 50
M  V30 53 1 24 51
M  V30 54 1 25 52
M  V30 55 1 25 53
M  V30 56 1 28 54
M  V30 57 1 29 55
M  V30 END BOND
M  V30 END CTAB
M  END
>  <Dataset>  (405) 
ChEMBL_Kinases

>  <Ligand_Instance>  (405) 
nan

>  <PDB_ID>  (405) 
nan

>  <Standardized_SMILES>  (405) 
CCOC(=O)c1ccc(N2C(=O)CC(N3CCC(C(=O)OCC)CC3)C2=O)cc1

>  <Name>  (405) 
nan

>  <Pocket>  (405) 
nan

>  <ATP_Site>  (405) 
nan

>  <Peripheral>  (405) 
nan

>  <Num_H_Atoms_ProtBoundConf>  (405) 
nan

>  <Num_Resolved_Atoms>  (405) 
nan

>  <Num_Not_Resolved_Atoms>  (405) 
nan

$$$$
CHEMBL1568514
     RDKit          3D

  0  0  0  0  0  0  0  0  0  0999 V3000
M  V30 BEGIN CTAB
M  V30 COUNTS 48 51 0 0 0
M  V30 BEGIN ATOM
M  V30 1 C 1.049803 -4.486256 1.610064 0
M  V30 2 C 1.256653 -3.223132 0.862588 0
M  V30 3 N 2.209525 -3.213424 -0.083671 0
M  V30 4 N 2.275107 -2.028864 -0.658272 0
M  V30 5 C 3.088952 -1.444561 -1.715328 0
M  V30 6 C 4.309045 -0.821255 -1.198406 0
M  V30 7 C 4.351898 0.574348 -1.112782 0
M  V30 8 C 5.477244 1.238030 -0.629448 0
M  V30 9 C 6.572902 0.509554 -0.226558 0
M  V30 10 C 6.516031 -0.867061 -0.316964 0
M  V30 11 C 5.411174 -1.562772 -0.793591 0
M  V30 12 Cl 5.378238 -3.311443 -0.892491 0
M  V30 13 C 1.318213 -1.266038 -0.040648 0
M  V30 14 S 0.520506 0.356325 0.050899 0
M  V30 15 C -0.613595 -0.070302 1.356324 0
M  V30 16 C -1.549806 0.911244 1.861846 0
M  V30 17 O -1.540915 2.077484 1.352650 0
M  V30 18 N -2.449566 0.580358 2.893969 0
M  V30 19 C -3.414850 1.490878 3.455518 0
M  V30 20 C -4.397104 2.018000 2.458607 0
M  V30 21 C -5.259492 1.030967 1.766077 0
M  V30 22 N -4.580893 0.041484 0.978121 0
M  V30 23 C -4.271892 0.247855 -0.338721 0
M  V30 24 C -3.636577 -0.834001 -0.906399 0
M  V30 25 N -3.548757 -1.732023 0.078362 0
M  V30 26 C -4.102358 -1.203041 1.160573 0
M  V30 27 C -0.333982 -1.346692 1.628558 0
M  V30 28 C 0.654261 -1.985030 0.925258 0
M  V30 29 H 0.207631 -4.395991 2.300941 0
M  V30 30 H 2.022250 -4.699235 2.131677 0
M  V30 31 H 0.911228 -5.306095 0.887086 0
M  V30 32 H 3.398436 -2.235116 -2.455421 0
M  V30 33 H 2.511189 -0.711609 -2.313371 0
M  V30 34 H 3.511815 1.219128 -1.416326 0
M  V30 35 H 5.512368 2.321230 -0.561859 0
M  V30 36 H 7.450390 1.027625 0.150284 0
M  V30 37 H 7.366210 -1.478306 -0.006021 0
M  V30 38 H -2.416814 -0.401056 3.301945 0
M  V30 39 H -2.859783 2.404752 3.835175 0
M  V30 40 H -3.921748 1.045710 4.353521 0
M  V30 41 H -3.787596 2.523273 1.646609 0
M  V30 42 H -4.998719 2.863136 2.870645 0
M  V30 43 H -5.924083 1.633336 1.074895 0
M  V30 44 H -6.014097 0.555045 2.458905 0
M  V30 45 H -4.480177 1.151169 -0.931210 0
M  V30 46 H -3.289260 -0.924426 -1.925253 0
M  V30 47 H -4.207699 -1.657837 2.153679 0
M  V30 48 H -0.937285 -1.782575 2.412688 0
M  V30 END ATOM
M  V30 BEGIN BOND
M  V30 1 1 1 2
M  V30 2 2 2 3
M  V30 3 1 3 4
M  V30 4 1 4 5
M  V30 5 1 5 6
M  V30 6 2 6 7
M  V30 7 1 7 8
M  V30 8 2 8 9
M  V30 9 1 9 10
M  V30 10 2 10 11
M  V30 11 1 11 12
M  V30 12 1 4 13
M  V30 13 1 13 14
M  V30 14 1 14 15
M  V30 15 1 15 16
M  V30 16 2 16 17
M  V30 17 1 16 18
M  V30 18 1 18 19
M  V30 19 1 19 20
M  V30 20 1 20 21
M  V30 21 1 21 22
M  V30 22 1 22 23
M  V30 23 2 23 24
M  V30 24 1 24 25
M  V30 25 2 25 26
M  V30 26 2 15 27
M  V30 27 1 27 28
M  V30 28 1 28 2
M  V30 29 1 11 6
M  V30 30 2 28 13
M  V30 31 1 26 22
M  V30 32 1 1 29
M  V30 33 1 1 30
M  V30 34 1 1 31
M  V30 35 1 5 32
M  V30 36 1 5 33
M  V30 37 1 7 34
M  V30 38 1 8 35
M  V30 39 1 9 36
M  V30 40 1 10 37
M  V30 41 1 18 38
M  V30 42 1 19 39
M  V30 43 1 19 40
M  V30 44 1 20 41
M  V30 45 1 20 42
M  V30 46 1 21 43
M  V30 47 1 21 44
M  V30 48 1 23 45
M  V30 49 1 24 46
M  V30 50 1 26 47
M  V30 51 1 27 48
M  V30 END BOND
M  V30 END CTAB
M  END
>  <Dataset>  (406) 
ChEMBL_Kinases

>  <Ligand_Instance>  (406) 
nan

>  <PDB_ID>  (406) 
nan

>  <Standardized_SMILES>  (406) 
Cc1nn(Cc2ccccc2Cl)c2sc(C(=O)NCCCn3ccnc3)cc12

>  <Name>  (406) 
nan

>  <Pocket>  (406) 
nan

>  <ATP_Site>  (406) 
nan

>  <Peripheral>  (406) 
nan

>  <Num_H_Atoms_ProtBoundConf>  (406) 
nan

>  <Num_Resolved_Atoms>  (406) 
nan

>  <Num_Not_Resolved_Atoms>  (406) 
nan

$$$$
CHEMBL1566610
     RDKit          3D

  0  0  0  0  0  0  0  0  0  0999 V3000
M  V30 BEGIN CTAB
M  V30 COUNTS 79 84 0 0 0
M  V30 BEGIN ATOM
M  V30 1 C -0.664522 4.309476 3.695393 0
M  V30 2 C 0.127816 3.919521 2.706487 0
M  V30 3 C 1.409404 4.595247 2.406435 0
M  V30 4 O 2.115885 5.207042 3.279271 0
M  V30 5 O 1.628932 4.405233 1.027368 0
M  V30 6 C 1.159140 3.072630 0.774840 0 CFG=2
M  V30 7 C 0.941063 2.915862 -0.687258 0
M  V30 8 C 0.036276 3.981757 -1.295789 0 CFG=1
M  V30 9 C 0.331874 3.966893 -2.788101 0
M  V30 10 C -1.354191 3.473612 -1.115810 0 CFG=2
M  V30 11 C -2.382789 4.128927 -1.917151 0
M  V30 12 C -3.562084 4.036158 -1.280083 0
M  V30 13 C -3.326505 3.300292 -0.016521 0
M  V30 14 O -4.265807 2.626018 0.485370 0
M  V30 15 C -1.903860 3.632061 0.281569 0 CFG=2
M  V30 16 C -1.884744 5.023957 0.785550 0
M  V30 17 C -1.310907 2.598876 1.144690 0 CFG=1
M  V30 18 O -1.319059 1.359122 0.463452 0
M  V30 19 C -2.030680 0.243471 0.880159 0
M  V30 20 O -2.777808 0.081148 1.882445 0
M  V30 21 C -1.927210 -0.981545 0.042898 0
M  V30 22 C -0.915513 -1.852735 0.693837 0
M  V30 23 O -0.696679 -1.051807 1.623796 0
M  V30 24 O -0.519666 -3.081926 0.239575 0
M  V30 25 C 0.466553 -3.867267 0.923945 0 CFG=1
M  V30 26 C -0.151661 -5.122669 1.366455 0 CFG=2
M  V30 27 C 0.564500 -5.801297 2.484576 0
M  V30 28 C 0.848085 -5.351032 3.691905 0
M  V30 29 C 0.908198 -7.137637 1.948478 0
M  V30 30 O 1.276929 -8.072605 2.738881 0
M  V30 31 O 0.738408 -7.077517 0.570401 0
M  V30 32 C -0.347095 -6.192000 0.378569 0 CFG=2
M  V30 33 C -0.544908 -5.793585 -1.042432 0
M  V30 34 C 0.768618 -5.539333 -1.769298 0 CFG=1
M  V30 35 C 0.443157 -5.572520 -3.254919 0
M  V30 36 C 1.147715 -4.141389 -1.423245 0 CFG=2
M  V30 37 C 2.206675 -3.535193 -2.226191 0
M  V30 38 C 2.784177 -2.572813 -1.488543 0
M  V30 39 C 2.120418 -2.514690 -0.170529 0
M  V30 40 O 2.146269 -1.407616 0.428621 0
M  V30 41 C 1.614395 -3.930898 -0.021957 0 CFG=1
M  V30 42 C 2.791765 -4.730638 0.386613 0
M  V30 43 C 0.039947 2.824827 1.684512 0 CFG=2
M  V30 44 H -1.607226 3.816450 3.919772 0
M  V30 45 H -1.592178 3.838690 3.930494 0
M  V30 46 H 2.064448 2.445759 1.011416 0
M  V30 47 H 1.942080 3.062426 -1.170257 0
M  V30 48 H 0.621396 1.918534 -0.984140 0
M  V30 49 H 0.258791 4.959477 -0.873080 0
M  V30 50 H 1.416061 3.825351 -2.981636 0
M  V30 51 H -0.094658 4.825431 -3.326458 0
M  V30 52 H -0.181688 3.069282 -3.202274 0
M  V30 53 H -1.336491 2.370120 -1.325932 0
M  V30 54 H -2.132462 4.596011 -2.876458 0
M  V30 55 H -4.465955 4.475939 -1.732855 0
M  V30 56 H -2.399059 5.670862 0.013860 0
M  V30 57 H -2.576899 5.080714 1.659474 0
M  V30 58 H -0.917033 5.497886 0.932981 0
M  V30 59 H -1.981908 2.438826 2.031128 0
M  V30 60 H -1.664278 -0.713385 -0.986169 0
M  V30 61 H -2.903890 -1.516444 -0.019067 0
M  V30 62 H 0.791251 -3.290143 1.816265 0
M  V30 63 H -1.155906 -4.858782 1.794599 0
M  V30 64 H 0.472291 -4.325762 3.816265 0
M  V30 65 H 1.371036 -5.972834 4.374683 0
M  V30 66 H -1.249773 -6.803826 0.658073 0
M  V30 67 H -1.089645 -6.600190 -1.585225 0
M  V30 68 H -1.143244 -4.885528 -1.106924 0
M  V30 69 H 1.524268 -6.308434 -1.599640 0
M  V30 70 H -0.209506 -4.697553 -3.453075 0
M  V30 71 H 1.343827 -5.465442 -3.893260 0
M  V30 72 H -0.157566 -6.467540 -3.514797 0
M  V30 73 H 0.196437 -3.538994 -1.518048 0
M  V30 74 H 2.426455 -3.858265 -3.227015 0
M  V30 75 H 3.613808 -1.992083 -1.920246 0
M  V30 76 H 2.808764 -5.001445 1.463256 0
M  V30 77 H 3.783275 -4.202848 0.251214 0
M  V30 78 H 2.926313 -5.637469 -0.272452 0
M  V30 79 H 0.288809 1.895507 2.281071 0
M  V30 END ATOM
M  V30 BEGIN BOND
M  V30 1 2 1 2
M  V30 2 1 2 3
M  V30 3 2 3 4
M  V30 4 1 3 5
M  V30 5 1 5 6
M  V30 6 1 6 7
M  V30 7 1 7 8
M  V30 8 1 8 9
M  V30 9 1 8 10
M  V30 10 1 10 11
M  V30 11 2 11 12
M  V30 12 1 12 13
M  V30 13 2 13 14
M  V30 14 1 13 15
M  V30 15 1 15 16 CFG=1
M  V30 16 1 15 17
M  V30 17 1 17 18
M  V30 18 1 18 19
M  V30 19 2 19 20
M  V30 20 1 19 21
M  V30 21 1 21 22
M  V30 22 2 22 23
M  V30 23 1 22 24
M  V30 24 1 24 25
M  V30 25 1 25 26
M  V30 26 1 26 27
M  V30 27 2 27 28
M  V30 28 1 27 29
M  V30 29 2 29 30
M  V30 30 1 29 31
M  V30 31 1 31 32
M  V30 32 1 32 33
M  V30 33 1 33 34
M  V30 34 1 34 35
M  V30 35 1 34 36
M  V30 36 1 36 37
M  V30 37 2 37 38
M  V30 38 1 38 39
M  V30 39 2 39 40
M  V30 40 1 39 41
M  V30 41 1 41 42 CFG=1
M  V30 42 1 17 43
M  V30 43 1 43 2
M  V30 44 1 43 6
M  V30 45 1 15 10
M  V30 46 1 41 25
M  V30 47 1 32 26
M  V30 48 1 41 36
M  V30 49 1 1 44
M  V30 50 1 1 45
M  V30 51 1 6 46 CFG=1
M  V30 52 1 7 47
M  V30 53 1 7 48
M  V30 54 1 8 49 CFG=1
M  V30 55 1 9 50
M  V30 56 1 9 51
M  V30 57 1 9 52
M  V30 58 1 10 53 CFG=3
M  V30 59 1 11 54
M  V30 60 1 12 55
M  V30 61 1 16 56
M  V30 62 1 16 57
M  V30 63 1 16 58
M  V30 64 1 17 59 CFG=1
M  V30 65 1 21 60
M  V30 66 1 21 61
M  V30 67 1 25 62 CFG=1
M  V30 68 1 26 63 CFG=1
M  V30 69 1 28 64
M  V30 70 1 28 65
M  V30 71 1 32 66 CFG=1
M  V30 72 1 33 67
M  V30 73 1 33 68
M  V30 74 1 34 69 CFG=3
M  V30 75 1 35 70
M  V30 76 1 35 71
M  V30 77 1 35 72
M  V30 78 1 36 73 CFG=1
M  V30 79 1 37 74
M  V30 80 1 38 75
M  V30 81 1 42 76
M  V30 82 1 42 77
M  V30 83 1 42 78
M  V30 84 1 43 79 CFG=1
M  V30 END BOND
M  V30 END CTAB
M  END
>  <Dataset>  (407) 
ChEMBL_Kinases

>  <Ligand_Instance>  (407) 
nan

>  <PDB_ID>  (407) 
nan

>  <Standardized_SMILES>  (407) 
C=C1C(=O)O[C@@H]2C[C@@H](C)[C@@H]3C=CC(=O)[C@@]3(C)[C@@H](OC(=O)CC(=O)O[C@H]3[C@@H]4C(=C)C(=O)O[C@@H]4C[C@@H](C)[C@@H]4C=CC(=O)[C@]43C)[C@H]12

>  <Name>  (407) 
nan

>  <Pocket>  (407) 
nan

>  <ATP_Site>  (407) 
nan

>  <Peripheral>  (407) 
nan

>  <Num_H_Atoms_ProtBoundConf>  (407) 
nan

>  <Num_Resolved_Atoms>  (407) 
nan

>  <Num_Not_Resolved_Atoms>  (407) 
nan

$$$$
CHEMBL1566648
     RDKit          3D

  0  0  0  0  0  0  0  0  0  0999 V3000
M  V30 BEGIN CTAB
M  V30 COUNTS 24 25 0 0 0
M  V30 BEGIN ATOM
M  V30 1 O -1.147468 0.105884 1.601486 0
M  V30 2 C 0.024883 0.286029 1.204281 0
M  V30 3 N 0.719658 -0.739260 0.528090 0
M  V30 4 C 0.237720 -2.035558 0.215458 0
M  V30 5 C 0.386290 -3.131778 1.070501 0
M  V30 6 C -0.105625 -4.384669 0.715730 0
M  V30 7 N -0.740330 -4.541993 -0.482118 0
M  V30 8 C -0.883938 -3.473956 -1.312883 0
M  V30 9 C -0.408814 -2.226529 -0.989139 0
M  V30 10 C 0.624952 1.590148 1.472861 0
M  V30 11 C -0.123257 2.538618 2.140357 0
M  V30 12 N 0.308530 3.780407 2.451725 0
M  V30 13 C 1.571154 4.155827 2.094631 0
M  V30 14 C 2.341857 3.213395 1.420519 0
M  V30 15 Br 4.111759 3.645900 0.883438 0
M  V30 16 C 1.906313 1.935323 1.096522 0
M  V30 17 H 1.698412 -0.602361 0.191226 0
M  V30 18 H 0.899200 -2.926038 1.998619 0
M  V30 19 H 0.045365 -5.196515 1.431416 0
M  V30 20 H -1.408744 -3.731073 -2.238907 0
M  V30 21 H -0.571950 -1.434743 -1.719094 0
M  V30 22 H -1.137672 2.394870 2.488733 0
M  V30 23 H 1.994547 5.141576 2.309668 0
M  V30 24 H 2.509298 1.228241 0.580891 0
M  V30 END ATOM
M  V30 BEGIN BOND
M  V30 1 2 1 2
M  V30 2 1 2 3
M  V30 3 1 3 4
M  V30 4 2 4 5
M  V30 5 1 5 6
M  V30 6 2 6 7
M  V30 7 1 7 8
M  V30 8 2 8 9
M  V30 9 1 2 10
M  V30 10 2 10 11
M  V30 11 1 11 12
M  V30 12 2 12 13
M  V30 13 1 13 14
M  V30 14 1 14 15
M  V30 15 2 14 16
M  V30 16 1 9 4
M  V30 17 1 16 10
M  V30 18 1 3 17
M  V30 19 1 5 18
M  V30 20 1 6 19
M  V30 21 1 8 20
M  V30 22 1 9 21
M  V30 23 1 11 22
M  V30 24 1 13 23
M  V30 25 1 16 24
M  V30 END BOND
M  V30 END CTAB
M  END
>  <Dataset>  (408) 
ChEMBL_Kinases

>  <Ligand_Instance>  (408) 
nan

>  <PDB_ID>  (408) 
nan

>  <Standardized_SMILES>  (408) 
O=C(Nc1ccncc1)c1cncc(Br)c1

>  <Name>  (408) 
nan

>  <Pocket>  (408) 
nan

>  <ATP_Site>  (408) 
nan

>  <Peripheral>  (408) 
nan

>  <Num_H_Atoms_ProtBoundConf>  (408) 
nan

>  <Num_Resolved_Atoms>  (408) 
nan

>  <Num_Not_Resolved_Atoms>  (408) 
nan

$$$$
CHEMBL1566667
     RDKit          3D

  0  0  0  0  0  0  0  0  0  0999 V3000
M  V30 BEGIN CTAB
M  V30 COUNTS 35 37 0 0 0
M  V30 BEGIN ATOM
M  V30 1 C 1.655211 -5.931789 2.828871 0
M  V30 2 C 2.241421 -5.480526 1.507637 0
M  V30 3 O 1.717930 -4.197324 1.228760 0
M  V30 4 C 2.056515 -3.487986 0.077403 0
M  V30 5 O 2.861630 -4.116655 -0.657186 0
M  V30 6 C 1.589216 -2.180218 -0.311984 0
M  V30 7 N 2.064521 -1.713010 -1.470910 0
M  V30 8 N 1.685384 -0.503474 -1.915275 0
M  V30 9 C 0.818875 0.234985 -1.178197 0
M  V30 10 C 0.275647 1.488732 -1.400226 0
M  V30 11 Br 0.568740 2.654226 -2.873947 0
M  V30 12 C -0.540654 1.727589 -0.310646 0
M  V30 13 C -1.349149 2.918211 -0.056829 0
M  V30 14 C -1.277673 3.412782 1.236577 0
M  V30 15 C -2.011458 4.549257 1.589416 0
M  V30 16 C -2.809629 5.169889 0.622858 0
M  V30 17 C -2.851238 4.641519 -0.657580 0
M  V30 18 C -2.129714 3.513907 -1.026731 0
M  V30 19 N -0.463038 0.649331 0.498916 0
M  V30 20 N 0.348545 -0.258749 -0.004219 0
M  V30 21 C 0.706505 -1.471638 0.476663 0
M  V30 22 C 0.222209 -2.042325 1.739346 0
M  V30 23 H 0.583285 -5.728257 2.941412 0
M  V30 24 H 2.209941 -5.517020 3.692184 0
M  V30 25 H 1.754194 -7.050939 2.906424 0
M  V30 26 H 3.326540 -5.496580 1.606234 0
M  V30 27 H 1.945070 -6.217563 0.714739 0
M  V30 28 H -0.666759 2.955450 2.015191 0
M  V30 29 H -2.021551 5.007579 2.565372 0
M  V30 30 H -3.398788 6.063776 0.865378 0
M  V30 31 H -3.452898 5.080588 -1.449288 0
M  V30 32 H -2.131363 3.074207 -1.996090 0
M  V30 33 H -0.281022 -3.018047 1.561540 0
M  V30 34 H 1.100717 -2.274451 2.405851 0
M  V30 35 H -0.452998 -1.326931 2.257627 0
M  V30 END ATOM
M  V30 BEGIN BOND
M  V30 1 1 1 2
M  V30 2 1 2 3
M  V30 3 1 3 4
M  V30 4 2 4 5
M  V30 5 1 4 6
M  V30 6 1 6 7
M  V30 7 2 7 8
M  V30 8 1 8 9
M  V30 9 2 9 10
M  V30 10 1 10 11
M  V30 11 1 10 12
M  V30 12 1 12 13
M  V30 13 2 13 14
M  V30 14 1 14 15
M  V30 15 2 15 16
M  V30 16 1 16 17
M  V30 17 2 17 18
M  V30 18 2 12 19
M  V30 19 1 19 20
M  V30 20 1 20 21
M  V30 21 1 21 22
M  V30 22 2 21 6
M  V30 23 1 20 9
M  V30 24 1 18 13
M  V30 25 1 1 23
M  V30 26 1 1 24
M  V30 27 1 1 25
M  V30 28 1 2 26
M  V30 29 1 2 27
M  V30 30 1 14 28
M  V30 31 1 15 29
M  V30 32 1 16 30
M  V30 33 1 17 31
M  V30 34 1 18 32
M  V30 35 1 22 33
M  V30 36 1 22 34
M  V30 37 1 22 35
M  V30 END BOND
M  V30 END CTAB
M  END
>  <Dataset>  (409) 
ChEMBL_Kinases

>  <Ligand_Instance>  (409) 
nan

>  <PDB_ID>  (409) 
nan

>  <Standardized_SMILES>  (409) 
CCOC(=O)c1nnc2c(Br)c(-c3ccccc3)nn2c1C

>  <Name>  (409) 
nan

>  <Pocket>  (409) 
nan

>  <ATP_Site>  (409) 
nan

>  <Peripheral>  (409) 
nan

>  <Num_H_Atoms_ProtBoundConf>  (409) 
nan

>  <Num_Resolved_Atoms>  (409) 
nan

>  <Num_Not_Resolved_Atoms>  (409) 
nan

$$$$
CHEMBL1566987
     RDKit          3D

  0  0  0  0  0  0  0  0  0  0999 V3000
M  V30 BEGIN CTAB
M  V30 COUNTS 29 30 0 0 0
M  V30 BEGIN ATOM
M  V30 1 Cl -3.824666 -2.923358 4.973802 0
M  V30 2 C -2.359088 -2.655577 4.033828 0
M  V30 3 C -1.971536 -1.339823 3.956264 0
M  V30 4 C -0.856624 -1.015761 3.257053 0
M  V30 5 C -0.040599 -1.888818 2.590927 0
M  V30 6 C 1.214485 -1.824671 1.773350 0
M  V30 7 S 0.758773 -2.077829 0.065316 0
M  V30 8 C -0.104798 -0.730373 -0.677247 0
M  V30 9 C 0.717108 0.436026 -0.998891 0
M  V30 10 C 1.185991 0.347474 -2.319097 0
M  V30 11 C 2.029319 1.249913 -2.956726 0
M  V30 12 C 2.466565 2.345997 -2.259693 0
M  V30 13 Cl 3.524688 3.570038 -2.912127 0
M  V30 14 C 2.039904 2.490275 -0.957307 0
M  V30 15 C 1.217561 1.555509 -0.426397 0
M  V30 16 Cl 0.633828 1.784910 1.201753 0
M  V30 17 C -0.460385 -3.227595 2.687564 0
M  V30 18 Cl 0.339742 -4.619055 1.962699 0
M  V30 19 C -1.603332 -3.607707 3.398917 0
M  V30 20 H -2.454807 -0.465192 4.400398 0
M  V30 21 H -0.467747 -0.021359 3.148286 0
M  V30 22 H 1.929964 -2.620955 2.134198 0
M  V30 23 H 1.669222 -0.842083 1.936929 0
M  V30 24 H -0.902586 -0.327840 0.032490 0
M  V30 25 H -0.654010 -1.090646 -1.577382 0
M  V30 26 H 0.942746 -0.456225 -3.021710 0
M  V30 27 H 2.384421 1.179314 -3.959203 0
M  V30 28 H 2.339793 3.321585 -0.348958 0
M  V30 29 H -1.971033 -4.598573 3.509657 0
M  V30 END ATOM
M  V30 BEGIN BOND
M  V30 1 1 1 2
M  V30 2 2 2 3
M  V30 3 1 3 4
M  V30 4 2 4 5
M  V30 5 1 5 6
M  V30 6 1 6 7
M  V30 7 1 7 8
M  V30 8 1 8 9
M  V30 9 2 9 10
M  V30 10 1 10 11
M  V30 11 2 11 12
M  V30 12 1 12 13
M  V30 13 1 12 14
M  V30 14 2 14 15
M  V30 15 1 15 16
M  V30 16 1 5 17
M  V30 17 1 17 18
M  V30 18 2 17 19
M  V30 19 1 19 2
M  V30 20 1 15 9
M  V30 21 1 3 20
M  V30 22 1 4 21
M  V30 23 1 6 22
M  V30 24 1 6 23
M  V30 25 1 8 24
M  V30 26 1 8 25
M  V30 27 1 10 26
M  V30 28 1 11 27
M  V30 29 1 14 28
M  V30 30 1 19 29
M  V30 END BOND
M  V30 END CTAB
M  END
>  <Dataset>  (410) 
ChEMBL_Kinases

>  <Ligand_Instance>  (410) 
nan

>  <PDB_ID>  (410) 
nan

>  <Standardized_SMILES>  (410) 
Clc1ccc(CSCc2ccc(Cl)cc2Cl)c(Cl)c1

>  <Name>  (410) 
nan

>  <Pocket>  (410) 
nan

>  <ATP_Site>  (410) 
nan

>  <Peripheral>  (410) 
nan

>  <Num_H_Atoms_ProtBoundConf>  (410) 
nan

>  <Num_Resolved_Atoms>  (410) 
nan

>  <Num_Not_Resolved_Atoms>  (410) 
nan

$$$$
CHEMBL1567042
     RDKit          3D

  0  0  0  0  0  0  0  0  0  0999 V3000
M  V30 BEGIN CTAB
M  V30 COUNTS 60 63 0 0 0
M  V30 BEGIN ATOM
M  V30 1 C 2.760735 -1.477792 6.327622 0
M  V30 2 C 3.264275 -1.453549 4.908033 0
M  V30 3 C 2.493297 -0.407478 4.135909 0
M  V30 4 C 2.938928 -0.317573 2.693620 0
M  V30 5 N 2.117402 0.724461 2.069471 0
M  V30 6 C 2.355642 0.992953 0.691904 0
M  V30 7 O 3.221059 0.399556 -0.039146 0
M  V30 8 C 1.552508 2.030742 0.053352 0
M  V30 9 C 2.066462 2.363837 -1.304932 0
M  V30 10 N 2.450882 2.621529 -2.370260 0
M  V30 11 C 0.108270 1.894488 0.068390 0
M  V30 12 N -0.652574 2.974372 0.391144 0
M  V30 13 C -1.987247 2.955838 0.420919 0
M  V30 14 C -2.654054 4.134507 0.768889 0
M  V30 15 C -4.052784 4.113035 0.799439 0
M  V30 16 C -4.757106 2.966641 0.496376 0
M  V30 17 C -4.078229 1.813903 0.155352 0
M  V30 18 C -2.702225 1.817196 0.120325 0
M  V30 19 N -1.964100 0.735778 -0.202120 0
M  V30 20 C -0.597348 0.759106 -0.231034 0
M  V30 21 N -0.024509 -0.493460 -0.572226 0
M  V30 22 C 0.698897 -1.594231 0.095147 0
M  V30 23 C -0.097578 -2.889260 -0.167450 0
M  V30 24 N -0.334885 -2.968577 -1.594169 0
M  V30 25 C -1.113251 -4.023783 -2.144110 0
M  V30 26 C -2.297651 -3.912498 -2.877338 0
M  V30 27 C -2.929235 -5.033590 -3.339536 0
M  V30 28 C -2.455306 -6.313968 -3.120715 0
M  V30 29 C -1.280903 -6.425514 -2.393738 0
M  V30 30 C -0.606170 -5.302478 -1.904424 0
M  V30 31 F 0.540414 -5.552096 -1.203262 0
M  V30 32 C 0.232415 -1.953661 -2.473071 0
M  V30 33 C -0.271168 -0.623008 -1.998501 0
M  V30 34 H 2.865050 -2.512237 6.714870 0
M  V30 35 H 3.345953 -0.800800 6.983334 0
M  V30 36 H 1.679514 -1.229536 6.336265 0
M  V30 37 H 4.324018 -1.129763 4.933471 0
M  V30 38 H 3.177716 -2.457405 4.452494 0
M  V30 39 H 2.767401 0.575733 4.608244 0
M  V30 40 H 1.397285 -0.489499 4.247954 0
M  V30 41 H 4.007530 0.037699 2.743036 0
M  V30 42 H 2.882678 -1.259826 2.152334 0
M  V30 43 H 1.386510 1.259137 2.585917 0
M  V30 44 H 1.802587 2.979242 0.623500 0
M  V30 45 H -2.123061 5.062185 1.015219 0
M  V30 46 H -4.527682 5.060742 1.077668 0
M  V30 47 H -5.844708 2.988346 0.530779 0
M  V30 48 H -4.586391 0.893603 -0.089426 0
M  V30 49 H 1.668584 -1.787361 -0.396380 0
M  V30 50 H 0.716084 -1.492434 1.178057 0
M  V30 51 H 0.442319 -3.730185 0.260063 0
M  V30 52 H -1.097968 -2.810261 0.344155 0
M  V30 53 H -2.630338 -2.894507 -3.023792 0
M  V30 54 H -3.853384 -4.896563 -3.908631 0
M  V30 55 H -2.945647 -7.198980 -3.480484 0
M  V30 56 H -0.881797 -7.420345 -2.204223 0
M  V30 57 H -0.006715 -2.155963 -3.534285 0
M  V30 58 H 1.341297 -2.061503 -2.383207 0
M  V30 59 H -1.388700 -0.653549 -2.160012 0
M  V30 60 H 0.093673 0.223640 -2.601912 0
M  V30 END ATOM
M  V30 BEGIN BOND
M  V30 1 1 1 2
M  V30 2 1 2 3
M  V30 3 1 3 4
M  V30 4 1 4 5
M  V30 5 1 5 6
M  V30 6 2 6 7
M  V30 7 1 6 8
M  V30 8 1 8 9
M  V30 9 3 9 10
M  V30 10 1 8 11
M  V30 11 2 11 12
M  V30 12 1 12 13
M  V30 13 2 13 14
M  V30 14 1 14 15
M  V30 15 2 15 16
M  V30 16 1 16 17
M  V30 17 2 17 18
M  V30 18 1 18 19
M  V30 19 2 19 20
M  V30 20 1 20 21
M  V30 21 1 21 22
M  V30 22 1 22 23
M  V30 23 1 23 24
M  V30 24 1 24 25
M  V30 25 2 25 26
M  V30 26 1 26 27
M  V30 27 2 27 28
M  V30 28 1 28 29
M  V30 29 2 29 30
M  V30 30 1 30 31
M  V30 31 1 24 32
M  V30 32 1 32 33
M  V30 33 1 20 11
M  V30 34 1 33 21
M  V30 35 1 18 13
M  V30 36 1 30 25
M  V30 37 1 1 34
M  V30 38 1 1 35
M  V30 39 1 1 36
M  V30 40 1 2 37
M  V30 41 1 2 38
M  V30 42 1 3 39
M  V30 43 1 3 40
M  V30 44 1 4 41
M  V30 45 1 4 42
M  V30 46 1 5 43
M  V30 47 1 8 44
M  V30 48 1 14 45
M  V30 49 1 15 46
M  V30 50 1 16 47
M  V30 51 1 17 48
M  V30 52 1 22 49
M  V30 53 1 22 50
M  V30 54 1 23 51
M  V30 55 1 23 52
M  V30 56 1 26 53
M  V30 57 1 27 54
M  V30 58 1 28 55
M  V30 59 1 29 56
M  V30 60 1 32 57
M  V30 61 1 32 58
M  V30 62 1 33 59
M  V30 63 1 33 60
M  V30 END BOND
M  V30 END CTAB
M  END
>  <Dataset>  (411) 
ChEMBL_Kinases

>  <Ligand_Instance>  (411) 
nan

>  <PDB_ID>  (411) 
nan

>  <Standardized_SMILES>  (411) 
CCCCNC(=O)C(C#N)c1nc2ccccc2nc1N1CCN(c2ccccc2F)CC1

>  <Name>  (411) 
nan

>  <Pocket>  (411) 
nan

>  <ATP_Site>  (411) 
nan

>  <Peripheral>  (411) 
nan

>  <Num_H_Atoms_ProtBoundConf>  (411) 
nan

>  <Num_Resolved_Atoms>  (411) 
nan

>  <Num_Not_Resolved_Atoms>  (411) 
nan

$$$$
CHEMBL1567100
     RDKit          3D

  0  0  0  0  0  0  0  0  0  0999 V3000
M  V30 BEGIN CTAB
M  V30 COUNTS 54 58 0 0 0
M  V30 BEGIN ATOM
M  V30 1 C -1.106080 -0.773865 1.174188 0
M  V30 2 N -1.079816 -1.725427 2.243291 0
M  V30 3 C -0.367277 -1.702381 3.397385 0
M  V30 4 S 0.835910 -0.440921 3.858123 0
M  V30 5 C 2.462890 -1.021523 3.286013 0
M  V30 6 C 2.536875 -1.122418 1.813219 0
M  V30 7 O 1.808838 -2.125294 1.477611 0
M  V30 8 N 3.246525 -0.320460 0.838629 0
M  V30 9 C 4.161429 0.831196 0.851347 0
M  V30 10 C 3.731448 1.769341 -0.246524 0
M  V30 11 N 2.310317 1.607572 -0.450363 0
M  V30 12 C 1.335135 2.534925 0.005279 0
M  V30 13 C 1.822313 3.566756 0.754747 0
M  V30 14 C 0.957135 4.548041 1.254843 0
M  V30 15 C -0.420634 4.500971 1.004087 0
M  V30 16 C -0.888330 3.427685 0.232030 0
M  V30 17 C -0.013338 2.448729 -0.266140 0
M  V30 18 C 2.068664 0.344704 -1.178914 0
M  V30 19 C 3.001700 -0.719867 -0.543736 0
M  V30 20 N -0.709805 -2.807114 4.085396 0
M  V30 21 N -1.614427 -3.490252 3.358712 0
M  V30 22 C -1.866133 -2.834384 2.196645 0
M  V30 23 C -2.785705 -3.305240 1.165437 0
M  V30 24 C -2.233567 -4.277471 0.327790 0
M  V30 25 C -3.224544 -4.617719 -0.589420 0
M  V30 26 C -3.335057 -5.492500 -1.662468 0
M  V30 27 C -4.514351 -5.558573 -2.361261 0
M  V30 28 C -5.607017 -4.774151 -2.027940 0
M  V30 29 C -5.534871 -3.885683 -0.959115 0
M  V30 30 C -4.327956 -3.823508 -0.249798 0
M  V30 31 O -3.999624 -3.077430 0.789676 0
M  V30 32 H -1.299024 -1.154857 0.176577 0
M  V30 33 H -1.977825 -0.082588 1.388909 0
M  V30 34 H -0.203482 -0.092041 1.239612 0
M  V30 35 H 3.243241 -0.303027 3.667234 0
M  V30 36 H 2.659828 -2.000767 3.752218 0
M  V30 37 H 5.220610 0.492403 0.704033 0
M  V30 38 H 4.097011 1.307972 1.868791 0
M  V30 39 H 4.256042 1.412422 -1.169876 0
M  V30 40 H 4.049133 2.824537 -0.062984 0
M  V30 41 H 2.804229 3.808317 1.077251 0
M  V30 42 H 1.219201 5.407169 1.854477 0
M  V30 43 H -1.123524 5.234511 1.365256 0
M  V30 44 H -1.947343 3.376358 0.027013 0
M  V30 45 H -0.332952 1.626170 -0.853022 0
M  V30 46 H 1.049527 -0.008246 -1.105186 0
M  V30 47 H 2.324114 0.510535 -2.241556 0
M  V30 48 H 2.522854 -1.680991 -0.605559 0
M  V30 49 H 3.907661 -0.707031 -1.177307 0
M  V30 50 H -1.255951 -4.782854 0.257582 0
M  V30 51 H -2.474349 -6.101955 -1.918943 0
M  V30 52 H -4.636458 -6.224044 -3.201643 0
M  V30 53 H -6.526926 -4.821597 -2.568619 0
M  V30 54 H -6.335308 -3.247590 -0.644323 0
M  V30 END ATOM
M  V30 BEGIN BOND
M  V30 1 1 1 2
M  V30 2 1 2 3
M  V30 3 1 3 4
M  V30 4 1 4 5
M  V30 5 1 5 6
M  V30 6 2 6 7
M  V30 7 1 6 8
M  V30 8 1 8 9
M  V30 9 1 9 10
M  V30 10 1 10 11
M  V30 11 1 11 12
M  V30 12 2 12 13
M  V30 13 1 13 14
M  V30 14 2 14 15
M  V30 15 1 15 16
M  V30 16 2 16 17
M  V30 17 1 11 18
M  V30 18 1 18 19
M  V30 19 2 3 20
M  V30 20 1 20 21
M  V30 21 2 21 22
M  V30 22 1 22 23
M  V30 23 2 23 24
M  V30 24 1 24 25
M  V30 25 2 25 26
M  V30 26 1 26 27
M  V30 27 2 27 28
M  V30 28 1 28 29
M  V30 29 2 29 30
M  V30 30 1 30 31
M  V30 31 1 22 2
M  V30 32 1 31 23
M  V30 33 1 19 8
M  V30 34 1 30 25
M  V30 35 1 17 12
M  V30 36 1 1 32
M  V30 37 1 1 33
M  V30 38 1 1 34
M  V30 39 1 5 35
M  V30 40 1 5 36
M  V30 41 1 9 37
M  V30 42 1 9 38
M  V30 43 1 10 39
M  V30 44 1 10 40
M  V30 45 1 13 41
M  V30 46 1 14 42
M  V30 47 1 15 43
M  V30 48 1 16 44
M  V30 49 1 17 45
M  V30 50 1 18 46
M  V30 51 1 18 47
M  V30 52 1 19 48
M  V30 53 1 19 49
M  V30 54 1 24 50
M  V30 55 1 26 51
M  V30 56 1 27 52
M  V30 57 1 28 53
M  V30 58 1 29 54
M  V30 END BOND
M  V30 END CTAB
M  END
>  <Dataset>  (412) 
ChEMBL_Kinases

>  <Ligand_Instance>  (412) 
nan

>  <PDB_ID>  (412) 
nan

>  <Standardized_SMILES>  (412) 
Cn1c(SCC(=O)N2CCN(c3ccccc3)CC2)nnc1-c1cc2ccccc2o1

>  <Name>  (412) 
nan

>  <Pocket>  (412) 
nan

>  <ATP_Site>  (412) 
nan

>  <Peripheral>  (412) 
nan

>  <Num_H_Atoms_ProtBoundConf>  (412) 
nan

>  <Num_Resolved_Atoms>  (412) 
nan

>  <Num_Not_Resolved_Atoms>  (412) 
nan

$$$$
CHEMBL1567411
     RDKit          3D

  0  0  0  0  0  0  0  0  0  0999 V3000
M  V30 BEGIN CTAB
M  V30 COUNTS 52 53 0 0 0
M  V30 BEGIN ATOM
M  V30 1 C 0.716376 -3.389903 4.732672 0
M  V30 2 C 1.419842 -4.154599 3.638440 0
M  V30 3 O 0.941170 -3.682325 2.392787 0
M  V30 4 C 1.100275 -2.345864 2.053253 0
M  V30 5 O 1.649286 -1.493892 2.778740 0
M  V30 6 O 0.565446 -2.062637 0.784806 0
M  V30 7 C 0.645719 -0.721956 0.277252 0
M  V30 8 C 0.013760 -0.633590 -1.097219 0
M  V30 9 O 0.075851 0.624208 -1.601215 0
M  V30 10 C -0.829978 1.538391 -1.148790 0
M  V30 11 C -0.405199 2.248618 0.081668 0
M  V30 12 C -1.112395 2.535138 1.231345 0
M  V30 13 C -0.488504 3.216676 2.251281 0
M  V30 14 C 0.824850 3.620562 2.154041 0
M  V30 15 C 1.393783 4.328261 3.271834 0
M  V30 16 C 2.797114 4.826335 3.312772 0
M  V30 17 O 0.686659 4.554135 4.289425 0
M  V30 18 C 1.546346 3.346025 1.019825 0
M  V30 19 C 0.915832 2.653884 -0.018275 0
M  V30 20 C -2.179224 0.962144 -0.883462 0
M  V30 21 C -2.448078 -0.359883 -0.843122 0
M  V30 22 C -1.332323 -1.279435 -1.077026 0
M  V30 23 O -1.552276 -1.974488 -2.294158 0
M  V30 24 C -1.721271 -3.343213 -2.321205 0
M  V30 25 O -1.673257 -3.954027 -1.226003 0
M  V30 26 O -1.937966 -4.104773 -3.436672 0
M  V30 27 C -2.103690 -5.510609 -3.394044 0
M  V30 28 C -0.839787 -6.092522 -2.800446 0
M  V30 29 H 0.882653 -3.953409 5.681317 0
M  V30 30 H -0.362899 -3.341305 4.484808 0
M  V30 31 H 1.092367 -2.361402 4.877784 0
M  V30 32 H 1.150001 -5.222842 3.762758 0
M  V30 33 H 2.525454 -3.996943 3.700465 0
M  V30 34 H 1.722806 -0.510143 0.151950 0
M  V30 35 H 0.155900 -0.065443 1.019327 0
M  V30 36 H 0.670697 -1.268753 -1.741075 0
M  V30 37 H -0.968004 2.306753 -1.939383 0
M  V30 38 H -2.127154 2.168638 1.187957 0
M  V30 39 H -1.140176 3.388885 3.110780 0
M  V30 40 H 2.840969 5.884590 2.992177 0
M  V30 41 H 3.159177 4.797417 4.368248 0
M  V30 42 H 3.495156 4.171896 2.738157 0
M  V30 43 H 2.577591 3.680559 0.981357 0
M  V30 44 H 1.597580 2.498280 -0.863980 0
M  V30 45 H -2.983522 1.680829 -0.714273 0
M  V30 46 H -3.424105 -0.744824 -0.650841 0
M  V30 47 H -1.336552 -2.057294 -0.268589 0
M  V30 48 H -2.274884 -5.906183 -4.401476 0
M  V30 49 H -2.971809 -5.742355 -2.719961 0
M  V30 50 H -0.657944 -7.121826 -3.179065 0
M  V30 51 H -0.930449 -6.121196 -1.690762 0
M  V30 52 H 0.003126 -5.411133 -3.032494 0
M  V30 END ATOM
M  V30 BEGIN BOND
M  V30 1 1 1 2
M  V30 2 1 2 3
M  V30 3 1 3 4
M  V30 4 2 4 5
M  V30 5 1 4 6
M  V30 6 1 6 7
M  V30 7 1 7 8
M  V30 8 1 8 9
M  V30 9 1 9 10
M  V30 10 1 10 11
M  V30 11 2 11 12
M  V30 12 1 12 13
M  V30 13 2 13 14
M  V30 14 1 14 15
M  V30 15 1 15 16
M  V30 16 2 15 17
M  V30 17 1 14 18
M  V30 18 2 18 19
M  V30 19 1 10 20
M  V30 20 2 20 21
M  V30 21 1 21 22
M  V30 22 1 22 23
M  V30 23 1 23 24
M  V30 24 2 24 25
M  V30 25 1 24 26
M  V30 26 1 26 27
M  V30 27 1 27 28
M  V30 28 1 22 8
M  V30 29 1 19 11
M  V30 30 1 1 29
M  V30 31 1 1 30
M  V30 32 1 1 31
M  V30 33 1 2 32
M  V30 34 1 2 33
M  V30 35 1 7 34
M  V30 36 1 7 35
M  V30 37 1 8 36
M  V30 38 1 10 37
M  V30 39 1 12 38
M  V30 40 1 13 39
M  V30 41 1 16 40
M  V30 42 1 16 41
M  V30 43 1 16 42
M  V30 44 1 18 43
M  V30 45 1 19 44
M  V30 46 1 20 45
M  V30 47 1 21 46
M  V30 48 1 22 47
M  V30 49 1 27 48
M  V30 50 1 27 49
M  V30 51 1 28 50
M  V30 52 1 28 51
M  V30 53 1 28 52
M  V30 END BOND
M  V30 END CTAB
M  END
>  <Dataset>  (413) 
ChEMBL_Kinases

>  <Ligand_Instance>  (413) 
nan

>  <PDB_ID>  (413) 
nan

>  <Standardized_SMILES>  (413) 
CCOC(=O)OCC1OC(c2ccc(C(C)=O)cc2)C=CC1OC(=O)OCC

>  <Name>  (413) 
nan

>  <Pocket>  (413) 
nan

>  <ATP_Site>  (413) 
nan

>  <Peripheral>  (413) 
nan

>  <Num_H_Atoms_ProtBoundConf>  (413) 
nan

>  <Num_Resolved_Atoms>  (413) 
nan

>  <Num_Not_Resolved_Atoms>  (413) 
nan

$$$$
CHEMBL1567471
     RDKit          3D

  0  0  0  0  0  0  0  0  0  0999 V3000
M  V30 BEGIN CTAB
M  V30 COUNTS 43 44 0 0 0
M  V30 BEGIN ATOM
M  V30 1 O 2.217409 0.065383 5.051826 0
M  V30 2 C 2.921619 -0.713944 4.382604 0
M  V30 3 O 3.228556 -1.883463 5.057671 0
M  V30 4 C 3.397266 -0.475362 3.038759 0
M  V30 5 C 4.188566 -1.381830 2.329803 0
M  V30 6 C 4.608328 -1.092455 1.042543 0
M  V30 7 C 4.275087 0.081864 0.404389 0
M  V30 8 C 3.491243 1.014964 1.064424 0
M  V30 9 N 3.036733 2.275558 0.579062 0
M  V30 10 C 1.820715 2.678087 -0.092284 0
M  V30 11 S 2.026492 4.429040 -0.496493 0
M  V30 12 N 1.115497 1.601110 -0.107552 0
M  V30 13 C -0.190715 1.461228 -0.665275 0
M  V30 14 N -0.728045 0.112059 -0.459169 0
M  V30 15 C -1.856619 -0.279524 0.299844 0
M  V30 16 O -2.468404 0.665296 0.867023 0
M  V30 17 C -2.217914 -1.687905 0.370480 0
M  V30 18 C -1.593660 -2.755107 -0.238045 0
M  V30 19 C -2.042618 -4.047239 -0.086045 0
M  V30 20 C -3.150201 -4.296909 0.696663 0
M  V30 21 C -3.813409 -3.247054 1.331951 0
M  V30 22 N -4.950486 -3.563403 2.126984 0 CHG=1 VAL=4
M  V30 23 O -5.518437 -2.594001 2.683483 0
M  V30 24 O -5.419709 -4.844078 2.293265 0 CHG=-1 VAL=1
M  V30 25 C -3.336899 -1.955169 1.159439 0
M  V30 26 C -0.292592 1.710784 -2.142976 0
M  V30 27 Cl 0.187400 3.310855 -2.663440 0
M  V30 28 Cl 0.561920 0.439759 -3.056372 0
M  V30 29 Cl -2.034434 1.526046 -2.549444 0
M  V30 30 C 3.086918 0.684725 2.365237 0
M  V30 31 H 2.525141 -2.396700 5.604882 0
M  V30 32 H 4.454889 -2.305715 2.821498 0
M  V30 33 H 5.221910 -1.788822 0.485789 0
M  V30 34 H 4.567115 0.371997 -0.595903 0
M  V30 35 H 3.914399 2.792256 0.892938 0
M  V30 36 H 2.776059 4.484348 -1.711306 0
M  V30 37 H -0.840614 2.212782 -0.136729 0
M  V30 38 H -0.105583 -0.562125 -0.997618 0
M  V30 39 H -0.734965 -2.493960 -0.835429 0
M  V30 40 H -1.463217 -4.790653 -0.617176 0
M  V30 41 H -3.453562 -5.338934 0.776473 0
M  V30 42 H -3.906587 -1.186880 1.686989 0
M  V30 43 H 2.470377 1.383712 2.926029 0
M  V30 END ATOM
M  V30 BEGIN BOND
M  V30 1 2 1 2
M  V30 2 1 2 3
M  V30 3 1 2 4
M  V30 4 2 4 5
M  V30 5 1 5 6
M  V30 6 2 6 7
M  V30 7 1 7 8
M  V30 8 1 8 9
M  V30 9 1 9 10
M  V30 10 1 10 11
M  V30 11 2 10 12 CFG=2
M  V30 12 1 12 13
M  V30 13 1 13 14
M  V30 14 1 14 15
M  V30 15 2 15 16
M  V30 16 1 15 17
M  V30 17 2 17 18
M  V30 18 1 18 19
M  V30 19 2 19 20
M  V30 20 1 20 21
M  V30 21 1 21 22
M  V30 22 2 22 23
M  V30 23 1 22 24
M  V30 24 2 21 25
M  V30 25 1 13 26
M  V30 26 1 26 27
M  V30 27 1 26 28
M  V30 28 1 26 29
M  V30 29 2 8 30
M  V30 30 1 30 4
M  V30 31 1 25 17
M  V30 32 1 3 31
M  V30 33 1 5 32
M  V30 34 1 6 33
M  V30 35 1 7 34
M  V30 36 1 9 35
M  V30 37 1 11 36
M  V30 38 1 13 37
M  V30 39 1 14 38
M  V30 40 1 18 39
M  V30 41 1 19 40
M  V30 42 1 20 41
M  V30 43 1 25 42
M  V30 44 1 30 43
M  V30 END BOND
M  V30 END CTAB
M  END
>  <Dataset>  (414) 
ChEMBL_Kinases

>  <Ligand_Instance>  (414) 
nan

>  <PDB_ID>  (414) 
nan

>  <Standardized_SMILES>  (414) 
O=C(O)c1cccc(NC(S)=NC(NC(=O)c2cccc([N+](=O)[O-])c2)C(Cl)(Cl)Cl)c1

>  <Name>  (414) 
nan

>  <Pocket>  (414) 
nan

>  <ATP_Site>  (414) 
nan

>  <Peripheral>  (414) 
nan

>  <Num_H_Atoms_ProtBoundConf>  (414) 
nan

>  <Num_Resolved_Atoms>  (414) 
nan

>  <Num_Not_Resolved_Atoms>  (414) 
nan

$$$$
CHEMBL1568483
     RDKit          3D

  0  0  0  0  0  0  0  0  0  0999 V3000
M  V30 BEGIN CTAB
M  V30 COUNTS 32 35 0 0 0
M  V30 BEGIN ATOM
M  V30 1 C -1.592975 -0.048978 4.908133 0
M  V30 2 C -0.843993 -0.420718 3.700161 0
M  V30 3 N 0.466704 -0.734554 3.742701 0
M  V30 4 N 1.151261 -1.072571 2.649707 0
M  V30 5 C 0.590691 -1.127435 1.420303 0
M  V30 6 N 1.391256 -1.497589 0.303135 0
M  V30 7 C 1.704311 -2.801327 0.195121 0
M  V30 8 N 2.460843 -2.959754 -0.914889 0
M  V30 9 C 2.617831 -1.745715 -1.499016 0
M  V30 10 C 3.271471 -1.263759 -2.633642 0
M  V30 11 C 3.195135 0.097482 -2.903323 0
M  V30 12 C 2.506848 0.992392 -2.106458 0
M  V30 13 C 1.846756 0.523816 -0.965781 0
M  V30 14 C 1.944387 -0.816622 -0.734511 0
M  V30 15 C -0.759992 -0.811646 1.327646 0
M  V30 16 C -1.367598 -0.855660 0.094123 0
M  V30 17 C -2.706685 -0.553508 -0.067668 0
M  V30 18 C -3.418509 -0.201369 1.073085 0
M  V30 19 C -2.815912 -0.153823 2.321375 0
M  V30 20 C -1.471212 -0.458623 2.475022 0
M  V30 21 H -0.919740 0.146067 5.765864 0
M  V30 22 H -2.287878 -0.873756 5.211954 0
M  V30 23 H -2.210200 0.846225 4.685353 0
M  V30 24 H 1.509874 -3.709243 0.749554 0
M  V30 25 H 3.805488 -1.968590 -3.248933 0
M  V30 26 H 3.725224 0.430643 -3.807105 0
M  V30 27 H 2.470549 2.056538 -2.352955 0
M  V30 28 H 1.300023 1.190325 -0.320217 0
M  V30 29 H -0.802200 -1.131855 -0.789495 0
M  V30 30 H -3.165768 -0.593991 -1.046020 0
M  V30 31 H -4.485777 0.043952 0.972959 0
M  V30 32 H -3.412328 0.129351 3.201191 0
M  V30 END ATOM
M  V30 BEGIN BOND
M  V30 1 1 1 2
M  V30 2 2 2 3
M  V30 3 1 3 4
M  V30 4 2 4 5
M  V30 5 1 5 6
M  V30 6 1 6 7
M  V30 7 2 7 8
M  V30 8 1 8 9
M  V30 9 2 9 10
M  V30 10 1 10 11
M  V30 11 2 11 12
M  V30 12 1 12 13
M  V30 13 2 13 14
M  V30 14 1 5 15
M  V30 15 2 15 16
M  V30 16 1 16 17
M  V30 17 2 17 18
M  V30 18 1 18 19
M  V30 19 2 19 20
M  V30 20 1 20 2
M  V30 21 1 14 6
M  V30 22 1 20 15
M  V30 23 1 14 9
M  V30 24 1 1 21
M  V30 25 1 1 22
M  V30 26 1 1 23
M  V30 27 1 7 24
M  V30 28 1 10 25
M  V30 29 1 11 26
M  V30 30 1 12 27
M  V30 31 1 13 28
M  V30 32 1 16 29
M  V30 33 1 17 30
M  V30 34 1 18 31
M  V30 35 1 19 32
M  V30 END BOND
M  V30 END CTAB
M  END
>  <Dataset>  (415) 
ChEMBL_Kinases

>  <Ligand_Instance>  (415) 
nan

>  <PDB_ID>  (415) 
nan

>  <Standardized_SMILES>  (415) 
Cc1nnc(-n2cnc3ccccc32)c2ccccc12

>  <Name>  (415) 
nan

>  <Pocket>  (415) 
nan

>  <ATP_Site>  (415) 
nan

>  <Peripheral>  (415) 
nan

>  <Num_H_Atoms_ProtBoundConf>  (415) 
nan

>  <Num_Resolved_Atoms>  (415) 
nan

>  <Num_Not_Resolved_Atoms>  (415) 
nan

$$$$
CHEMBL1567756
     RDKit          3D

  0  0  0  0  0  0  0  0  0  0999 V3000
M  V30 BEGIN CTAB
M  V30 COUNTS 49 51 0 0 0
M  V30 BEGIN ATOM
M  V30 1 C 3.074677 -2.592486 0.333756 0
M  V30 2 O 2.415450 -1.658900 1.127325 0
M  V30 3 C 1.143977 -1.755037 1.600394 0
M  V30 4 O 1.157543 -2.843242 0.986665 0
M  V30 5 C 0.179228 -1.038749 2.402079 0
M  V30 6 C 0.479449 0.128275 2.923100 0
M  V30 7 C 1.732309 0.879215 2.809159 0
M  V30 8 S 1.550132 2.511479 2.098170 0
M  V30 9 C 1.048770 2.555803 0.389471 0
M  V30 10 C 2.030567 2.040655 -0.575484 0
M  V30 11 C 2.191743 0.781547 -1.111217 0
M  V30 12 C 3.261217 0.811032 -1.970344 0
M  V30 13 C 3.695645 2.118539 -1.903370 0
M  V30 14 O 2.969920 2.834584 -1.083316 0
M  V30 15 N -0.521858 0.755211 3.712268 0
M  V30 16 C -1.795805 0.167933 3.943669 0
M  V30 17 O -2.741274 0.626295 4.613194 0
M  V30 18 N -1.996543 -1.097616 3.326775 0
M  V30 19 C -1.068251 -1.837133 2.471517 0
M  V30 20 C -1.707470 -1.986452 1.144552 0
M  V30 21 C -1.724081 -0.765962 0.459149 0
M  V30 22 C -2.268973 -0.651781 -0.804249 0
M  V30 23 C -2.309596 0.619014 -1.573443 0
M  V30 24 C -2.804186 -1.781386 -1.385732 0
M  V30 25 C -2.796873 -3.005601 -0.718790 0
M  V30 26 C -2.248955 -3.103106 0.542836 0
M  V30 27 C -2.174809 -4.312339 1.350731 0
M  V30 28 H 4.119048 -2.184304 0.189798 0
M  V30 29 H 3.244547 -3.571370 0.854063 0
M  V30 30 H 2.654896 -2.744135 -0.678100 0
M  V30 31 H 2.121846 0.988164 3.864294 0
M  V30 32 H 2.527280 0.333103 2.276510 0
M  V30 33 H 0.077839 2.028247 0.246646 0
M  V30 34 H 0.811965 3.623586 0.138311 0
M  V30 35 H 1.509672 0.015411 -0.808716 0
M  V30 36 H 3.610756 -0.044645 -2.528323 0
M  V30 37 H 4.543288 2.484360 -2.474943 0
M  V30 38 H -0.376902 1.687483 4.168829 0
M  V30 39 H -2.880975 -1.678335 3.417981 0
M  V30 40 H -0.847087 -2.765916 2.993512 0
M  V30 41 H -1.330294 0.183986 0.826618 0
M  V30 42 H -1.900465 1.462461 -0.996162 0
M  V30 43 H -3.342518 0.881072 -1.835472 0
M  V30 44 H -1.654998 0.472877 -2.466846 0
M  V30 45 H -3.240527 -1.706444 -2.388586 0
M  V30 46 H -3.210356 -3.893992 -1.158407 0
M  V30 47 H -2.202410 -4.182295 2.424579 0
M  V30 48 H -1.330199 -4.958395 0.972816 0
M  V30 49 H -3.083458 -4.938164 1.098332 0
M  V30 END ATOM
M  V30 BEGIN BOND
M  V30 1 1 1 2
M  V30 2 1 2 3
M  V30 3 2 3 4
M  V30 4 1 3 5
M  V30 5 2 5 6
M  V30 6 1 6 7
M  V30 7 1 7 8
M  V30 8 1 8 9
M  V30 9 1 9 10
M  V30 10 2 10 11
M  V30 11 1 11 12
M  V30 12 2 12 13
M  V30 13 1 13 14
M  V30 14 1 6 15
M  V30 15 1 15 16
M  V30 16 2 16 17
M  V30 17 1 16 18
M  V30 18 1 18 19
M  V30 19 1 19 20
M  V30 20 2 20 21
M  V30 21 1 21 22
M  V30 22 1 22 23
M  V30 23 2 22 24
M  V30 24 1 24 25
M  V30 25 2 25 26
M  V30 26 1 26 27
M  V30 27 1 19 5
M  V30 28 1 26 20
M  V30 29 1 14 10
M  V30 30 1 1 28
M  V30 31 1 1 29
M  V30 32 1 1 30
M  V30 33 1 7 31
M  V30 34 1 7 32
M  V30 35 1 9 33
M  V30 36 1 9 34
M  V30 37 1 11 35
M  V30 38 1 12 36
M  V30 39 1 13 37
M  V30 40 1 15 38
M  V30 41 1 18 39
M  V30 42 1 19 40
M  V30 43 1 21 41
M  V30 44 1 23 42
M  V30 45 1 23 43
M  V30 46 1 23 44
M  V30 47 1 24 45
M  V30 48 1 25 46
M  V30 49 1 27 47
M  V30 50 1 27 48
M  V30 51 1 27 49
M  V30 END BOND
M  V30 END CTAB
M  END
>  <Dataset>  (416) 
ChEMBL_Kinases

>  <Ligand_Instance>  (416) 
nan

>  <PDB_ID>  (416) 
nan

>  <Standardized_SMILES>  (416) 
COC(=O)C1=C(CSCc2ccco2)NC(=O)NC1c1cc(C)ccc1C

>  <Name>  (416) 
nan

>  <Pocket>  (416) 
nan

>  <ATP_Site>  (416) 
nan

>  <Peripheral>  (416) 
nan

>  <Num_H_Atoms_ProtBoundConf>  (416) 
nan

>  <Num_Resolved_Atoms>  (416) 
nan

>  <Num_Not_Resolved_Atoms>  (416) 
nan

$$$$
CHEMBL1567878
     RDKit          3D

  0  0  0  0  0  0  0  0  0  0999 V3000
M  V30 BEGIN CTAB
M  V30 COUNTS 41 44 0 0 0
M  V30 BEGIN ATOM
M  V30 1 C 0.027890 -6.354164 -0.315463 0
M  V30 2 C 0.666444 -5.027640 -0.106945 0
M  V30 3 C 1.329637 -4.370049 -1.120231 0
M  V30 4 C 1.892379 -3.131565 -0.817876 0
M  V30 5 C 1.831946 -2.520927 0.419664 0
M  V30 6 S 2.579499 -0.977004 0.648319 0
M  V30 7 O 3.837661 -0.833526 -0.184112 0
M  V30 8 O 3.007802 -0.870098 2.097960 0
M  V30 9 C 1.469115 0.315634 0.302384 0
M  V30 10 C 1.274572 0.924960 -0.929070 0
M  V30 11 N 1.948009 0.609134 -2.150838 0
M  V30 12 N 0.339345 1.887645 -0.835076 0
M  V30 13 C -0.200306 2.788753 -1.837719 0
M  V30 14 C -0.118304 1.957443 0.438120 0
M  V30 15 N -1.014727 2.682677 1.132242 0
M  V30 16 C -1.176818 2.425144 2.446373 0
M  V30 17 C -2.115372 3.194842 3.141336 0
M  V30 18 C -2.329399 2.978162 4.499227 0
M  V30 19 C -1.610461 1.995715 5.168302 0
M  V30 20 C -0.682482 1.231194 4.491859 0
M  V30 21 C -0.469229 1.443744 3.149087 0
M  V30 22 N 0.428197 0.715485 2.460972 0
M  V30 23 C 0.579812 0.982256 1.152607 0
M  V30 24 C 1.153378 -3.214189 1.421555 0
M  V30 25 C 0.595266 -4.442057 1.122412 0
M  V30 26 H -1.034128 -6.279669 -0.619022 0
M  V30 27 H 0.622649 -6.999306 -1.021137 0
M  V30 28 H 0.025197 -6.907168 0.654024 0
M  V30 29 H 1.408772 -4.799221 -2.108088 0
M  V30 30 H 2.412575 -2.625631 -1.629522 0
M  V30 31 H 1.520269 -0.113255 -2.780619 0
M  V30 32 H 2.816687 0.905170 -2.655416 0
M  V30 33 H 0.365704 3.753545 -1.884314 0
M  V30 34 H -1.258135 3.026067 -1.665606 0
M  V30 35 H -0.125278 2.311559 -2.843813 0
M  V30 36 H -2.675664 3.961740 2.616014 0
M  V30 37 H -3.055265 3.566643 5.057498 0
M  V30 38 H -1.785752 1.836212 6.225449 0
M  V30 39 H -0.136124 0.474922 5.029905 0
M  V30 40 H 1.112455 -2.725317 2.388280 0
M  V30 41 H 0.095016 -4.873910 1.996360 0
M  V30 END ATOM
M  V30 BEGIN BOND
M  V30 1 1 1 2
M  V30 2 2 2 3
M  V30 3 1 3 4
M  V30 4 2 4 5
M  V30 5 1 5 6
M  V30 6 2 6 7
M  V30 7 2 6 8
M  V30 8 1 6 9
M  V30 9 2 9 10
M  V30 10 1 10 11
M  V30 11 1 10 12
M  V30 12 1 12 13
M  V30 13 1 12 14
M  V30 14 2 14 15
M  V30 15 1 15 16
M  V30 16 2 16 17
M  V30 17 1 17 18
M  V30 18 2 18 19
M  V30 19 1 19 20
M  V30 20 2 20 21
M  V30 21 1 21 22
M  V30 22 2 22 23
M  V30 23 1 5 24
M  V30 24 2 24 25
M  V30 25 1 25 2
M  V30 26 1 23 9
M  V30 27 1 23 14
M  V30 28 1 21 16
M  V30 29 1 1 26
M  V30 30 1 1 27
M  V30 31 1 1 28
M  V30 32 1 3 29
M  V30 33 1 4 30
M  V30 34 1 11 31
M  V30 35 1 11 32
M  V30 36 1 13 33
M  V30 37 1 13 34
M  V30 38 1 13 35
M  V30 39 1 17 36
M  V30 40 1 18 37
M  V30 41 1 19 38
M  V30 42 1 20 39
M  V30 43 1 24 40
M  V30 44 1 25 41
M  V30 END BOND
M  V30 END CTAB
M  END
>  <Dataset>  (417) 
ChEMBL_Kinases

>  <Ligand_Instance>  (417) 
nan

>  <PDB_ID>  (417) 
nan

>  <Standardized_SMILES>  (417) 
Cc1ccc(S(=O)(=O)c2c(N)n(C)c3nc4ccccc4nc23)cc1

>  <Name>  (417) 
nan

>  <Pocket>  (417) 
nan

>  <ATP_Site>  (417) 
nan

>  <Peripheral>  (417) 
nan

>  <Num_H_Atoms_ProtBoundConf>  (417) 
nan

>  <Num_Resolved_Atoms>  (417) 
nan

>  <Num_Not_Resolved_Atoms>  (417) 
nan

$$$$
CHEMBL1567954
     RDKit          3D

  0  0  0  0  0  0  0  0  0  0999 V3000
M  V30 BEGIN CTAB
M  V30 COUNTS 56 58 0 0 0
M  V30 BEGIN ATOM
M  V30 1 C -4.000029 -2.355199 1.007503 0
M  V30 2 O -3.628390 -3.346292 0.077456 0
M  V30 3 C -2.569068 -3.263598 -0.775559 0
M  V30 4 C -1.736782 -2.163980 -0.803184 0
M  V30 5 C -0.664321 -2.070754 -1.661914 0
M  V30 6 C 0.229529 -0.921184 -1.715495 0
M  V30 7 O 1.196278 -0.787119 -2.497215 0
M  V30 8 N 0.066356 0.174669 -0.853284 0
M  V30 9 C 0.797788 1.416140 -0.704825 0 CFG=2
M  V30 10 C 1.387957 1.379074 0.648413 0
M  V30 11 O 1.016430 0.242575 1.104802 0
M  V30 12 N 2.169262 2.327049 1.317152 0
M  V30 13 C 2.638667 2.049778 2.665283 0
M  V30 14 N 1.933232 2.353951 3.697094 0
M  V30 15 N 2.367044 2.101974 4.876215 0
M  V30 16 C 3.398758 1.592273 5.179164 0
M  V30 17 C 4.249706 1.138688 6.314095 0
M  V30 18 C 3.920016 1.777951 7.660305 0
M  V30 19 C 3.491084 0.372266 7.447070 0
M  V30 20 S 4.110583 1.310458 3.441595 0
M  V30 21 C -0.146272 2.545215 -0.926887 0
M  V30 22 C -1.301694 2.537943 0.067021 0
M  V30 23 C -0.805515 2.350622 -2.296955 0
M  V30 24 C -0.382163 -3.103927 -2.544605 0
M  V30 25 C -1.205902 -4.225224 -2.537116 0
M  V30 26 O -1.056944 -5.320653 -3.345150 0
M  V30 27 C -0.055700 -5.511492 -4.316686 0
M  V30 28 C -2.287974 -4.287621 -1.651612 0
M  V30 29 O -3.127350 -5.392168 -1.619627 0
M  V30 30 C -4.283188 -5.539533 -2.386063 0
M  V30 31 H -4.327201 -1.435236 0.460334 0
M  V30 32 H -3.071170 -2.038759 1.539270 0
M  V30 33 H -4.713581 -2.710130 1.756258 0
M  V30 34 H -1.954681 -1.369328 -0.125369 0
M  V30 35 H -0.696275 0.216764 -0.136269 0
M  V30 36 H 1.606947 1.431593 -1.454045 0
M  V30 37 H 2.342421 3.168559 0.760778 0
M  V30 38 H 5.244338 0.726981 6.131216 0
M  V30 39 H 4.759152 1.956820 8.339605 0
M  V30 40 H 3.108088 2.547317 7.663462 0
M  V30 41 H 4.042452 -0.416622 7.977649 0
M  V30 42 H 2.428207 0.159226 7.215508 0
M  V30 43 H 0.277431 3.544327 -0.894038 0
M  V30 44 H -0.878809 2.333858 1.069782 0
M  V30 45 H -1.766057 3.546798 0.051222 0
M  V30 46 H -2.077460 1.823969 -0.207097 0
M  V30 47 H -1.167436 3.294228 -2.719031 0
M  V30 48 H -1.574137 1.549833 -2.235946 0
M  V30 49 H -0.023771 1.950919 -2.989661 0
M  V30 50 H 0.447427 -3.101090 -3.251831 0
M  V30 51 H 0.950769 -5.700954 -3.878465 0
M  V30 52 H 0.018541 -4.591167 -4.950382 0
M  V30 53 H -0.350021 -6.338177 -5.014443 0
M  V30 54 H -4.184193 -5.017005 -3.383382 0
M  V30 55 H -5.136410 -5.104621 -1.833781 0
M  V30 56 H -4.402461 -6.615849 -2.635488 0
M  V30 END ATOM
M  V30 BEGIN BOND
M  V30 1 1 1 2
M  V30 2 1 2 3
M  V30 3 2 3 4
M  V30 4 1 4 5
M  V30 5 1 5 6
M  V30 6 2 6 7
M  V30 7 1 6 8
M  V30 8 1 8 9
M  V30 9 1 9 10
M  V30 10 2 10 11
M  V30 11 1 10 12
M  V30 12 1 12 13
M  V30 13 2 13 14
M  V30 14 1 14 15
M  V30 15 2 15 16
M  V30 16 1 16 17
M  V30 17 1 17 18
M  V30 18 1 18 19
M  V30 19 1 16 20
M  V30 20 1 9 21
M  V30 21 1 21 22
M  V30 22 1 21 23
M  V30 23 2 5 24
M  V30 24 1 24 25
M  V30 25 1 25 26
M  V30 26 1 26 27
M  V30 27 2 25 28
M  V30 28 1 28 29
M  V30 29 1 29 30
M  V30 30 1 28 3
M  V30 31 1 20 13
M  V30 32 1 19 17
M  V30 33 1 1 31
M  V30 34 1 1 32
M  V30 35 1 1 33
M  V30 36 1 4 34
M  V30 37 1 8 35
M  V30 38 1 9 36 CFG=3
M  V30 39 1 12 37
M  V30 40 1 17 38
M  V30 41 1 18 39
M  V30 42 1 18 40
M  V30 43 1 19 41
M  V30 44 1 19 42
M  V30 45 1 21 43
M  V30 46 1 22 44
M  V30 47 1 22 45
M  V30 48 1 22 46
M  V30 49 1 23 47
M  V30 50 1 23 48
M  V30 51 1 23 49
M  V30 52 1 24 50
M  V30 53 1 27 51
M  V30 54 1 27 52
M  V30 55 1 27 53
M  V30 56 1 30 54
M  V30 57 1 30 55
M  V30 58 1 30 56
M  V30 END BOND
M  V30 END CTAB
M  END
>  <Dataset>  (418) 
ChEMBL_Kinases

>  <Ligand_Instance>  (418) 
nan

>  <PDB_ID>  (418) 
nan

>  <Standardized_SMILES>  (418) 
COc1cc(C(=O)N[C@H](C(=O)Nc2nnc(C3CC3)s2)C(C)C)cc(OC)c1OC

>  <Name>  (418) 
nan

>  <Pocket>  (418) 
nan

>  <ATP_Site>  (418) 
nan

>  <Peripheral>  (418) 
nan

>  <Num_H_Atoms_ProtBoundConf>  (418) 
nan

>  <Num_Resolved_Atoms>  (418) 
nan

>  <Num_Not_Resolved_Atoms>  (418) 
nan

$$$$
CHEMBL1568081
     RDKit          3D

  0  0  0  0  0  0  0  0  0  0999 V3000
M  V30 BEGIN CTAB
M  V30 COUNTS 35 36 0 0 0
M  V30 BEGIN ATOM
M  V30 1 C 0.467986 -5.957104 3.574333 0
M  V30 2 O 1.577510 -5.087401 3.337932 0
M  V30 3 C 1.411189 -3.836656 2.764423 0
M  V30 4 C 2.418769 -2.931888 2.498665 0
M  V30 5 C 2.164445 -1.700842 1.922118 0
M  V30 6 C 0.881270 -1.321136 1.585024 0
M  V30 7 C 0.548375 -0.039059 0.975955 0
M  V30 8 C 1.474395 0.930318 0.671160 0
M  V30 9 C 1.174185 2.146085 0.096261 0
M  V30 10 C 2.222413 3.158195 -0.211908 0
M  V30 11 F 2.804690 3.617533 0.959938 0
M  V30 12 F 3.165284 2.554515 -1.022112 0
M  V30 13 F 1.627042 4.216600 -0.869463 0
M  V30 14 N -0.125011 2.390842 -0.182595 0
M  V30 15 C -1.079050 1.457545 0.102652 0
M  V30 16 S -2.814230 1.689244 -0.227130 0
M  V30 17 C -3.178298 1.089453 -1.899560 0
M  V30 18 C -2.476775 1.965783 -2.898947 0
M  V30 19 N -1.628174 3.105999 -2.898220 0
M  V30 20 O -2.495820 1.856186 -4.166535 0
M  V30 21 N -0.729662 0.305473 0.655865 0
M  V30 22 C -0.171586 -2.191132 1.829481 0
M  V30 23 C 0.136101 -3.416376 2.410501 0
M  V30 24 H -0.083661 -6.190123 2.636923 0
M  V30 25 H 0.773529 -6.887301 4.046993 0
M  V30 26 H -0.279300 -5.416132 4.218985 0
M  V30 27 H 3.428132 -3.226291 2.762139 0
M  V30 28 H 2.977960 -1.027810 1.732186 0
M  V30 29 H 2.507511 0.760081 0.882273 0
M  V30 30 H -2.775875 0.056726 -2.082551 0
M  V30 31 H -4.259031 1.048848 -2.104480 0
M  V30 32 H -1.707296 4.129329 -2.682323 0
M  V30 33 H -2.170424 3.966348 -2.595002 0
M  V30 34 H -1.203299 -1.969926 1.595651 0
M  V30 35 H -0.689131 -4.117378 2.610657 0
M  V30 END ATOM
M  V30 BEGIN BOND
M  V30 1 1 1 2
M  V30 2 1 2 3
M  V30 3 2 3 4
M  V30 4 1 4 5
M  V30 5 2 5 6
M  V30 6 1 6 7
M  V30 7 2 7 8
M  V30 8 1 8 9
M  V30 9 1 9 10
M  V30 10 1 10 11
M  V30 11 1 10 12
M  V30 12 1 10 13
M  V30 13 2 9 14
M  V30 14 1 14 15
M  V30 15 1 15 16
M  V30 16 1 16 17
M  V30 17 1 17 18
M  V30 18 1 18 19
M  V30 19 2 18 20
M  V30 20 2 15 21
M  V30 21 1 6 22
M  V30 22 2 22 23
M  V30 23 1 23 3
M  V30 24 1 21 7
M  V30 25 1 1 24
M  V30 26 1 1 25
M  V30 27 1 1 26
M  V30 28 1 4 27
M  V30 29 1 5 28
M  V30 30 1 8 29
M  V30 31 1 17 30
M  V30 32 1 17 31
M  V30 33 1 19 32
M  V30 34 1 19 33
M  V30 35 1 22 34
M  V30 36 1 23 35
M  V30 END BOND
M  V30 END CTAB
M  END
>  <Dataset>  (419) 
ChEMBL_Kinases

>  <Ligand_Instance>  (419) 
nan

>  <PDB_ID>  (419) 
nan

>  <Standardized_SMILES>  (419) 
COc1ccc(-c2cc(C(F)(F)F)nc(SCC(N)=O)n2)cc1

>  <Name>  (419) 
nan

>  <Pocket>  (419) 
nan

>  <ATP_Site>  (419) 
nan

>  <Peripheral>  (419) 
nan

>  <Num_H_Atoms_ProtBoundConf>  (419) 
nan

>  <Num_Resolved_Atoms>  (419) 
nan

>  <Num_Not_Resolved_Atoms>  (419) 
nan

$$$$
CHEMBL1568250
     RDKit          3D

  0  0  0  0  0  0  0  0  0  0999 V3000
M  V30 BEGIN CTAB
M  V30 COUNTS 33 35 0 0 0
M  V30 BEGIN ATOM
M  V30 1 N 0.629996 -2.767812 5.280714 0
M  V30 2 C 0.900859 -2.985598 4.168891 0
M  V30 3 C 1.215610 -3.268004 2.781255 0
M  V30 4 C 1.662082 -4.493864 2.385290 0
M  V30 5 C 1.935612 -4.675976 1.057515 0
M  V30 6 C 1.750220 -3.631688 0.200520 0
M  V30 7 C 1.302205 -2.374623 0.545787 0
M  V30 8 C 1.143016 -1.341137 -0.470434 0
M  V30 9 N 1.471382 -1.656163 -1.750332 0
M  V30 10 C 1.366481 -0.783415 -2.763476 0
M  V30 11 C 0.901230 0.466079 -2.429115 0
M  V30 12 C 0.553795 0.835281 -1.141989 0
M  V30 13 N 0.093358 2.154418 -0.903736 0
M  V30 14 C -0.362530 2.712197 0.350183 0
M  V30 15 C -1.558258 2.042653 0.821624 0
M  V30 16 C -2.861319 2.334635 0.574607 0
M  V30 17 C -3.874040 1.592873 1.110034 0
M  V30 18 C -3.442828 0.487303 1.949436 0
M  V30 19 S -1.573737 0.648532 1.868142 0
M  V30 20 N 0.691422 -0.104936 -0.190632 0
M  V30 21 C 1.031079 -2.206716 1.887242 0
M  V30 22 H 1.796194 -5.296135 3.093411 0
M  V30 23 H 2.297289 -5.645584 0.693875 0
M  V30 24 H 1.985513 -3.834201 -0.855321 0
M  V30 25 H 1.629251 -1.036725 -3.784397 0
M  V30 26 H 0.812938 1.186040 -3.252877 0
M  V30 27 H 0.072149 2.828070 -1.725551 0
M  V30 28 H 0.501623 2.570057 1.066371 0
M  V30 29 H -0.538789 3.782852 0.291921 0
M  V30 30 H -3.103574 3.181586 -0.066938 0
M  V30 31 H -4.930900 1.756093 0.964970 0
M  V30 32 H -4.238655 -0.200227 2.448777 0
M  V30 33 H 0.682307 -1.257936 2.229340 0
M  V30 END ATOM
M  V30 BEGIN BOND
M  V30 1 3 1 2
M  V30 2 1 2 3
M  V30 3 2 3 4
M  V30 4 1 4 5
M  V30 5 2 5 6
M  V30 6 1 6 7
M  V30 7 1 7 8
M  V30 8 2 8 9
M  V30 9 1 9 10
M  V30 10 2 10 11
M  V30 11 1 11 12
M  V30 12 1 12 13
M  V30 13 1 13 14
M  V30 14 1 14 15
M  V30 15 2 15 16
M  V30 16 1 16 17
M  V30 17 2 17 18
M  V30 18 1 18 19
M  V30 19 2 12 20
M  V30 20 2 7 21
M  V30 21 1 21 3
M  V30 22 1 20 8
M  V30 23 1 19 15
M  V30 24 1 4 22
M  V30 25 1 5 23
M  V30 26 1 6 24
M  V30 27 1 10 25
M  V30 28 1 11 26
M  V30 29 1 13 27
M  V30 30 1 14 28
M  V30 31 1 14 29
M  V30 32 1 16 30
M  V30 33 1 17 31
M  V30 34 1 18 32
M  V30 35 1 21 33
M  V30 END BOND
M  V30 END CTAB
M  END
>  <Dataset>  (420) 
ChEMBL_Kinases

>  <Ligand_Instance>  (420) 
nan

>  <PDB_ID>  (420) 
nan

>  <Standardized_SMILES>  (420) 
N#Cc1cccc(-c2nccc(NCc3cccs3)n2)c1

>  <Name>  (420) 
nan

>  <Pocket>  (420) 
nan

>  <ATP_Site>  (420) 
nan

>  <Peripheral>  (420) 
nan

>  <Num_H_Atoms_ProtBoundConf>  (420) 
nan

>  <Num_Resolved_Atoms>  (420) 
nan

>  <Num_Not_Resolved_Atoms>  (420) 
nan

$$$$
CHEMBL1568261
     RDKit          3D

  0  0  0  0  0  0  0  0  0  0999 V3000
M  V30 BEGIN CTAB
M  V30 COUNTS 31 34 0 0 0
M  V30 BEGIN ATOM
M  V30 1 O -0.527476 -2.278595 -0.420526 0
M  V30 2 C 0.692161 -1.987037 -0.191669 0
M  V30 3 O 1.243949 -2.601296 0.828508 0
M  V30 4 C 2.503535 -2.206057 0.949822 0
M  V30 5 C 3.577351 -2.476765 1.799431 0
M  V30 6 C 4.781838 -1.845883 1.604689 0
M  V30 7 C 4.949107 -0.942741 0.576224 0
M  V30 8 C 3.911169 -0.638527 -0.297215 0
M  V30 9 C 2.697895 -1.298945 -0.070398 0
M  V30 10 N 1.580503 -1.147537 -0.794520 0
M  V30 11 C 1.200367 -0.358993 -1.947254 0
M  V30 12 S 0.551489 1.237143 -1.313446 0
M  V30 13 C -0.978297 0.890294 -0.413270 0
M  V30 14 N -1.141220 0.629708 0.719655 0
M  V30 15 C -2.283600 0.383572 1.337092 0
M  V30 16 C -2.467258 0.073945 2.687612 0
M  V30 17 C -3.749046 -0.149865 3.138751 0
M  V30 18 C -4.897108 -0.099042 2.377314 0
M  V30 19 C -4.724378 0.205283 1.045133 0
M  V30 20 C -3.435822 0.435042 0.570879 0
M  V30 21 S -2.787268 0.852132 -1.066079 0
M  V30 22 H 3.330671 -3.204782 2.574282 0
M  V30 23 H 5.531848 -2.139635 2.327083 0
M  V30 24 H 5.936385 -0.477356 0.480305 0
M  V30 25 H 4.045795 0.065873 -1.096775 0
M  V30 26 H 0.459486 -0.899901 -2.552564 0
M  V30 27 H 2.087162 -0.161936 -2.598768 0
M  V30 28 H -1.654855 -0.003959 3.421889 0
M  V30 29 H -3.892616 -0.393728 4.203890 0
M  V30 30 H -5.899438 -0.273129 2.729137 0
M  V30 31 H -5.487691 0.288403 0.306252 0
M  V30 END ATOM
M  V30 BEGIN BOND
M  V30 1 2 1 2
M  V30 2 1 2 3
M  V30 3 1 3 4
M  V30 4 2 4 5
M  V30 5 1 5 6
M  V30 6 2 6 7
M  V30 7 1 7 8
M  V30 8 2 8 9
M  V30 9 1 9 10
M  V30 10 1 10 11
M  V30 11 1 11 12
M  V30 12 1 12 13
M  V30 13 2 13 14
M  V30 14 1 14 15
M  V30 15 2 15 16
M  V30 16 1 16 17
M  V30 17 2 17 18
M  V30 18 1 18 19
M  V30 19 2 19 20
M  V30 20 1 20 21
M  V30 21 1 10 2
M  V30 22 1 21 13
M  V30 23 1 9 4
M  V30 24 1 20 15
M  V30 25 1 5 22
M  V30 26 1 6 23
M  V30 27 1 7 24
M  V30 28 1 8 25
M  V30 29 1 11 26
M  V30 30 1 11 27
M  V30 31 1 16 28
M  V30 32 1 17 29
M  V30 33 1 18 30
M  V30 34 1 19 31
M  V30 END BOND
M  V30 END CTAB
M  END
>  <Dataset>  (421) 
ChEMBL_Kinases

>  <Ligand_Instance>  (421) 
nan

>  <PDB_ID>  (421) 
nan

>  <Standardized_SMILES>  (421) 
O=c1oc2ccccc2n1CSc1nc2ccccc2s1

>  <Name>  (421) 
nan

>  <Pocket>  (421) 
nan

>  <ATP_Site>  (421) 
nan

>  <Peripheral>  (421) 
nan

>  <Num_H_Atoms_ProtBoundConf>  (421) 
nan

>  <Num_Resolved_Atoms>  (421) 
nan

>  <Num_Not_Resolved_Atoms>  (421) 
nan

$$$$
CHEMBL1568288
     RDKit          3D

  0  0  0  0  0  0  0  0  0  0999 V3000
M  V30 BEGIN CTAB
M  V30 COUNTS 44 46 0 0 0
M  V30 BEGIN ATOM
M  V30 1 C 0.792325 -5.881959 0.336546 0
M  V30 2 C 2.020712 -5.016184 0.144863 0
M  V30 3 C 1.990502 -4.500999 -1.276688 0
M  V30 4 C 3.145948 -3.627816 -1.613513 0
M  V30 5 O 3.323664 -2.480179 -0.878058 0
M  V30 6 C 2.498490 -1.390759 -0.726544 0
M  V30 7 C 3.143198 -0.493001 0.136724 0
M  V30 8 C 2.564447 0.729459 0.499827 0
M  V30 9 C 1.325614 1.067461 -0.001436 0
M  V30 10 S 0.460833 2.561253 0.355682 0
M  V30 11 O -0.373373 2.924593 -0.814729 0
M  V30 12 O 1.429096 3.692697 0.565837 0
M  V30 13 N -0.569350 2.397400 1.732409 0
M  V30 14 C -0.194395 2.107638 2.997640 0
M  V30 15 C 1.189058 1.872099 3.463110 0
M  V30 16 N -1.260165 2.052235 3.838627 0
M  V30 17 C -2.353777 2.311581 3.105652 0
M  V30 18 C -3.696266 2.390065 3.416482 0
M  V30 19 C -4.657768 2.679275 2.462948 0
M  V30 20 C -4.205110 2.890738 1.157099 0
M  V30 21 C -2.860259 2.804239 0.885489 0
M  V30 22 C -1.907731 2.520426 1.816538 0
M  V30 23 C 0.697436 0.179540 -0.850130 0
M  V30 24 C 1.262016 -1.024249 -1.210812 0
M  V30 25 H 0.157067 -5.521738 1.174782 0
M  V30 26 H 0.113738 -5.858355 -0.557807 0
M  V30 27 H 1.067325 -6.949968 0.478784 0
M  V30 28 H 2.925320 -5.621502 0.339315 0
M  V30 29 H 1.945668 -4.176475 0.869659 0
M  V30 30 H 1.009171 -4.109627 -1.514627 0
M  V30 31 H 2.109137 -5.427762 -1.919057 0
M  V30 32 H 3.078047 -3.450049 -2.723804 0
M  V30 33 H 4.097123 -4.228705 -1.518472 0
M  V30 34 H 4.122763 -0.581060 0.633644 0
M  V30 35 H 2.999078 1.463866 1.153807 0
M  V30 36 H 1.911149 2.565384 2.983520 0
M  V30 37 H 1.508998 0.844022 3.196634 0
M  V30 38 H 1.280959 1.966105 4.563635 0
M  V30 39 H -4.058333 2.227667 4.426941 0
M  V30 40 H -5.719426 2.752353 2.653156 0
M  V30 41 H -4.932071 3.121137 0.376924 0
M  V30 42 H -2.589026 2.977695 -0.133351 0
M  V30 43 H -0.268502 0.353544 -1.291251 0
M  V30 44 H 0.874555 -1.782905 -1.858407 0
M  V30 END ATOM
M  V30 BEGIN BOND
M  V30 1 1 1 2
M  V30 2 1 2 3
M  V30 3 1 3 4
M  V30 4 1 4 5
M  V30 5 1 5 6
M  V30 6 2 6 7
M  V30 7 1 7 8
M  V30 8 2 8 9
M  V30 9 1 9 10
M  V30 10 2 10 11
M  V30 11 2 10 12
M  V30 12 1 10 13
M  V30 13 1 13 14
M  V30 14 1 14 15
M  V30 15 2 14 16
M  V30 16 1 16 17
M  V30 17 2 17 18
M  V30 18 1 18 19
M  V30 19 2 19 20
M  V30 20 1 20 21
M  V30 21 2 21 22
M  V30 22 1 9 23
M  V30 23 2 23 24
M  V30 24 1 24 6
M  V30 25 1 22 13
M  V30 26 1 22 17
M  V30 27 1 1 25
M  V30 28 1 1 26
M  V30 29 1 1 27
M  V30 30 1 2 28
M  V30 31 1 2 29
M  V30 32 1 3 30
M  V30 33 1 3 31
M  V30 34 1 4 32
M  V30 35 1 4 33
M  V30 36 1 7 34
M  V30 37 1 8 35
M  V30 38 1 15 36
M  V30 39 1 15 37
M  V30 40 1 15 38
M  V30 41 1 18 39
M  V30 42 1 19 40
M  V30 43 1 20 41
M  V30 44 1 21 42
M  V30 45 1 23 43
M  V30 46 1 24 44
M  V30 END BOND
M  V30 END CTAB
M  END
>  <Dataset>  (422) 
ChEMBL_Kinases

>  <Ligand_Instance>  (422) 
nan

>  <PDB_ID>  (422) 
nan

>  <Standardized_SMILES>  (422) 
CCCCOc1ccc(S(=O)(=O)n2c(C)nc3ccccc32)cc1

>  <Name>  (422) 
nan

>  <Pocket>  (422) 
nan

>  <ATP_Site>  (422) 
nan

>  <Peripheral>  (422) 
nan

>  <Num_H_Atoms_ProtBoundConf>  (422) 
nan

>  <Num_Resolved_Atoms>  (422) 
nan

>  <Num_Not_Resolved_Atoms>  (422) 
nan

$$$$
CHEMBL1568433
     RDKit          3D

  0  0  0  0  0  0  0  0  0  0999 V3000
M  V30 BEGIN CTAB
M  V30 COUNTS 38 39 0 0 0
M  V30 BEGIN ATOM
M  V30 1 C -0.700733 -3.742152 2.990778 0
M  V30 2 C 0.570000 -3.745293 2.167622 0
M  V30 3 O 0.929866 -2.493692 1.670973 0
M  V30 4 C 1.205545 -1.379848 2.425508 0
M  V30 5 O 1.114319 -1.543615 3.670077 0
M  V30 6 C 1.587405 -0.070658 1.766032 0
M  V30 7 C 2.791678 -0.252847 0.984501 0
M  V30 8 N 3.770298 -0.414369 0.366771 0
M  V30 9 C 0.376064 0.387890 1.042533 0
M  V30 10 C 0.470609 1.667316 0.322369 0
M  V30 11 C -0.723293 2.409866 0.223351 0
M  V30 12 C -0.872852 3.627663 -0.393308 0
M  V30 13 C 0.232633 4.192175 -0.974258 0
M  V30 14 N 1.396806 3.535302 -0.913754 0
M  V30 15 C 1.487806 2.349648 -0.299584 0
M  V30 16 C -0.290106 -0.694961 0.264237 0
M  V30 17 C 0.084032 -1.382438 -0.881733 0
M  V30 18 C 1.314744 -1.171941 -1.641566 0
M  V30 19 N -0.854852 -2.287836 -1.213236 0
M  V30 20 N -1.851530 -2.249705 -0.347094 0
M  V30 21 C -1.526334 -1.309451 0.531689 0
M  V30 22 O -2.361516 -0.982217 1.617311 0
M  V30 23 H -1.590429 -3.637485 2.340845 0
M  V30 24 H -0.784944 -4.775823 3.420263 0
M  V30 25 H -0.680485 -3.062636 3.844386 0
M  V30 26 H 1.351661 -4.224387 2.782435 0
M  V30 27 H 0.389262 -4.417857 1.302343 0
M  V30 28 H 1.855136 0.594796 2.611286 0
M  V30 29 H -0.376790 0.600758 1.883447 0
M  V30 30 H -1.648259 2.012773 0.669286 0
M  V30 31 H -1.818732 4.133457 -0.427255 0
M  V30 32 H 0.236880 5.140801 -1.484904 0
M  V30 33 H 2.431717 1.840207 -0.260604 0
M  V30 34 H 2.114115 -1.906021 -1.325313 0
M  V30 35 H 1.696913 -0.157428 -1.697942 0
M  V30 36 H 1.137234 -1.468689 -2.718288 0
M  V30 37 H -2.714089 -2.833597 -0.349625 0
M  V30 38 H -2.275062 -0.108838 2.112599 0
M  V30 END ATOM
M  V30 BEGIN BOND
M  V30 1 1 1 2
M  V30 2 1 2 3
M  V30 3 1 3 4
M  V30 4 2 4 5
M  V30 5 1 4 6
M  V30 6 1 6 7
M  V30 7 3 7 8
M  V30 8 1 6 9
M  V30 9 1 9 10
M  V30 10 2 10 11
M  V30 11 1 11 12
M  V30 12 2 12 13
M  V30 13 1 13 14
M  V30 14 2 14 15
M  V30 15 1 9 16
M  V30 16 1 16 17
M  V30 17 1 17 18
M  V30 18 2 17 19
M  V30 19 1 19 20
M  V30 20 1 20 21
M  V30 21 1 21 22
M  V30 22 1 15 10
M  V30 23 2 21 16
M  V30 24 1 1 23
M  V30 25 1 1 24
M  V30 26 1 1 25
M  V30 27 1 2 26
M  V30 28 1 2 27
M  V30 29 1 6 28
M  V30 30 1 9 29
M  V30 31 1 11 30
M  V30 32 1 12 31
M  V30 33 1 13 32
M  V30 34 1 15 33
M  V30 35 1 18 34
M  V30 36 1 18 35
M  V30 37 1 18 36
M  V30 38 1 20 37
M  V30 39 1 22 38
M  V30 END BOND
M  V30 END CTAB
M  END
>  <Dataset>  (423) 
ChEMBL_Kinases

>  <Ligand_Instance>  (423) 
nan

>  <PDB_ID>  (423) 
nan

>  <Standardized_SMILES>  (423) 
CCOC(=O)C(C#N)C(c1cccnc1)c1c(C)n[nH]c1O

>  <Name>  (423) 
nan

>  <Pocket>  (423) 
nan

>  <ATP_Site>  (423) 
nan

>  <Peripheral>  (423) 
nan

>  <Num_H_Atoms_ProtBoundConf>  (423) 
nan

>  <Num_Resolved_Atoms>  (423) 
nan

>  <Num_Not_Resolved_Atoms>  (423) 
nan

$$$$
CHEMBL1567569
     RDKit          3D

  0  0  0  0  0  0  0  0  0  0999 V3000
M  V30 BEGIN CTAB
M  V30 COUNTS 40 42 0 0 0
M  V30 BEGIN ATOM
M  V30 1 C 0.932902 -5.623057 -1.694194 0
M  V30 2 O 0.783055 -4.387924 -0.986255 0
M  V30 3 C 1.468067 -4.329981 0.244074 0
M  V30 4 C 2.226614 -5.339903 0.762921 0
M  V30 5 C 2.873928 -5.226663 1.972903 0
M  V30 6 C 2.757566 -4.065743 2.684850 0
M  V30 7 C 1.982044 -3.061779 2.132112 0
M  V30 8 C 1.313898 -3.137335 0.915651 0
M  V30 9 C 0.551130 -1.946114 0.517728 0
M  V30 10 N 1.198328 -1.124960 -0.480151 0
M  V30 11 C 0.430577 0.054652 -0.809209 0
M  V30 12 C 0.081690 0.929779 0.201709 0
M  V30 13 C -0.641367 2.092876 0.033358 0
M  V30 14 C -0.999191 3.007610 1.126680 0
M  V30 15 C -0.617253 2.736328 2.422958 0
M  V30 16 C -0.998487 3.656916 3.408028 0
M  V30 17 C -1.732615 4.810186 3.133112 0
M  V30 18 C -2.061881 4.984514 1.806991 0
M  V30 19 C -2.828531 6.182030 1.491230 0
M  V30 20 N -3.451718 7.123970 1.243690 0
M  V30 21 C -1.725147 4.126030 0.778227 0
M  V30 22 N -1.006973 2.335977 -1.253182 0
M  V30 23 C -0.688243 1.510654 -2.264423 0
M  V30 24 N 0.018981 0.385008 -2.058339 0
M  V30 25 H 2.000121 -5.924054 -1.792225 0
M  V30 26 H 0.509229 -5.576421 -2.716875 0
M  V30 27 H 0.428654 -6.433543 -1.120551 0
M  V30 28 H 2.315354 -6.261781 0.191071 0
M  V30 29 H 3.461713 -6.047027 2.341833 0
M  V30 30 H 3.253434 -3.944284 3.638219 0
M  V30 31 H 1.926765 -2.155184 2.749626 0
M  V30 32 H -0.402052 -2.298992 0.015001 0
M  V30 33 H 0.189690 -1.368089 1.386490 0
M  V30 34 H 2.064004 -1.147852 -1.025656 0
M  V30 35 H 0.407181 0.664534 1.176129 0
M  V30 36 H -0.054090 1.875425 2.708998 0
M  V30 37 H -0.742646 3.529598 4.469238 0
M  V30 38 H -2.025083 5.515036 3.878213 0
M  V30 39 H -2.005074 4.303160 -0.243964 0
M  V30 40 H -0.991093 1.727958 -3.280188 0
M  V30 END ATOM
M  V30 BEGIN BOND
M  V30 1 1 1 2
M  V30 2 1 2 3
M  V30 3 2 3 4
M  V30 4 1 4 5
M  V30 5 2 5 6
M  V30 6 1 6 7
M  V30 7 2 7 8
M  V30 8 1 8 9
M  V30 9 1 9 10
M  V30 10 1 10 11
M  V30 11 2 11 12
M  V30 12 1 12 13
M  V30 13 1 13 14
M  V30 14 2 14 15
M  V30 15 1 15 16
M  V30 16 2 16 17
M  V30 17 1 17 18
M  V30 18 1 18 19
M  V30 19 3 19 20
M  V30 20 2 18 21
M  V30 21 2 13 22
M  V30 22 1 22 23
M  V30 23 2 23 24
M  V30 24 1 8 3
M  V30 25 1 24 11
M  V30 26 1 21 14
M  V30 27 1 1 25
M  V30 28 1 1 26
M  V30 29 1 1 27
M  V30 30 1 4 28
M  V30 31 1 5 29
M  V30 32 1 6 30
M  V30 33 1 7 31
M  V30 34 1 9 32
M  V30 35 1 9 33
M  V30 36 1 10 34
M  V30 37 1 12 35
M  V30 38 1 15 36
M  V30 39 1 16 37
M  V30 40 1 17 38
M  V30 41 1 21 39
M  V30 42 1 23 40
M  V30 END BOND
M  V30 END CTAB
M  END
>  <Dataset>  (424) 
ChEMBL_Kinases

>  <Ligand_Instance>  (424) 
nan

>  <PDB_ID>  (424) 
nan

>  <Standardized_SMILES>  (424) 
COc1ccccc1CNc1cc(-c2cccc(C#N)c2)ncn1

>  <Name>  (424) 
nan

>  <Pocket>  (424) 
nan

>  <ATP_Site>  (424) 
nan

>  <Peripheral>  (424) 
nan

>  <Num_H_Atoms_ProtBoundConf>  (424) 
nan

>  <Num_Resolved_Atoms>  (424) 
nan

>  <Num_Not_Resolved_Atoms>  (424) 
nan

$$$$
CHEMBL1560948
     RDKit          3D

  0  0  0  0  0  0  0  0  0  0999 V3000
M  V30 BEGIN CTAB
M  V30 COUNTS 33 33 0 0 0
M  V30 BEGIN ATOM
M  V30 1 C -6.765049 0.586142 -2.179096 0
M  V30 2 C -5.526247 0.340015 -1.423201 0
M  V30 3 C -4.593546 1.243463 -1.182117 0
M  V30 4 C -3.365893 0.954313 -0.419407 0
M  V30 5 C -2.455304 1.890327 -0.200285 0
M  V30 6 C -1.291238 1.476567 0.564965 0
M  V30 7 O -1.196413 0.307835 0.969204 0
M  V30 8 O -0.221710 2.248938 0.920901 0
M  V30 9 C 0.847294 1.667165 1.684490 0
M  V30 10 C 1.395933 0.545816 0.850158 0
M  V30 11 O 1.102777 0.073557 -0.300862 0
M  V30 12 N 2.483827 -0.220151 1.368032 0
M  V30 13 C 2.930758 -1.268505 0.487353 0
M  V30 14 C 2.449839 -2.563709 0.476157 0
M  V30 15 C 2.966483 -3.478003 -0.424206 0
M  V30 16 C 3.955681 -3.053063 -1.287234 0
M  V30 17 Cl 4.557011 -4.283651 -2.401082 0
M  V30 18 C 4.444454 -1.762867 -1.286209 0
M  V30 19 C 3.929201 -0.849583 -0.387690 0
M  V30 20 H -7.577238 0.985213 -1.522191 0
M  V30 21 H -7.151894 -0.407551 -2.535032 0
M  V30 22 H -6.654588 1.209232 -3.071622 0
M  V30 23 H -5.313058 -0.640457 -1.010471 0
M  V30 24 H -4.777310 2.250318 -1.586603 0
M  V30 25 H -3.266931 -0.060274 -0.059287 0
M  V30 26 H -2.584228 2.896553 -0.574370 0
M  V30 27 H 1.610685 2.422628 1.907317 0
M  V30 28 H 0.446354 1.306859 2.660170 0
M  V30 29 H 2.934208 -0.046077 2.314420 0
M  V30 30 H 1.682940 -2.768583 1.194516 0
M  V30 31 H 2.568002 -4.496351 -0.411781 0
M  V30 32 H 5.229613 -1.479685 -1.992645 0
M  V30 33 H 4.330674 0.160963 -0.406294 0
M  V30 END ATOM
M  V30 BEGIN BOND
M  V30 1 1 1 2
M  V30 2 2 2 3
M  V30 3 1 3 4
M  V30 4 2 4 5
M  V30 5 1 5 6
M  V30 6 2 6 7
M  V30 7 1 6 8
M  V30 8 1 8 9
M  V30 9 1 9 10
M  V30 10 2 10 11
M  V30 11 1 10 12
M  V30 12 1 12 13
M  V30 13 2 13 14
M  V30 14 1 14 15
M  V30 15 2 15 16
M  V30 16 1 16 17
M  V30 17 1 16 18
M  V30 18 2 18 19
M  V30 19 1 19 13
M  V30 20 1 1 20
M  V30 21 1 1 21
M  V30 22 1 1 22
M  V30 23 1 2 23
M  V30 24 1 3 24
M  V30 25 1 4 25
M  V30 26 1 5 26
M  V30 27 1 9 27
M  V30 28 1 9 28
M  V30 29 1 12 29
M  V30 30 1 14 30
M  V30 31 1 15 31
M  V30 32 1 18 32
M  V30 33 1 19 33
M  V30 END BOND
M  V30 END CTAB
M  END
>  <Dataset>  (425) 
ChEMBL_Kinases

>  <Ligand_Instance>  (425) 
nan

>  <PDB_ID>  (425) 
nan

>  <Standardized_SMILES>  (425) 
C/C=C/C=C/C(=O)OCC(=O)Nc1ccc(Cl)cc1

>  <Name>  (425) 
nan

>  <Pocket>  (425) 
nan

>  <ATP_Site>  (425) 
nan

>  <Peripheral>  (425) 
nan

>  <Num_H_Atoms_ProtBoundConf>  (425) 
nan

>  <Num_Resolved_Atoms>  (425) 
nan

>  <Num_Not_Resolved_Atoms>  (425) 
nan

$$$$
CHEMBL1560928
     RDKit          3D

  0  0  0  0  0  0  0  0  0  0999 V3000
M  V30 BEGIN CTAB
M  V30 COUNTS 37 38 0 0 0
M  V30 BEGIN ATOM
M  V30 1 C -1.056156 -7.685312 1.456376 0
M  V30 2 C 0.019191 -6.746500 1.895242 0
M  V30 3 O 0.050549 -5.549451 1.141553 0
M  V30 4 C 1.013514 -4.601660 1.464254 0
M  V30 5 O 1.770881 -4.923340 2.417349 0
M  V30 6 C 1.135978 -3.333778 0.753403 0
M  V30 7 C 2.130754 -2.469625 1.161965 0
M  V30 8 C 2.220103 -1.278091 0.468664 0
M  V30 9 C 1.342105 -0.986507 -0.582859 0
M  V30 10 N 1.603277 0.291830 -1.164745 0
M  V30 11 C 0.881393 1.340771 -0.550560 0
M  V30 12 O 0.125223 1.014576 0.401981 0
M  V30 13 N 0.940076 2.694157 -0.912657 0
M  V30 14 C 0.192676 3.721322 -0.264070 0
M  V30 15 C -1.074933 4.100708 -0.671098 0
M  V30 16 C -1.556871 5.121461 0.143533 0
M  V30 17 N -0.557413 5.328814 1.024603 0
M  V30 18 C -0.526919 6.303624 2.122611 0
M  V30 19 N 0.461652 4.519203 0.793748 0
M  V30 20 C 0.364145 -1.890463 -0.948855 0
M  V30 21 C 0.249693 -3.089715 -0.275098 0
M  V30 22 H -1.920851 -7.668313 2.165292 0
M  V30 23 H -1.420901 -7.508932 0.411638 0
M  V30 24 H -0.692271 -8.745825 1.437559 0
M  V30 25 H -0.176964 -6.461955 2.966283 0
M  V30 26 H 1.043021 -7.172817 1.897790 0
M  V30 27 H 2.807413 -2.698148 1.974849 0
M  V30 28 H 3.014508 -0.609155 0.808793 0
M  V30 29 H 2.239960 0.527413 -1.958279 0
M  V30 30 H 1.583220 2.935380 -1.714951 0
M  V30 31 H -1.684183 3.717960 -1.491696 0
M  V30 32 H -2.505856 5.639461 0.097574 0
M  V30 33 H -0.816764 5.777971 3.076317 0
M  V30 34 H -1.304759 7.052716 1.938841 0
M  V30 35 H 0.470083 6.711634 2.301648 0
M  V30 36 H -0.249780 -1.564033 -1.764420 0
M  V30 37 H -0.517146 -3.771804 -0.579607 0
M  V30 END ATOM
M  V30 BEGIN BOND
M  V30 1 1 1 2
M  V30 2 1 2 3
M  V30 3 1 3 4
M  V30 4 2 4 5
M  V30 5 1 4 6
M  V30 6 2 6 7
M  V30 7 1 7 8
M  V30 8 2 8 9
M  V30 9 1 9 10
M  V30 10 1 10 11
M  V30 11 2 11 12
M  V30 12 1 11 13
M  V30 13 1 13 14
M  V30 14 1 14 15
M  V30 15 2 15 16
M  V30 16 1 16 17
M  V30 17 1 17 18
M  V30 18 1 17 19
M  V30 19 1 9 20
M  V30 20 2 20 21
M  V30 21 1 21 6
M  V30 22 2 19 14
M  V30 23 1 1 22
M  V30 24 1 1 23
M  V30 25 1 1 24
M  V30 26 1 2 25
M  V30 27 1 2 26
M  V30 28 1 7 27
M  V30 29 1 8 28
M  V30 30 1 10 29
M  V30 31 1 13 30
M  V30 32 1 15 31
M  V30 33 1 16 32
M  V30 34 1 18 33
M  V30 35 1 18 34
M  V30 36 1 18 35
M  V30 37 1 20 36
M  V30 38 1 21 37
M  V30 END BOND
M  V30 END CTAB
M  END
>  <Dataset>  (426) 
ChEMBL_Kinases

>  <Ligand_Instance>  (426) 
nan

>  <PDB_ID>  (426) 
nan

>  <Standardized_SMILES>  (426) 
CCOC(=O)c1ccc(NC(=O)Nc2ccn(C)n2)cc1

>  <Name>  (426) 
nan

>  <Pocket>  (426) 
nan

>  <ATP_Site>  (426) 
nan

>  <Peripheral>  (426) 
nan

>  <Num_H_Atoms_ProtBoundConf>  (426) 
nan

>  <Num_Resolved_Atoms>  (426) 
nan

>  <Num_Not_Resolved_Atoms>  (426) 
nan

$$$$
CHEMBL1560914
     RDKit          3D

  0  0  0  0  0  0  0  0  0  0999 V3000
M  V30 BEGIN CTAB
M  V30 COUNTS 42 45 0 0 0
M  V30 BEGIN ATOM
M  V30 1 F 0.627884 -6.576781 -0.866049 0
M  V30 2 C 1.034726 -5.398571 -0.366111 0
M  V30 3 C 0.135809 -4.356559 -0.472379 0
M  V30 4 C 0.426316 -3.094661 -0.000208 0
M  V30 5 C 1.613726 -2.817398 0.592963 0
M  V30 6 C 2.061204 -1.490932 1.147063 0
M  V30 7 N 2.792375 -0.704174 0.208728 0
M  V30 8 N 4.115991 -0.797919 0.061083 0
M  V30 9 N 4.498184 0.044939 -0.894623 0
M  V30 10 N 3.405447 0.650643 -1.326893 0
M  V30 11 C 2.306607 0.202427 -0.651595 0
M  V30 12 C 0.945829 0.716138 -0.912983 0
M  V30 13 N 0.594444 1.910779 -0.221881 0
M  V30 14 C -0.722389 2.424941 -0.502718 0
M  V30 15 C -1.834254 1.475976 -0.101553 0
M  V30 16 C -1.715475 1.105716 1.338640 0
M  V30 17 C -2.706161 0.585784 2.137204 0
M  V30 18 C -2.478850 0.283780 3.463563 0
M  V30 19 C -1.221285 0.517231 3.978281 0
M  V30 20 C -0.220679 1.042867 3.169777 0
M  V30 21 C -0.451460 1.348551 1.826306 0
M  V30 22 C 0.779385 1.889932 1.201029 0
M  V30 23 C 2.498240 -3.892916 0.683835 0
M  V30 24 C 2.245911 -5.150516 0.229525 0
M  V30 25 H -0.847859 -4.475415 -0.933501 0
M  V30 26 H -0.277058 -2.298119 -0.086242 0
M  V30 27 H 2.681924 -1.761071 2.053427 0
M  V30 28 H 1.165335 -1.010127 1.567817 0
M  V30 29 H 0.161188 -0.042253 -0.710756 0
M  V30 30 H 0.876228 0.957678 -2.016583 0
M  V30 31 H -0.782794 2.719816 -1.555133 0
M  V30 32 H -0.863292 3.328686 0.140821 0
M  V30 33 H -1.769616 0.586110 -0.758228 0
M  V30 34 H -2.823661 1.919752 -0.293541 0
M  V30 35 H -3.654723 0.447784 1.612465 0
M  V30 36 H -3.301731 -0.122812 4.036303 0
M  V30 37 H -1.091090 0.265559 5.020118 0
M  V30 38 H 0.714636 1.168743 3.723719 0
M  V30 39 H 1.686644 1.339294 1.513800 0
M  V30 40 H 0.846213 2.969491 1.536878 0
M  V30 41 H 3.469982 -3.739260 1.149300 0
M  V30 42 H 2.943042 -5.965681 0.310047 0
M  V30 END ATOM
M  V30 BEGIN BOND
M  V30 1 1 1 2
M  V30 2 2 2 3
M  V30 3 1 3 4
M  V30 4 2 4 5
M  V30 5 1 5 6
M  V30 6 1 6 7
M  V30 7 1 7 8
M  V30 8 2 8 9
M  V30 9 1 9 10
M  V30 10 2 10 11
M  V30 11 1 11 12
M  V30 12 1 12 13
M  V30 13 1 13 14
M  V30 14 1 14 15
M  V30 15 1 15 16
M  V30 16 2 16 17
M  V30 17 1 17 18
M  V30 18 2 18 19
M  V30 19 1 19 20
M  V30 20 2 20 21
M  V30 21 1 21 22
M  V30 22 1 5 23
M  V30 23 2 23 24
M  V30 24 1 24 2
M  V30 25 1 11 7
M  V30 26 1 22 13
M  V30 27 1 21 16
M  V30 28 1 3 25
M  V30 29 1 4 26
M  V30 30 1 6 27
M  V30 31 1 6 28
M  V30 32 1 12 29
M  V30 33 1 12 30
M  V30 34 1 14 31
M  V30 35 1 14 32
M  V30 36 1 15 33
M  V30 37 1 15 34
M  V30 38 1 17 35
M  V30 39 1 18 36
M  V30 40 1 19 37
M  V30 41 1 20 38
M  V30 42 1 22 39
M  V30 43 1 22 40
M  V30 44 1 23 41
M  V30 45 1 24 42
M  V30 END BOND
M  V30 END CTAB
M  END
>  <Dataset>  (427) 
ChEMBL_Kinases

>  <Ligand_Instance>  (427) 
nan

>  <PDB_ID>  (427) 
nan

>  <Standardized_SMILES>  (427) 
Fc1ccc(Cn2nnnc2CN2CCc3ccccc3C2)cc1

>  <Name>  (427) 
nan

>  <Pocket>  (427) 
nan

>  <ATP_Site>  (427) 
nan

>  <Peripheral>  (427) 
nan

>  <Num_H_Atoms_ProtBoundConf>  (427) 
nan

>  <Num_Resolved_Atoms>  (427) 
nan

>  <Num_Not_Resolved_Atoms>  (427) 
nan

$$$$
CHEMBL1560873
     RDKit          3D

  0  0  0  0  0  0  0  0  0  0999 V3000
M  V30 BEGIN CTAB
M  V30 COUNTS 41 43 0 0 0
M  V30 BEGIN ATOM
M  V30 1 C 0.921574 -5.691864 -1.251371 0
M  V30 2 O 1.155805 -4.297920 -1.208425 0
M  V30 3 C 2.412683 -3.787081 -1.470820 0
M  V30 4 C 3.520629 -4.544386 -1.787526 0
M  V30 5 C 4.766513 -4.010355 -2.045678 0
M  V30 6 C 4.899095 -2.633251 -1.979786 0
M  V30 7 C 3.787536 -1.881154 -1.662586 0
M  V30 8 C 2.535358 -2.396625 -1.401628 0
M  V30 9 C 1.406109 -1.533387 -1.072349 0
M  V30 10 C 1.383895 -0.229779 -0.974815 0
M  V30 11 C 0.180749 0.524794 -0.635679 0
M  V30 12 O -0.882810 -0.120213 -0.428751 0
M  V30 13 O 0.223221 1.891309 -0.549042 0
M  V30 14 C -0.899232 2.701008 -0.225159 0
M  V30 15 C -1.433137 2.343118 1.126978 0
M  V30 16 N -2.392293 1.390419 1.290039 0
M  V30 17 C -2.850813 1.091949 2.516245 0
M  V30 18 O -3.825372 0.131613 2.737995 0
M  V30 19 C -2.378758 1.725852 3.643235 0
M  V30 20 C -2.805431 1.465143 4.908711 0
M  V30 21 C -2.327910 2.103279 6.025920 0
M  V30 22 C -1.359267 3.064116 5.851890 0
M  V30 23 C -0.900630 3.356806 4.582643 0
M  V30 24 C -1.406163 2.692065 3.479114 0
M  V30 25 N -0.974358 2.961173 2.236769 0
M  V30 26 H -0.170951 -5.886692 -1.389593 0
M  V30 27 H 1.461485 -6.200755 -2.074794 0
M  V30 28 H 1.217647 -6.071434 -0.235110 0
M  V30 29 H 3.404673 -5.627519 -1.836552 0
M  V30 30 H 5.580608 -4.681638 -2.286514 0
M  V30 31 H 5.869542 -2.201612 -2.179769 0
M  V30 32 H 3.984601 -0.818730 -1.634259 0
M  V30 33 H 0.446535 -2.037413 -0.880138 0
M  V30 34 H 2.327023 0.263702 -1.163875 0
M  V30 35 H -1.668192 2.697784 -1.000981 0
M  V30 36 H -0.499149 3.734240 -0.130762 0
M  V30 37 H -3.746855 -0.814848 2.382713 0
M  V30 38 H -3.567271 0.706546 5.024452 0
M  V30 39 H -2.695039 1.865709 7.017949 0
M  V30 40 H -0.998351 3.555154 6.760039 0
M  V30 41 H -0.150464 4.104828 4.476352 0
M  V30 END ATOM
M  V30 BEGIN BOND
M  V30 1 1 1 2
M  V30 2 1 2 3
M  V30 3 2 3 4
M  V30 4 1 4 5
M  V30 5 2 5 6
M  V30 6 1 6 7
M  V30 7 2 7 8
M  V30 8 1 8 9
M  V30 9 2 9 10
M  V30 10 1 10 11
M  V30 11 2 11 12
M  V30 12 1 11 13
M  V30 13 1 13 14
M  V30 14 1 14 15
M  V30 15 2 15 16
M  V30 16 1 16 17
M  V30 17 1 17 18
M  V30 18 2 17 19
M  V30 19 1 19 20
M  V30 20 2 20 21
M  V30 21 1 21 22
M  V30 22 2 22 23
M  V30 23 1 23 24
M  V30 24 2 24 25
M  V30 25 1 8 3
M  V30 26 1 25 15
M  V30 27 1 24 19
M  V30 28 1 1 26
M  V30 29 1 1 27
M  V30 30 1 1 28
M  V30 31 1 4 29
M  V30 32 1 5 30
M  V30 33 1 6 31
M  V30 34 1 7 32
M  V30 35 1 9 33
M  V30 36 1 10 34
M  V30 37 1 14 35
M  V30 38 1 14 36
M  V30 39 1 18 37
M  V30 40 1 20 38
M  V30 41 1 21 39
M  V30 42 1 22 40
M  V30 43 1 23 41
M  V30 END BOND
M  V30 END CTAB
M  END
>  <Dataset>  (428) 
ChEMBL_Kinases

>  <Ligand_Instance>  (428) 
nan

>  <PDB_ID>  (428) 
nan

>  <Standardized_SMILES>  (428) 
COc1ccccc1/C=C/C(=O)OCc1nc(O)c2ccccc2n1

>  <Name>  (428) 
nan

>  <Pocket>  (428) 
nan

>  <ATP_Site>  (428) 
nan

>  <Peripheral>  (428) 
nan

>  <Num_H_Atoms_ProtBoundConf>  (428) 
nan

>  <Num_Resolved_Atoms>  (428) 
nan

>  <Num_Not_Resolved_Atoms>  (428) 
nan

$$$$
CHEMBL1560810
     RDKit          3D

  0  0  0  0  0  0  0  0  0  0999 V3000
M  V30 BEGIN CTAB
M  V30 COUNTS 52 55 0 0 0
M  V30 BEGIN ATOM
M  V30 1 C 1.882673 -2.571172 5.000076 0
M  V30 2 C 2.934542 -3.545712 4.525772 0
M  V30 3 N 2.942847 -3.631230 3.061884 0
M  V30 4 N 3.652152 -2.816832 2.323228 0
M  V30 5 C 3.717574 -2.813245 0.982228 0
M  V30 6 C 4.599931 -1.815483 0.283927 0
M  V30 7 C 3.777619 -0.767620 -0.374096 0
M  V30 8 O 4.320850 -0.236726 -1.380984 0
M  V30 9 N 2.519844 -0.425708 0.105005 0
M  V30 10 C 1.502698 0.492808 -0.247000 0
M  V30 11 N 0.589220 0.242062 -0.954206 0
M  V30 12 N -0.368110 0.982206 -1.350346 0
M  V30 13 C -0.461597 2.218024 -0.988527 0
M  V30 14 C -1.620458 3.064238 -1.467934 0
M  V30 15 C -2.744587 2.984302 -0.532144 0
M  V30 16 O -2.373724 2.312263 0.460889 0
M  V30 17 N -4.084042 3.365126 -0.305477 0
M  V30 18 C -4.709939 3.008685 0.958457 0
M  V30 19 C -6.055025 2.405939 0.555051 0
M  V30 20 C -6.389106 3.103864 -0.757126 0
M  V30 21 C -5.192533 4.031713 -0.976438 0
M  V30 22 S 1.085604 2.315646 0.097296 0
M  V30 23 C 2.986851 -3.733596 0.273012 0
M  V30 24 C 3.002422 -3.793365 -1.097894 0
M  V30 25 C 2.255813 -4.732863 -1.782870 0
M  V30 26 C 1.490685 -5.611790 -1.003370 0
M  V30 27 C 1.482841 -5.543692 0.376024 0
M  V30 28 C 2.233627 -4.599924 1.056582 0
M  V30 29 C 2.188644 -4.577533 2.436262 0
M  V30 30 O 1.478567 -5.405609 3.039575 0
M  V30 31 H 0.917740 -2.716453 4.488942 0
M  V30 32 H 2.263471 -1.509502 4.942409 0
M  V30 33 H 1.717564 -2.748298 6.082546 0
M  V30 34 H 2.655367 -4.554524 4.909096 0
M  V30 35 H 3.918242 -3.202459 4.869215 0
M  V30 36 H 5.231770 -2.338196 -0.476878 0
M  V30 37 H 5.277891 -1.417936 1.044898 0
M  V30 38 H 2.146330 -0.942977 0.960650 0
M  V30 39 H -1.921632 2.670947 -2.444796 0
M  V30 40 H -1.263900 4.118615 -1.612413 0
M  V30 41 H -4.831272 3.953910 1.516077 0
M  V30 42 H -4.103884 2.329585 1.578432 0
M  V30 43 H -5.901419 1.322098 0.323035 0
M  V30 44 H -6.777792 2.590597 1.344525 0
M  V30 45 H -7.297613 3.694148 -0.611952 0
M  V30 46 H -6.536559 2.385921 -1.570246 0
M  V30 47 H -5.048972 4.053776 -2.088224 0
M  V30 48 H -5.354169 5.017503 -0.546896 0
M  V30 49 H 3.620568 -3.083117 -1.661725 0
M  V30 50 H 2.240248 -4.812650 -2.853833 0
M  V30 51 H 0.883053 -6.376193 -1.475496 0
M  V30 52 H 0.883426 -6.236115 0.949467 0
M  V30 END ATOM
M  V30 BEGIN BOND
M  V30 1 1 1 2
M  V30 2 1 2 3
M  V30 3 1 3 4
M  V30 4 2 4 5
M  V30 5 1 5 6
M  V30 6 1 6 7
M  V30 7 2 7 8
M  V30 8 1 7 9
M  V30 9 1 9 10
M  V30 10 2 10 11
M  V30 11 1 11 12
M  V30 12 2 12 13
M  V30 13 1 13 14
M  V30 14 1 14 15
M  V30 15 2 15 16
M  V30 16 1 15 17
M  V30 17 1 17 18
M  V30 18 1 18 19
M  V30 19 1 19 20
M  V30 20 1 20 21
M  V30 21 1 13 22
M  V30 22 1 5 23
M  V30 23 2 23 24
M  V30 24 1 24 25
M  V30 25 2 25 26
M  V30 26 1 26 27
M  V30 27 2 27 28
M  V30 28 1 28 29
M  V30 29 2 29 30
M  V30 30 1 29 3
M  V30 31 1 22 10
M  V30 32 1 28 23
M  V30 33 1 21 17
M  V30 34 1 1 31
M  V30 35 1 1 32
M  V30 36 1 1 33
M  V30 37 1 2 34
M  V30 38 1 2 35
M  V30 39 1 6 36
M  V30 40 1 6 37
M  V30 41 1 9 38
M  V30 42 1 14 39
M  V30 43 1 14 40
M  V30 44 1 18 41
M  V30 45 1 18 42
M  V30 46 1 19 43
M  V30 47 1 19 44
M  V30 48 1 20 45
M  V30 49 1 20 46
M  V30 50 1 21 47
M  V30 51 1 21 48
M  V30 52 1 24 49
M  V30 53 1 25 50
M  V30 54 1 26 51
M  V30 55 1 27 52
M  V30 END BOND
M  V30 END CTAB
M  END
>  <Dataset>  (429) 
ChEMBL_Kinases

>  <Ligand_Instance>  (429) 
nan

>  <PDB_ID>  (429) 
nan

>  <Standardized_SMILES>  (429) 
CCn1nc(CC(=O)Nc2nnc(CC(=O)N3CCCC3)s2)c2ccccc2c1=O

>  <Name>  (429) 
nan

>  <Pocket>  (429) 
nan

>  <ATP_Site>  (429) 
nan

>  <Peripheral>  (429) 
nan

>  <Num_H_Atoms_ProtBoundConf>  (429) 
nan

>  <Num_Resolved_Atoms>  (429) 
nan

>  <Num_Not_Resolved_Atoms>  (429) 
nan

$$$$
CHEMBL1560726
     RDKit          3D

  0  0  0  0  0  0  0  0  0  0999 V3000
M  V30 BEGIN CTAB
M  V30 COUNTS 43 46 0 0 0
M  V30 BEGIN ATOM
M  V30 1 C -1.211509 0.399029 4.693983 0
M  V30 2 O -0.778464 -0.571623 3.762128 0
M  V30 3 C -1.416766 -0.665243 2.550954 0
M  V30 4 O -2.367670 0.175716 2.409232 0
M  V30 5 C -0.974666 -1.668156 1.579184 0
M  V30 6 C 0.071143 -2.578354 1.759080 0
M  V30 7 C 0.082681 -3.286760 0.576252 0
M  V30 8 C -0.924732 -2.805883 -0.268673 0
M  V30 9 C -1.082629 -3.431792 -1.590020 0
M  V30 10 S -0.098477 -2.629006 -2.851488 0
M  V30 11 C -0.696720 -0.971263 -3.149926 0
M  V30 12 N -1.642435 -0.817417 -4.070527 0
M  V30 13 C -2.158087 0.398440 -4.369039 0
M  V30 14 C -1.617251 1.460607 -3.635826 0
M  V30 15 C -0.636990 1.245093 -2.691954 0
M  V30 16 O -0.264206 2.305477 -2.128145 0
M  V30 17 N -0.152814 0.020322 -2.426482 0
M  V30 18 C 0.860807 -0.111490 -1.439187 0
M  V30 19 C 0.683392 0.628740 -0.277005 0
M  V30 20 C 1.620210 0.573730 0.758150 0
M  V30 21 C 2.748906 -0.215712 0.658834 0
M  V30 22 Br 4.036702 -0.301625 2.064923 0
M  V30 23 C 2.914134 -0.946136 -0.500181 0
M  V30 24 C 1.993190 -0.893786 -1.520490 0
M  V30 25 S -2.503871 2.912940 -4.258475 0
M  V30 26 C -3.933608 1.956317 -4.909589 0
M  V30 27 C -3.193149 0.737389 -5.349608 0
M  V30 28 O -1.524377 -1.841710 0.378033 0
M  V30 29 H -0.523213 0.461116 5.572284 0
M  V30 30 H -2.234773 0.229923 5.048176 0
M  V30 31 H -1.246551 1.395877 4.175870 0
M  V30 32 H 0.702080 -2.675131 2.635371 0
M  V30 33 H 0.816366 -4.086307 0.429381 0
M  V30 34 H -2.174986 -3.364544 -1.862409 0
M  V30 35 H -0.853098 -4.511926 -1.591502 0
M  V30 36 H -0.125744 1.285526 -0.035906 0
M  V30 37 H 1.534282 1.128465 1.686050 0
M  V30 38 H 3.800764 -1.569159 -0.584388 0
M  V30 39 H 2.118935 -1.456202 -2.416064 0
M  V30 40 H -4.630980 1.750892 -4.096469 0
M  V30 41 H -4.359315 2.464109 -5.792520 0
M  V30 42 H -2.809372 0.812226 -6.387801 0
M  V30 43 H -3.934627 -0.091324 -5.375629 0
M  V30 END ATOM
M  V30 BEGIN BOND
M  V30 1 1 1 2
M  V30 2 1 2 3
M  V30 3 2 3 4
M  V30 4 1 3 5
M  V30 5 2 5 6
M  V30 6 1 6 7
M  V30 7 2 7 8
M  V30 8 1 8 9
M  V30 9 1 9 10
M  V30 10 1 10 11
M  V30 11 2 11 12
M  V30 12 1 12 13
M  V30 13 2 13 14
M  V30 14 1 14 15
M  V30 15 2 15 16
M  V30 16 1 15 17
M  V30 17 1 17 18
M  V30 18 2 18 19
M  V30 19 1 19 20
M  V30 20 2 20 21
M  V30 21 1 21 22
M  V30 22 1 21 23
M  V30 23 2 23 24
M  V30 24 1 14 25
M  V30 25 1 25 26
M  V30 26 1 26 27
M  V30 27 1 8 28
M  V30 28 1 28 5
M  V30 29 1 17 11
M  V30 30 1 24 18
M  V30 31 1 27 13
M  V30 32 1 1 29
M  V30 33 1 1 30
M  V30 34 1 1 31
M  V30 35 1 6 32
M  V30 36 1 7 33
M  V30 37 1 9 34
M  V30 38 1 9 35
M  V30 39 1 19 36
M  V30 40 1 20 37
M  V30 41 1 23 38
M  V30 42 1 24 39
M  V30 43 1 26 40
M  V30 44 1 26 41
M  V30 45 1 27 42
M  V30 46 1 27 43
M  V30 END BOND
M  V30 END CTAB
M  END
>  <Dataset>  (430) 
ChEMBL_Kinases

>  <Ligand_Instance>  (430) 
nan

>  <PDB_ID>  (430) 
nan

>  <Standardized_SMILES>  (430) 
COC(=O)c1ccc(CSc2nc3c(c(=O)n2-c2ccc(Br)cc2)SCC3)o1

>  <Name>  (430) 
nan

>  <Pocket>  (430) 
nan

>  <ATP_Site>  (430) 
nan

>  <Peripheral>  (430) 
nan

>  <Num_H_Atoms_ProtBoundConf>  (430) 
nan

>  <Num_Resolved_Atoms>  (430) 
nan

>  <Num_Not_Resolved_Atoms>  (430) 
nan

$$$$
CHEMBL1560515
     RDKit          3D

  0  0  0  0  0  0  0  0  0  0999 V3000
M  V30 BEGIN CTAB
M  V30 COUNTS 41 43 0 0 0
M  V30 BEGIN ATOM
M  V30 1 C 1.884650 -4.814630 -1.163017 0
M  V30 2 C 1.119142 -4.599785 0.115965 0
M  V30 3 C 0.454795 -5.688665 0.679263 0
M  V30 4 C -0.282205 -5.637950 1.841130 0
M  V30 5 C -0.341558 -4.407083 2.458100 0
M  V30 6 C 0.310979 -3.327736 1.908865 0
M  V30 7 C 1.048530 -3.376084 0.747291 0
M  V30 8 C 1.753076 -2.268459 0.123975 0
M  V30 9 N 2.501357 -2.241406 -0.994923 0
M  V30 10 N 2.937432 -0.986738 -1.165511 0
M  V30 11 C 2.467306 -0.198876 -0.149055 0
M  V30 12 S 3.109076 1.430032 -0.470962 0
M  V30 13 C 2.014817 2.383144 -1.544233 0
M  V30 14 C 0.747924 2.801133 -0.935138 0
M  V30 15 O 0.013846 3.366892 -1.819863 0
M  V30 16 N 0.295952 2.665359 0.375070 0
M  V30 17 C -0.773224 2.919132 1.260077 0
M  V30 18 C -1.669628 1.845415 1.293439 0
M  V30 19 C -2.796461 1.892355 2.098212 0
M  V30 20 C -3.004508 3.009223 2.852419 0
M  V30 21 Cl -4.378909 3.203986 3.910285 0
M  V30 22 C -2.138781 4.066666 2.831301 0
M  V30 23 C -1.000880 4.043889 2.032126 0
M  V30 24 N 1.749002 -1.031148 0.612373 0
M  V30 25 N 1.208721 -0.389497 1.698479 0
M  V30 26 H 1.762550 -5.891176 -1.468358 0
M  V30 27 H 1.550388 -4.158698 -1.977066 0
M  V30 28 H 2.953648 -4.687818 -0.885311 0
M  V30 29 H 0.497320 -6.670496 0.193349 0
M  V30 30 H -0.775186 -6.510737 2.232652 0
M  V30 31 H -0.896300 -4.291910 3.368137 0
M  V30 32 H 0.237951 -2.385003 2.424823 0
M  V30 33 H 2.552431 3.287496 -1.903922 0
M  V30 34 H 1.810702 1.813555 -2.507075 0
M  V30 35 H 1.006655 2.215288 0.974794 0
M  V30 36 H -1.581115 0.923227 0.729955 0
M  V30 37 H -3.539385 1.120321 2.190884 0
M  V30 38 H -2.278822 4.975975 3.423496 0
M  V30 39 H -0.250631 4.816780 1.933380 0
M  V30 40 H 1.782889 -0.237065 2.555813 0
M  V30 41 H 1.489288 -0.074960 2.673863 0
M  V30 END ATOM
M  V30 BEGIN BOND
M  V30 1 1 1 2
M  V30 2 2 2 3
M  V30 3 1 3 4
M  V30 4 2 4 5
M  V30 5 1 5 6
M  V30 6 2 6 7
M  V30 7 1 7 8
M  V30 8 2 8 9
M  V30 9 1 9 10
M  V30 10 2 10 11
M  V30 11 1 11 12
M  V30 12 1 12 13
M  V30 13 1 13 14
M  V30 14 2 14 15
M  V30 15 1 14 16
M  V30 16 1 16 17
M  V30 17 2 17 18
M  V30 18 1 18 19
M  V30 19 2 19 20
M  V30 20 1 20 21
M  V30 21 1 20 22
M  V30 22 2 22 23
M  V30 23 1 11 24
M  V30 24 1 24 25
M  V30 25 1 7 2
M  V30 26 1 24 8
M  V30 27 1 23 17
M  V30 28 1 1 26
M  V30 29 1 1 27
M  V30 30 1 1 28
M  V30 31 1 3 29
M  V30 32 1 4 30
M  V30 33 1 5 31
M  V30 34 1 6 32
M  V30 35 1 13 33
M  V30 36 1 13 34
M  V30 37 1 16 35
M  V30 38 1 18 36
M  V30 39 1 19 37
M  V30 40 1 22 38
M  V30 41 1 23 39
M  V30 42 1 25 40
M  V30 43 1 25 41
M  V30 END BOND
M  V30 END CTAB
M  END
>  <Dataset>  (431) 
ChEMBL_Kinases

>  <Ligand_Instance>  (431) 
nan

>  <PDB_ID>  (431) 
nan

>  <Standardized_SMILES>  (431) 
Cc1ccccc1-c1nnc(SCC(=O)Nc2ccc(Cl)cc2)n1N

>  <Name>  (431) 
nan

>  <Pocket>  (431) 
nan

>  <ATP_Site>  (431) 
nan

>  <Peripheral>  (431) 
nan

>  <Num_H_Atoms_ProtBoundConf>  (431) 
nan

>  <Num_Resolved_Atoms>  (431) 
nan

>  <Num_Not_Resolved_Atoms>  (431) 
nan

$$$$
CHEMBL1560508
     RDKit          3D

  0  0  0  0  0  0  0  0  0  0999 V3000
M  V30 BEGIN CTAB
M  V30 COUNTS 61 64 0 0 0
M  V30 BEGIN ATOM
M  V30 1 C 2.996718 7.955464 0.339532 0
M  V30 2 O 2.165538 7.362057 -0.627013 0
M  V30 3 C 2.000531 6.008254 -0.807084 0
M  V30 4 C 2.641337 5.034503 -0.045838 0
M  V30 5 C 2.415281 3.689542 -0.295762 0
M  V30 6 C 1.563935 3.251785 -1.287366 0
M  V30 7 C 1.393128 1.814921 -1.475089 0
M  V30 8 N 0.620064 1.129996 -2.334985 0
M  V30 9 C 0.790981 -0.213587 -2.137749 0
M  V30 10 C 0.073844 -1.270887 -2.879412 0
M  V30 11 S -1.381238 -1.876008 -2.077309 0 CHG=1 VAL=3
M  V30 12 O -2.439553 -0.587941 -1.890418 0 CHG=-1 VAL=1
M  V30 13 C -0.972292 -2.665433 -0.590464 0
M  V30 14 C -2.139823 -3.223234 0.152282 0
M  V30 15 O -3.393613 -3.312767 0.019224 0
M  V30 16 N -1.626281 -3.808812 1.347074 0
M  V30 17 C -2.367332 -4.479173 2.406371 0
M  V30 18 C -2.342540 -3.677715 3.670229 0
M  V30 19 C -2.176752 -4.588458 4.849906 0
M  V30 20 C -0.951509 -5.457610 4.651362 0
M  V30 21 C -1.243071 -6.522402 3.634621 0
M  V30 22 C -0.947621 -7.859121 3.606889 0
M  V30 23 C -1.344767 -8.629761 2.536406 0
M  V30 24 C -2.040341 -8.030112 1.502783 0
M  V30 25 C -2.330020 -6.682666 1.546099 0
M  V30 26 C -1.943624 -5.854425 2.621029 0
M  V30 27 C 1.709060 -0.281772 -1.115969 0
M  V30 28 C 2.277949 -1.491553 -0.485375 0
M  V30 29 O 2.026502 0.936716 -0.765438 0
M  V30 30 C 0.920741 4.210563 -2.051466 0
M  V30 31 C 1.155989 5.543247 -1.791253 0
M  V30 32 O 0.498760 6.516332 -2.573522 0
M  V30 33 C -0.363959 6.020161 -3.579117 0
M  V30 34 H 3.049900 7.311690 1.249106 0
M  V30 35 H 3.994817 8.227902 -0.038107 0
M  V30 36 H 2.534190 8.916085 0.705433 0
M  V30 37 H 3.315094 5.353480 0.740251 0
M  V30 38 H 2.960712 3.009925 0.350434 0
M  V30 39 H -0.208870 -0.827567 -3.881932 0
M  V30 40 H 0.788836 -2.099363 -3.109823 0
M  V30 41 H -0.419844 -1.937502 0.077469 0
M  V30 42 H -0.267815 -3.482810 -0.796172 0
M  V30 43 H -0.641960 -3.895622 1.735220 0
M  V30 44 H -3.433193 -4.481515 2.060403 0
M  V30 45 H -1.476528 -2.956957 3.689642 0
M  V30 46 H -3.290608 -3.086670 3.764099 0
M  V30 47 H -2.087253 -3.974290 5.778267 0
M  V30 48 H -3.101208 -5.205129 4.956722 0
M  V30 49 H -0.744138 -5.965460 5.609805 0
M  V30 50 H -0.116356 -4.819610 4.357551 0
M  V30 51 H -0.407998 -8.109380 4.503230 0
M  V30 52 H -1.052717 -9.665824 2.629179 0
M  V30 53 H -2.304336 -8.701572 0.721103 0
M  V30 54 H -2.882648 -6.376736 0.651959 0
M  V30 55 H 1.893671 -1.542045 0.552903 0
M  V30 56 H 3.387105 -1.502901 -0.522169 0
M  V30 57 H 1.874246 -2.388572 -1.033935 0
M  V30 58 H 0.269413 3.852552 -2.810766 0
M  V30 59 H 0.158411 5.524741 -4.399491 0
M  V30 60 H -0.920850 6.881552 -3.998981 0
M  V30 61 H -1.143909 5.320876 -3.179150 0
M  V30 END ATOM
M  V30 BEGIN BOND
M  V30 1 1 1 2
M  V30 2 1 2 3
M  V30 3 2 3 4
M  V30 4 1 4 5
M  V30 5 2 5 6
M  V30 6 1 6 7
M  V30 7 2 7 8
M  V30 8 1 8 9
M  V30 9 1 9 10
M  V30 10 1 10 11
M  V30 11 1 11 12
M  V30 12 1 11 13
M  V30 13 1 13 14
M  V30 14 2 14 15
M  V30 15 1 14 16
M  V30 16 1 16 17
M  V30 17 1 17 18
M  V30 18 1 18 19
M  V30 19 1 19 20
M  V30 20 1 20 21
M  V30 21 2 21 22
M  V30 22 1 22 23
M  V30 23 2 23 24
M  V30 24 1 24 25
M  V30 25 2 25 26
M  V30 26 2 9 27
M  V30 27 1 27 28
M  V30 28 1 27 29
M  V30 29 1 6 30
M  V30 30 2 30 31
M  V30 31 1 31 32
M  V30 32 1 32 33
M  V30 33 1 31 3
M  V30 34 1 29 7
M  V30 35 1 26 17
M  V30 36 1 26 21
M  V30 37 1 1 34
M  V30 38 1 1 35
M  V30 39 1 1 36
M  V30 40 1 4 37
M  V30 41 1 5 38
M  V30 42 1 10 39
M  V30 43 1 10 40
M  V30 44 1 13 41
M  V30 45 1 13 42
M  V30 46 1 16 43
M  V30 47 1 17 44
M  V30 48 1 18 45
M  V30 49 1 18 46
M  V30 50 1 19 47
M  V30 51 1 19 48
M  V30 52 1 20 49
M  V30 53 1 20 50
M  V30 54 1 22 51
M  V30 55 1 23 52
M  V30 56 1 24 53
M  V30 57 1 25 54
M  V30 58 1 28 55
M  V30 59 1 28 56
M  V30 60 1 28 57
M  V30 61 1 30 58
M  V30 62 1 33 59
M  V30 63 1 33 60
M  V30 64 1 33 61
M  V30 END BOND
M  V30 END CTAB
M  END
>  <Dataset>  (432) 
ChEMBL_Kinases

>  <Ligand_Instance>  (432) 
nan

>  <PDB_ID>  (432) 
nan

>  <Standardized_SMILES>  (432) 
COc1ccc(-c2nc(C[S+]([O-])CC(=O)NC3CCCc4ccccc43)c(C)o2)cc1OC

>  <Name>  (432) 
nan

>  <Pocket>  (432) 
nan

>  <ATP_Site>  (432) 
nan

>  <Peripheral>  (432) 
nan

>  <Num_H_Atoms_ProtBoundConf>  (432) 
nan

>  <Num_Resolved_Atoms>  (432) 
nan

>  <Num_Not_Resolved_Atoms>  (432) 
nan

$$$$
CHEMBL1560451
     RDKit          3D

  0  0  0  0  0  0  0  0  0  0999 V3000
M  V30 BEGIN CTAB
M  V30 COUNTS 74 76 0 0 0
M  V30 BEGIN ATOM
M  V30 1 C 4.105986 -1.898214 5.177865 0
M  V30 2 C 4.422181 -2.093738 3.742545 0
M  V30 3 O 5.060596 -3.149803 3.511312 0
M  V30 4 C 4.043640 -1.167297 2.675607 0
M  V30 5 C 3.345026 0.009720 2.845785 0
M  V30 6 C 3.033625 0.817393 1.771962 0
M  V30 7 C 3.390862 0.510738 0.488442 0
M  V30 8 N 3.058179 1.361206 -0.596812 0
M  V30 9 C 2.358908 2.622758 -0.509405 0
M  V30 10 C 1.222521 2.774617 -1.477437 0
M  V30 11 N 1.011868 1.629885 -2.245634 0
M  V30 12 C -0.266096 1.172135 -2.563646 0
M  V30 13 C -1.074201 0.604032 -1.462809 0
M  V30 14 O 0.022431 0.918623 -0.975783 0
M  V30 15 N -2.393998 0.103964 -1.519263 0
M  V30 16 C -2.949306 0.173993 -2.849103 0
M  V30 17 C -2.710915 -1.076522 -3.672954 0
M  V30 18 C -3.348456 -2.295701 -2.991966 0
M  V30 19 C -3.478823 -0.897853 -4.969003 0
M  V30 20 C -2.995056 -0.410744 -0.370028 0
M  V30 21 C -2.296563 -0.753682 0.764281 0
M  V30 22 N -0.899047 -0.673124 0.873560 0
M  V30 23 N -2.855373 -1.214127 1.896834 0
M  V30 24 C -2.168370 -1.602431 3.103723 0
M  V30 25 C -1.830193 -3.049797 3.205616 0
M  V30 26 C -0.934014 -3.504242 2.092113 0
M  V30 27 C -1.222244 -3.413911 4.541280 0
M  V30 28 C -4.212246 -1.368060 1.969004 0
M  V30 29 O -4.787813 -1.793561 3.001824 0
M  V30 30 N -4.966499 -1.054927 0.900853 0
M  V30 31 C -4.346373 -0.601794 -0.194523 0
M  V30 32 O -5.114600 -0.331815 -1.140151 0
M  V30 33 C 2.128349 1.032925 -2.869448 0
M  V30 34 C 3.339359 1.150502 -1.979169 0
M  V30 35 C 4.083252 -0.652717 0.308786 0
M  V30 36 C 4.402311 -1.476483 1.392492 0
M  V30 37 H 3.844952 -2.882987 5.660532 0
M  V30 38 H 4.997221 -1.545379 5.758096 0
M  V30 39 H 3.273817 -1.183716 5.309099 0
M  V30 40 H 3.063260 0.247324 3.877073 0
M  V30 41 H 2.488169 1.699929 2.064731 0
M  V30 42 H 1.911364 2.804810 0.506435 0
M  V30 43 H 3.147403 3.414050 -0.630166 0
M  V30 44 H 1.555916 3.599066 -2.191943 0
M  V30 45 H 0.290530 3.165536 -1.054079 0
M  V30 46 H -0.850540 2.076403 -2.932957 0
M  V30 47 H -0.233035 0.526690 -3.475535 0
M  V30 48 H -4.019091 0.401534 -2.907889 0
M  V30 49 H -2.470966 0.992763 -3.460852 0
M  V30 50 H -1.669826 -1.283294 -3.906396 0
M  V30 51 H -2.873583 -2.419911 -2.017654 0
M  V30 52 H -3.075461 -3.185856 -3.622304 0
M  V30 53 H -4.440634 -2.247327 -3.008749 0
M  V30 54 H -2.860290 -0.443583 -5.766059 0
M  V30 55 H -4.387399 -0.293815 -4.745988 0
M  V30 56 H -3.888949 -1.879816 -5.331174 0
M  V30 57 H -0.586516 0.078113 1.558604 0
M  V30 58 H -0.521852 -1.401870 0.227161 0
M  V30 59 H -2.803239 -1.331522 3.985500 0
M  V30 60 H -1.201656 -1.036182 3.175165 0
M  V30 61 H -2.755464 -3.691315 3.127982 0
M  V30 62 H -1.517674 -3.385626 1.138966 0
M  V30 63 H -0.752545 -4.606443 2.257032 0
M  V30 64 H 0.050254 -3.014859 2.061070 0
M  V30 65 H -1.988580 -3.388274 5.322802 0
M  V30 66 H -0.384920 -2.779767 4.847514 0
M  V30 67 H -0.883048 -4.469055 4.451364 0
M  V30 68 H -5.999053 -1.175717 0.964863 0
M  V30 69 H 1.907672 -0.001687 -3.166181 0
M  V30 70 H 2.356148 1.606076 -3.807337 0
M  V30 71 H 3.940053 0.234709 -2.178829 0
M  V30 72 H 4.014778 1.988981 -2.329927 0
M  V30 73 H 4.420037 -1.000116 -0.656308 0
M  V30 74 H 4.960051 -2.405021 1.211051 0
M  V30 END ATOM
M  V30 BEGIN BOND
M  V30 1 1 1 2
M  V30 2 2 2 3
M  V30 3 1 2 4
M  V30 4 2 4 5
M  V30 5 1 5 6
M  V30 6 2 6 7
M  V30 7 1 7 8
M  V30 8 1 8 9
M  V30 9 1 9 10
M  V30 10 1 10 11
M  V30 11 1 11 12
M  V30 12 1 12 13
M  V30 13 2 13 14
M  V30 14 1 13 15
M  V30 15 1 15 16
M  V30 16 1 16 17
M  V30 17 1 17 18
M  V30 18 1 17 19
M  V30 19 1 15 20
M  V30 20 2 20 21
M  V30 21 1 21 22
M  V30 22 1 21 23
M  V30 23 1 23 24
M  V30 24 1 24 25
M  V30 25 1 25 26
M  V30 26 1 25 27
M  V30 27 1 23 28
M  V30 28 2 28 29
M  V30 29 1 28 30
M  V30 30 1 30 31
M  V30 31 2 31 32
M  V30 32 1 11 33
M  V30 33 1 33 34
M  V30 34 1 7 35
M  V30 35 2 35 36
M  V30 36 1 36 4
M  V30 37 1 34 8
M  V30 38 1 31 20
M  V30 39 1 1 37
M  V30 40 1 1 38
M  V30 41 1 1 39
M  V30 42 1 5 40
M  V30 43 1 6 41
M  V30 44 1 9 42
M  V30 45 1 9 43
M  V30 46 1 10 44
M  V30 47 1 10 45
M  V30 48 1 12 46
M  V30 49 1 12 47
M  V30 50 1 16 48
M  V30 51 1 16 49
M  V30 52 1 17 50
M  V30 53 1 18 51
M  V30 54 1 18 52
M  V30 55 1 18 53
M  V30 56 1 19 54
M  V30 57 1 19 55
M  V30 58 1 19 56
M  V30 59 1 22 57
M  V30 60 1 22 58
M  V30 61 1 24 59
M  V30 62 1 24 60
M  V30 63 1 25 61
M  V30 64 1 26 62
M  V30 65 1 26 63
M  V30 66 1 26 64
M  V30 67 1 27 65
M  V30 68 1 27 66
M  V30 69 1 27 67
M  V30 70 1 30 68
M  V30 71 1 33 69
M  V30 72 1 33 70
M  V30 73 1 34 71
M  V30 74 1 34 72
M  V30 75 1 35 73
M  V30 76 1 36 74
M  V30 END BOND
M  V30 END CTAB
M  END
>  <Dataset>  (433) 
ChEMBL_Kinases

>  <Ligand_Instance>  (433) 
nan

>  <PDB_ID>  (433) 
nan

>  <Standardized_SMILES>  (433) 
CC(=O)c1ccc(N2CCN(CC(=O)N(CC(C)C)c3c(N)n(CC(C)C)c(=O)[nH]c3=O)CC2)cc1

>  <Name>  (433) 
nan

>  <Pocket>  (433) 
nan

>  <ATP_Site>  (433) 
nan

>  <Peripheral>  (433) 
nan

>  <Num_H_Atoms_ProtBoundConf>  (433) 
nan

>  <Num_Resolved_Atoms>  (433) 
nan

>  <Num_Not_Resolved_Atoms>  (433) 
nan

$$$$
CHEMBL1560374
     RDKit          3D

  0  0  0  0  0  0  0  0  0  0999 V3000
M  V30 BEGIN CTAB
M  V30 COUNTS 40 42 0 0 0
M  V30 BEGIN ATOM
M  V30 1 C -1.680745 -4.603414 1.610149 0
M  V30 2 O -0.853308 -3.531633 1.192907 0
M  V30 3 C 0.208008 -3.701974 0.321254 0
M  V30 4 O 0.547863 -4.820071 -0.189478 0
M  V30 5 C 1.109485 -2.617307 -0.151398 0
M  V30 6 C 2.504921 -2.964714 0.347282 0
M  V30 7 O 0.774330 -1.376964 0.382301 0
M  V30 8 C 0.482061 -0.214796 -0.281196 0
M  V30 9 C 0.459428 -0.030735 -1.653746 0
M  V30 10 C 0.155684 1.170656 -2.253025 0
M  V30 11 C 0.149904 1.298777 -3.740188 0
M  V30 12 C -0.149944 2.280416 -1.464314 0
M  V30 13 C -0.129548 2.105209 -0.096362 0
M  V30 14 O -0.428799 3.197422 0.596883 0
M  V30 15 C -0.445209 3.166807 1.906392 0
M  V30 16 O -0.728662 4.202712 2.544518 0
M  V30 17 C -0.153474 2.005708 2.583477 0
M  V30 18 C 0.159742 0.861291 1.875031 0
M  V30 19 C 0.177706 0.891715 0.484861 0
M  V30 20 C 0.426141 -0.222625 2.825533 0
M  V30 21 C 0.726733 0.495038 4.128353 0
M  V30 22 C -0.111364 1.741778 4.035043 0
M  V30 23 H -2.500914 -4.799394 0.888977 0
M  V30 24 H -2.162863 -4.282969 2.557172 0
M  V30 25 H -1.011328 -5.475096 1.740958 0
M  V30 26 H 1.133687 -2.629192 -1.261585 0
M  V30 27 H 3.128850 -3.411857 -0.442347 0
M  V30 28 H 2.473396 -3.709446 1.178254 0
M  V30 29 H 3.009050 -2.070299 0.789929 0
M  V30 30 H 0.700061 -0.905390 -2.262510 0
M  V30 31 H -0.865562 0.930532 -4.069807 0
M  V30 32 H 0.888659 0.658249 -4.240254 0
M  V30 33 H 0.246812 2.373335 -3.995135 0
M  V30 34 H -0.383555 3.207164 -1.963314 0
M  V30 35 H 1.326373 -0.818575 2.596132 0
M  V30 36 H -0.466167 -0.862702 3.019136 0
M  V30 37 H 1.814673 0.718649 4.178653 0
M  V30 38 H 0.434738 -0.162795 4.977417 0
M  V30 39 H 0.364022 2.562624 4.621043 0
M  V30 40 H -1.127406 1.495419 4.388831 0
M  V30 END ATOM
M  V30 BEGIN BOND
M  V30 1 1 1 2
M  V30 2 1 2 3
M  V30 3 2 3 4
M  V30 4 1 3 5
M  V30 5 1 5 6
M  V30 6 1 5 7
M  V30 7 1 7 8
M  V30 8 2 8 9
M  V30 9 1 9 10
M  V30 10 1 10 11
M  V30 11 2 10 12
M  V30 12 1 12 13
M  V30 13 1 13 14
M  V30 14 1 14 15
M  V30 15 2 15 16
M  V30 16 1 15 17
M  V30 17 2 17 18
M  V30 18 1 18 19
M  V30 19 1 18 20
M  V30 20 1 20 21
M  V30 21 1 21 22
M  V30 22 1 19 8
M  V30 23 2 19 13
M  V30 24 1 22 17
M  V30 25 1 1 23
M  V30 26 1 1 24
M  V30 27 1 1 25
M  V30 28 1 5 26
M  V30 29 1 6 27
M  V30 30 1 6 28
M  V30 31 1 6 29
M  V30 32 1 9 30
M  V30 33 1 11 31
M  V30 34 1 11 32
M  V30 35 1 11 33
M  V30 36 1 12 34
M  V30 37 1 20 35
M  V30 38 1 20 36
M  V30 39 1 21 37
M  V30 40 1 21 38
M  V30 41 1 22 39
M  V30 42 1 22 40
M  V30 END BOND
M  V30 END CTAB
M  END
>  <Dataset>  (434) 
ChEMBL_Kinases

>  <Ligand_Instance>  (434) 
nan

>  <PDB_ID>  (434) 
nan

>  <Standardized_SMILES>  (434) 
COC(=O)C(C)Oc1cc(C)cc2oc(=O)c3c(c12)CCC3

>  <Name>  (434) 
nan

>  <Pocket>  (434) 
nan

>  <ATP_Site>  (434) 
nan

>  <Peripheral>  (434) 
nan

>  <Num_H_Atoms_ProtBoundConf>  (434) 
nan

>  <Num_Resolved_Atoms>  (434) 
nan

>  <Num_Not_Resolved_Atoms>  (434) 
nan

$$$$
CHEMBL1560306
     RDKit          3D

  0  0  0  0  0  0  0  0  0  0999 V3000
M  V30 BEGIN CTAB
M  V30 COUNTS 48 49 0 0 0
M  V30 BEGIN ATOM
M  V30 1 C 2.860773 -5.426717 2.259043 0
M  V30 2 C 2.054834 -4.186513 1.889543 0
M  V30 3 C 2.578389 -3.051778 2.724519 0
M  V30 4 C 2.228324 -3.903991 0.426120 0
M  V30 5 N 1.487176 -2.751956 0.046970 0
M  V30 6 C 1.955170 -1.480805 -0.032789 0
M  V30 7 N 3.360300 -1.295757 0.242490 0
M  V30 8 C 1.076261 -0.479076 -0.387819 0
M  V30 9 C 1.603381 0.865727 -0.497039 0
M  V30 10 O 2.889548 0.866093 -0.454851 0
M  V30 11 C 1.360625 2.273951 -0.637234 0
M  V30 12 O -0.003800 2.696539 -0.479954 0
M  V30 13 C -0.646814 2.553977 0.750457 0
M  V30 14 O -0.010715 2.051070 1.712152 0
M  V30 15 C -2.037584 2.982104 0.919723 0
M  V30 16 C -2.563033 2.789969 2.181003 0
M  V30 17 C -3.884870 3.184196 2.384896 0
M  V30 18 C -4.574436 3.736364 1.318933 0
M  V30 19 O -5.897698 4.140852 1.489766 0
M  V30 20 C -4.016595 3.913630 0.070272 0
M  V30 21 C -2.701616 3.529096 -0.158437 0
M  V30 22 C -0.236292 -0.808610 -0.648508 0
M  V30 23 O -1.085633 0.041153 -0.979557 0
M  V30 24 N -0.722177 -2.058200 -0.576735 0
M  V30 25 C -2.107012 -2.387809 -0.853785 0
M  V30 26 C 0.191395 -2.996920 -0.221659 0
M  V30 27 O -0.292714 -4.175828 -0.159916 0
M  V30 28 H 3.536588 -5.736858 1.425194 0
M  V30 29 H 3.359975 -5.288159 3.217998 0
M  V30 30 H 2.119508 -6.265705 2.399324 0
M  V30 31 H 0.986419 -4.311672 2.175460 0
M  V30 32 H 2.482715 -3.291981 3.819863 0
M  V30 33 H 1.999578 -2.146157 2.470738 0
M  V30 34 H 3.644268 -2.884779 2.463440 0
M  V30 35 H 3.320356 -3.817883 0.255731 0
M  V30 36 H 1.861486 -4.832655 -0.105416 0
M  V30 37 H 4.144385 -1.698170 -0.348244 0
M  V30 38 H 3.740370 -0.741692 1.058848 0
M  V30 39 H 1.969084 2.940470 0.053359 0
M  V30 40 H 1.701232 2.620470 -1.660095 0
M  V30 41 H -2.006089 2.359609 2.989137 0
M  V30 42 H -4.323228 3.046570 3.360428 0
M  V30 43 H -6.429765 3.719345 2.220855 0
M  V30 44 H -4.610081 4.355798 -0.735278 0
M  V30 45 H -2.228403 3.650873 -1.120919 0
M  V30 46 H -2.777278 -1.881872 -0.119249 0
M  V30 47 H -2.228248 -3.481965 -0.751243 0
M  V30 48 H -2.384034 -2.101560 -1.902805 0
M  V30 END ATOM
M  V30 BEGIN BOND
M  V30 1 1 1 2
M  V30 2 1 2 3
M  V30 3 1 2 4
M  V30 4 1 4 5
M  V30 5 1 5 6
M  V30 6 1 6 7
M  V30 7 2 6 8
M  V30 8 1 8 9
M  V30 9 2 9 10
M  V30 10 1 9 11
M  V30 11 1 11 12
M  V30 12 1 12 13
M  V30 13 2 13 14
M  V30 14 1 13 15
M  V30 15 2 15 16
M  V30 16 1 16 17
M  V30 17 2 17 18
M  V30 18 1 18 19
M  V30 19 1 18 20
M  V30 20 2 20 21
M  V30 21 1 8 22
M  V30 22 2 22 23
M  V30 23 1 22 24
M  V30 24 1 24 25
M  V30 25 1 24 26
M  V30 26 2 26 27
M  V30 27 1 26 5
M  V30 28 1 21 15
M  V30 29 1 1 28
M  V30 30 1 1 29
M  V30 31 1 1 30
M  V30 32 1 2 31
M  V30 33 1 3 32
M  V30 34 1 3 33
M  V30 35 1 3 34
M  V30 36 1 4 35
M  V30 37 1 4 36
M  V30 38 1 7 37
M  V30 39 1 7 38
M  V30 40 1 11 39
M  V30 41 1 11 40
M  V30 42 1 16 41
M  V30 43 1 17 42
M  V30 44 1 19 43
M  V30 45 1 20 44
M  V30 46 1 21 45
M  V30 47 1 25 46
M  V30 48 1 25 47
M  V30 49 1 25 48
M  V30 END BOND
M  V30 END CTAB
M  END
>  <Dataset>  (435) 
ChEMBL_Kinases

>  <Ligand_Instance>  (435) 
nan

>  <PDB_ID>  (435) 
nan

>  <Standardized_SMILES>  (435) 
CC(C)Cn1c(N)c(C(=O)COC(=O)c2ccc(O)cc2)c(=O)n(C)c1=O

>  <Name>  (435) 
nan

>  <Pocket>  (435) 
nan

>  <ATP_Site>  (435) 
nan

>  <Peripheral>  (435) 
nan

>  <Num_H_Atoms_ProtBoundConf>  (435) 
nan

>  <Num_Resolved_Atoms>  (435) 
nan

>  <Num_Not_Resolved_Atoms>  (435) 
nan

$$$$
CHEMBL1560254
     RDKit          3D

  0  0  0  0  0  0  0  0  0  0999 V3000
M  V30 BEGIN CTAB
M  V30 COUNTS 33 35 0 0 0
M  V30 BEGIN ATOM
M  V30 1 O 2.207069 -0.303796 1.409695 0
M  V30 2 C 0.945005 -0.491329 1.582733 0
M  V30 3 N 0.799923 -1.891691 1.512326 0
M  V30 4 C 1.889873 -2.808983 1.274382 0
M  V30 5 C 2.225376 -2.785314 -0.167031 0
M  V30 6 C 1.496763 -3.735752 -0.884831 0
M  V30 7 C 1.633061 -3.915354 -2.251123 0
M  V30 8 C 2.522021 -3.131439 -2.955582 0
M  V30 9 C 3.238007 -2.186941 -2.208024 0
M  V30 10 N 3.071974 -2.045025 -0.864012 0
M  V30 11 C 0.114392 0.661069 1.788500 0
M  V30 12 N 0.828372 1.644935 2.414082 0
M  V30 13 N 0.236493 2.803037 2.709209 0
M  V30 14 C -1.044248 3.076765 2.426649 0
M  V30 15 O -1.646612 4.292400 2.744399 0
M  V30 16 C -1.833281 2.142161 1.795416 0
M  V30 17 C -3.151420 2.291976 1.421294 0
M  V30 18 C -3.847050 1.291449 0.761277 0
M  V30 19 C -3.180559 0.103338 0.472863 0
M  V30 20 C -1.869986 -0.025198 0.854602 0
M  V30 21 C -1.187955 0.964893 1.508674 0
M  V30 22 H -0.154654 -2.257539 1.678681 0
M  V30 23 H 1.640112 -3.815623 1.646005 0
M  V30 24 H 2.763146 -2.384482 1.818745 0
M  V30 25 H 0.756640 -4.425975 -0.448698 0
M  V30 26 H 1.071212 -4.651020 -2.811811 0
M  V30 27 H 2.662718 -3.233938 -4.024410 0
M  V30 28 H 3.953911 -1.532638 -2.683926 0
M  V30 29 H -2.531971 4.285924 3.225678 0
M  V30 30 H -3.612917 3.258097 1.681146 0
M  V30 31 H -4.888627 1.473108 0.494177 0
M  V30 32 H -3.732382 -0.693232 -0.053055 0
M  V30 33 H -1.433426 -0.955954 0.567077 0
M  V30 END ATOM
M  V30 BEGIN BOND
M  V30 1 2 1 2
M  V30 2 1 2 3
M  V30 3 1 3 4
M  V30 4 1 4 5
M  V30 5 2 5 6
M  V30 6 1 6 7
M  V30 7 2 7 8
M  V30 8 1 8 9
M  V30 9 2 9 10
M  V30 10 1 2 11
M  V30 11 2 11 12
M  V30 12 1 12 13
M  V30 13 2 13 14
M  V30 14 1 14 15
M  V30 15 1 14 16
M  V30 16 2 16 17
M  V30 17 1 17 18
M  V30 18 2 18 19
M  V30 19 1 19 20
M  V30 20 2 20 21
M  V30 21 1 10 5
M  V30 22 1 21 11
M  V30 23 1 21 16
M  V30 24 1 3 22
M  V30 25 1 4 23
M  V30 26 1 4 24
M  V30 27 1 6 25
M  V30 28 1 7 26
M  V30 29 1 8 27
M  V30 30 1 9 28
M  V30 31 1 15 29
M  V30 32 1 17 30
M  V30 33 1 18 31
M  V30 34 1 19 32
M  V30 35 1 20 33
M  V30 END BOND
M  V30 END CTAB
M  END
>  <Dataset>  (436) 
ChEMBL_Kinases

>  <Ligand_Instance>  (436) 
nan

>  <PDB_ID>  (436) 
nan

>  <Standardized_SMILES>  (436) 
O=C(NCc1ccccn1)c1nnc(O)c2ccccc12

>  <Name>  (436) 
nan

>  <Pocket>  (436) 
nan

>  <ATP_Site>  (436) 
nan

>  <Peripheral>  (436) 
nan

>  <Num_H_Atoms_ProtBoundConf>  (436) 
nan

>  <Num_Resolved_Atoms>  (436) 
nan

>  <Num_Not_Resolved_Atoms>  (436) 
nan

$$$$
CHEMBL1560120
     RDKit          3D

  0  0  0  0  0  0  0  0  0  0999 V3000
M  V30 BEGIN CTAB
M  V30 COUNTS 46 48 0 0 0
M  V30 BEGIN ATOM
M  V30 1 C -0.808961 -4.062000 0.021762 0
M  V30 2 C -0.250163 -3.619270 1.361299 0
M  V30 3 C -0.252874 -4.822945 2.306640 0
M  V30 4 C 1.136092 -3.123332 1.146283 0
M  V30 5 C 1.289733 -1.676148 1.007809 0
M  V30 6 N 2.131119 -0.952033 0.252203 0
M  V30 7 C 2.111856 0.405021 0.266216 0
M  V30 8 C 3.089411 1.041159 -0.606380 0
M  V30 9 C 3.196489 2.410643 -0.705653 0
M  V30 10 C 4.143492 2.974735 -1.548868 0
M  V30 11 C 4.999498 2.215655 -2.307082 0
M  V30 12 C 4.904442 0.830630 -2.218339 0
M  V30 13 C 3.952407 0.297226 -1.370862 0
M  V30 14 N 1.255663 1.082735 1.030691 0
M  V30 15 C 0.363771 0.429693 1.830387 0
M  V30 16 S -0.685825 1.493838 2.786517 0
M  V30 17 C -2.173930 2.004294 1.913908 0
M  V30 18 C -3.095260 0.859406 1.720313 0
M  V30 19 O -3.476454 0.360829 2.962173 0
M  V30 20 C -4.392446 1.247761 1.036304 0
M  V30 21 O -4.222656 1.774297 -0.224937 0
M  V30 22 C 0.427600 -0.934363 1.778163 0
M  V30 23 C -0.488336 -1.713265 2.640007 0
M  V30 24 O -1.136329 -2.702270 1.904749 0
M  V30 25 H -1.900542 -4.207786 0.024535 0
M  V30 26 H -0.559884 -3.283044 -0.751281 0
M  V30 27 H -0.308481 -4.986721 -0.335704 0
M  V30 28 H 0.705226 -4.780569 2.874371 0
M  V30 29 H -1.048268 -4.745054 3.071941 0
M  V30 30 H -0.364983 -5.766041 1.752341 0
M  V30 31 H 1.594604 -3.570296 0.215198 0
M  V30 32 H 1.784129 -3.525628 1.980147 0
M  V30 33 H 2.557352 3.067523 -0.140173 0
M  V30 34 H 4.296591 4.037686 -1.687775 0
M  V30 35 H 5.755466 2.585648 -2.979778 0
M  V30 36 H 5.558784 0.168017 -2.797803 0
M  V30 37 H 3.915322 -0.787954 -1.334514 0
M  V30 38 H -1.941595 2.524314 0.956725 0
M  V30 39 H -2.679328 2.764723 2.572051 0
M  V30 40 H -2.574603 0.084661 1.110459 0
M  V30 41 H -3.519293 1.056638 3.650732 0
M  V30 42 H -5.010265 1.827627 1.721581 0
M  V30 43 H -4.945320 0.274983 0.888571 0
M  V30 44 H -3.263525 1.691479 -0.450890 0
M  V30 45 H -1.247118 -1.072104 3.098408 0
M  V30 46 H 0.065687 -2.226868 3.465457 0
M  V30 END ATOM
M  V30 BEGIN BOND
M  V30 1 1 1 2
M  V30 2 1 2 3
M  V30 3 1 2 4
M  V30 4 1 4 5
M  V30 5 2 5 6
M  V30 6 1 6 7
M  V30 7 1 7 8
M  V30 8 2 8 9
M  V30 9 1 9 10
M  V30 10 2 10 11
M  V30 11 1 11 12
M  V30 12 2 12 13
M  V30 13 2 7 14
M  V30 14 1 14 15
M  V30 15 1 15 16
M  V30 16 1 16 17
M  V30 17 1 17 18
M  V30 18 1 18 19
M  V30 19 1 18 20
M  V30 20 1 20 21
M  V30 21 2 15 22
M  V30 22 1 22 23
M  V30 23 1 23 24
M  V30 24 1 24 2
M  V30 25 1 22 5
M  V30 26 1 13 8
M  V30 27 1 1 25
M  V30 28 1 1 26
M  V30 29 1 1 27
M  V30 30 1 3 28
M  V30 31 1 3 29
M  V30 32 1 3 30
M  V30 33 1 4 31
M  V30 34 1 4 32
M  V30 35 1 9 33
M  V30 36 1 10 34
M  V30 37 1 11 35
M  V30 38 1 12 36
M  V30 39 1 13 37
M  V30 40 1 17 38
M  V30 41 1 17 39
M  V30 42 1 18 40
M  V30 43 1 19 41
M  V30 44 1 20 42
M  V30 45 1 20 43
M  V30 46 1 21 44
M  V30 47 1 23 45
M  V30 48 1 23 46
M  V30 END BOND
M  V30 END CTAB
M  END
>  <Dataset>  (437) 
ChEMBL_Kinases

>  <Ligand_Instance>  (437) 
nan

>  <PDB_ID>  (437) 
nan

>  <Standardized_SMILES>  (437) 
CC1(C)Cc2nc(-c3ccccc3)nc(SCC(O)CO)c2CO1

>  <Name>  (437) 
nan

>  <Pocket>  (437) 
nan

>  <ATP_Site>  (437) 
nan

>  <Peripheral>  (437) 
nan

>  <Num_H_Atoms_ProtBoundConf>  (437) 
nan

>  <Num_Resolved_Atoms>  (437) 
nan

>  <Num_Not_Resolved_Atoms>  (437) 
nan

$$$$
CHEMBL1559863
     RDKit          3D

  0  0  0  0  0  0  0  0  0  0999 V3000
M  V30 BEGIN CTAB
M  V30 COUNTS 31 32 0 0 0
M  V30 BEGIN ATOM
M  V30 1 C -0.700507 -4.121977 3.710140 0
M  V30 2 N -0.195511 -3.889889 2.368245 0
M  V30 3 C -0.625890 -4.377857 1.201028 0
M  V30 4 N 0.120522 -3.914940 0.172416 0
M  V30 5 C 1.060325 -3.107402 0.666495 0
M  V30 6 S 2.287858 -2.247096 -0.225746 0
M  V30 7 O 3.255708 -3.174560 -0.882027 0
M  V30 8 O 3.076116 -1.383719 0.751243 0
M  V30 9 N 1.569604 -1.168122 -1.367987 0
M  V30 10 C 0.731736 -0.107346 -0.932386 0
M  V30 11 C 1.041170 1.089574 -1.582747 0
M  V30 12 C 0.350169 2.251924 -1.311340 0
M  V30 13 C -0.671030 2.259121 -0.383517 0
M  V30 14 O -1.461113 3.333043 0.005367 0
M  V30 15 C -1.039544 4.154657 1.104488 0
M  V30 16 F 0.174258 4.715229 0.817948 0
M  V30 17 F -1.989874 5.114404 1.343739 0
M  V30 18 F -0.957360 3.323823 2.198516 0
M  V30 19 C -0.971731 1.058957 0.259880 0
M  V30 20 C -0.285133 -0.106411 -0.006605 0
M  V30 21 C 0.848390 -3.104069 2.031802 0
M  V30 22 H -0.227437 -3.400965 4.400770 0
M  V30 23 H -1.799055 -4.004067 3.789536 0
M  V30 24 H -0.383134 -5.127420 4.045078 0
M  V30 25 H -1.459784 -5.053984 1.084369 0
M  V30 26 H 1.775474 -1.328198 -2.375769 0
M  V30 27 H 1.823345 1.218595 -2.334827 0
M  V30 28 H 0.539909 3.208514 -1.778690 0
M  V30 29 H -1.756599 0.954017 1.006973 0
M  V30 30 H -0.448974 -1.063529 0.436835 0
M  V30 31 H 1.472727 -2.524621 2.702239 0
M  V30 END ATOM
M  V30 BEGIN BOND
M  V30 1 1 1 2
M  V30 2 1 2 3
M  V30 3 2 3 4
M  V30 4 1 4 5
M  V30 5 1 5 6
M  V30 6 2 6 7
M  V30 7 2 6 8
M  V30 8 1 6 9
M  V30 9 1 9 10
M  V30 10 2 10 11
M  V30 11 1 11 12
M  V30 12 2 12 13
M  V30 13 1 13 14
M  V30 14 1 14 15
M  V30 15 1 15 16
M  V30 16 1 15 17
M  V30 17 1 15 18
M  V30 18 1 13 19
M  V30 19 2 19 20
M  V30 20 2 5 21
M  V30 21 1 21 2
M  V30 22 1 20 10
M  V30 23 1 1 22
M  V30 24 1 1 23
M  V30 25 1 1 24
M  V30 26 1 3 25
M  V30 27 1 9 26
M  V30 28 1 11 27
M  V30 29 1 12 28
M  V30 30 1 19 29
M  V30 31 1 20 30
M  V30 32 1 21 31
M  V30 END BOND
M  V30 END CTAB
M  END
>  <Dataset>  (438) 
ChEMBL_Kinases

>  <Ligand_Instance>  (438) 
nan

>  <PDB_ID>  (438) 
nan

>  <Standardized_SMILES>  (438) 
Cn1cnc(S(=O)(=O)Nc2ccc(OC(F)(F)F)cc2)c1

>  <Name>  (438) 
nan

>  <Pocket>  (438) 
nan

>  <ATP_Site>  (438) 
nan

>  <Peripheral>  (438) 
nan

>  <Num_H_Atoms_ProtBoundConf>  (438) 
nan

>  <Num_Resolved_Atoms>  (438) 
nan

>  <Num_Not_Resolved_Atoms>  (438) 
nan

$$$$
CHEMBL1559671
     RDKit          3D

  0  0  0  0  0  0  0  0  0  0999 V3000
M  V30 BEGIN CTAB
M  V30 COUNTS 47 50 0 0 0
M  V30 BEGIN ATOM
M  V30 1 C 0.671930 -3.915091 -0.866811 0
M  V30 2 C 0.301380 -2.585390 -0.313493 0
M  V30 3 N 1.110636 -1.671989 0.100125 0
M  V30 4 N 0.387129 -0.557627 0.550817 0
M  V30 5 C 1.174978 0.566435 1.053276 0
M  V30 6 N 1.605159 1.472352 0.543309 0
M  V30 7 C 2.324995 2.483707 1.044455 0
M  V30 8 C 2.816181 3.600698 0.240445 0
M  V30 9 C 2.600681 3.747065 -1.115242 0
M  V30 10 C 3.051447 4.788285 -1.896508 0
M  V30 11 C 3.785622 5.780976 -1.281329 0
M  V30 12 C 4.277613 6.910286 -2.114923 0
M  V30 13 C 4.050252 5.717658 0.070906 0
M  V30 14 C 3.557157 4.636358 0.770650 0
M  V30 15 C 2.578355 2.405869 2.385417 0
M  V30 16 S 1.713174 0.788825 2.860901 0
M  V30 17 C -1.005766 -0.812725 0.398517 0
M  V30 18 O -1.821603 0.076031 0.750429 0
M  V30 19 C -1.123800 -2.179550 -0.185967 0
M  V30 20 N -1.768094 -3.094377 0.720576 0
M  V30 21 N -1.754822 -2.985452 1.975624 0
M  V30 22 C -2.459280 -4.004353 2.703128 0
M  V30 23 C -2.116570 -4.464965 3.958933 0
M  V30 24 C -2.843662 -5.442313 4.584770 0
M  V30 25 C -3.951748 -6.011643 3.989658 0
M  V30 26 C -4.344563 -5.589921 2.729071 0
M  V30 27 C -5.521603 -6.117547 1.967091 0
M  V30 28 C -3.585171 -4.600395 2.128018 0
M  V30 29 H 0.214958 -4.098160 -1.860104 0
M  V30 30 H 0.455597 -4.718052 -0.148673 0
M  V30 31 H 1.783445 -3.926637 -1.053717 0
M  V30 32 H 2.019003 2.969539 -1.626683 0
M  V30 33 H 2.817269 4.796468 -2.964687 0
M  V30 34 H 3.590462 7.777546 -2.057899 0
M  V30 35 H 5.316266 7.159029 -1.820803 0
M  V30 36 H 4.321210 6.586931 -3.183758 0
M  V30 37 H 4.625222 6.494581 0.554025 0
M  V30 38 H 3.798659 4.643564 1.830263 0
M  V30 39 H 3.154437 3.129096 3.017765 0
M  V30 40 H -1.643917 -2.147568 -1.172293 0
M  V30 41 H -1.240104 -4.008746 4.419725 0
M  V30 42 H -2.553763 -5.793563 5.582442 0
M  V30 43 H -4.564324 -6.795005 4.449501 0
M  V30 44 H -6.262664 -5.308375 1.816428 0
M  V30 45 H -5.154567 -6.403840 0.955999 0
M  V30 46 H -5.936693 -7.006785 2.504303 0
M  V30 47 H -3.860418 -4.235502 1.127917 0
M  V30 END ATOM
M  V30 BEGIN BOND
M  V30 1 1 1 2
M  V30 2 2 2 3
M  V30 3 1 3 4
M  V30 4 1 4 5
M  V30 5 2 5 6
M  V30 6 1 6 7
M  V30 7 1 7 8
M  V30 8 2 8 9
M  V30 9 1 9 10
M  V30 10 2 10 11
M  V30 11 1 11 12
M  V30 12 1 11 13
M  V30 13 2 13 14
M  V30 14 2 7 15
M  V30 15 1 15 16
M  V30 16 1 4 17
M  V30 17 2 17 18
M  V30 18 1 17 19
M  V30 19 1 19 20
M  V30 20 2 20 21 CFG=2
M  V30 21 1 21 22
M  V30 22 2 22 23
M  V30 23 1 23 24
M  V30 24 2 24 25
M  V30 25 1 25 26
M  V30 26 1 26 27
M  V30 27 2 26 28
M  V30 28 1 19 2
M  V30 29 1 28 22
M  V30 30 1 16 5
M  V30 31 1 14 8
M  V30 32 1 1 29
M  V30 33 1 1 30
M  V30 34 1 1 31
M  V30 35 1 9 32
M  V30 36 1 10 33
M  V30 37 1 12 34
M  V30 38 1 12 35
M  V30 39 1 12 36
M  V30 40 1 13 37
M  V30 41 1 14 38
M  V30 42 1 15 39
M  V30 43 1 19 40
M  V30 44 1 23 41
M  V30 45 1 24 42
M  V30 46 1 25 43
M  V30 47 1 27 44
M  V30 48 1 27 45
M  V30 49 1 27 46
M  V30 50 1 28 47
M  V30 END BOND
M  V30 END CTAB
M  END
>  <Dataset>  (439) 
ChEMBL_Kinases

>  <Ligand_Instance>  (439) 
nan

>  <PDB_ID>  (439) 
nan

>  <Standardized_SMILES>  (439) 
CC1=NN(c2nc(-c3ccc(C)cc3)cs2)C(=O)C1N=Nc1cccc(C)c1

>  <Name>  (439) 
nan

>  <Pocket>  (439) 
nan

>  <ATP_Site>  (439) 
nan

>  <Peripheral>  (439) 
nan

>  <Num_H_Atoms_ProtBoundConf>  (439) 
nan

>  <Num_Resolved_Atoms>  (439) 
nan

>  <Num_Not_Resolved_Atoms>  (439) 
nan

$$$$
CHEMBL156379
     RDKit          3D

  0  0  0  0  0  0  0  0  0  0999 V3000
M  V30 BEGIN CTAB
M  V30 COUNTS 37 39 0 0 0
M  V30 BEGIN ATOM
M  V30 1 O 0.476196 -2.626563 3.359417 0
M  V30 2 C 0.762957 -1.459213 3.007282 0
M  V30 3 N 0.990431 -0.390392 3.956071 0
M  V30 4 C 1.283866 0.749995 3.127861 0
M  V30 5 O 1.525060 1.838671 3.735188 0
M  V30 6 C 1.233588 0.380207 1.706157 0
M  V30 7 C 1.498472 1.443398 0.760010 0
M  V30 8 C 0.381202 2.152660 0.368422 0
M  V30 9 C 0.517401 3.186306 -0.533577 0
M  V30 10 C 1.740144 3.539605 -1.063786 0
M  V30 11 C 2.908090 2.851693 -0.700103 0
M  V30 12 N 4.262382 3.081847 -1.139280 0 CHG=1 VAL=4
M  V30 13 O 4.269656 4.048693 -1.956294 0
M  V30 14 O 4.273632 4.143165 -2.036729 0 CHG=-1 VAL=1
M  V30 15 C 2.716207 1.830714 0.202519 0
M  V30 16 C 0.931520 -0.893888 1.694625 0
M  V30 17 N 0.805549 -1.519055 0.429461 0
M  V30 18 C -0.342421 -2.328168 0.365290 0
M  V30 19 C -1.484308 -1.565909 0.275894 0
M  V30 20 C -2.750426 -2.087321 0.191500 0
M  V30 21 C -2.943325 -3.449629 0.189658 0
M  V30 22 Cl -4.440918 -4.357654 0.094667 0
M  V30 23 C -1.823843 -4.239325 0.274901 0
M  V30 24 C -1.694067 -5.705221 0.289826 0
M  V30 25 O -0.841338 -6.587629 0.305775 0
M  V30 26 O -2.988418 -6.268993 0.290097 0
M  V30 27 C -0.520294 -3.722356 0.365052 0
M  V30 28 H 0.935132 -0.484497 5.011222 0
M  V30 29 H -0.660529 2.048813 0.657422 0
M  V30 30 H -0.302710 3.816616 -0.917195 0
M  V30 31 H 1.937508 4.337265 -1.781506 0
M  V30 32 H 3.489125 1.172456 0.612589 0
M  V30 33 H 1.403935 -1.476472 -0.420263 0
M  V30 34 H -1.538464 -0.470913 0.252461 0
M  V30 35 H -3.679566 -1.531427 0.120840 0
M  V30 36 H -3.158586 -7.206752 -0.091288 0
M  V30 37 H 0.424807 -4.207151 0.438783 0
M  V30 END ATOM
M  V30 BEGIN BOND
M  V30 1 2 1 2
M  V30 2 1 2 3
M  V30 3 1 3 4
M  V30 4 2 4 5
M  V30 5 1 4 6
M  V30 6 1 6 7
M  V30 7 2 7 8
M  V30 8 1 8 9
M  V30 9 2 9 10
M  V30 10 1 10 11
M  V30 11 1 11 12
M  V30 12 2 12 13
M  V30 13 1 12 14
M  V30 14 2 11 15
M  V30 15 2 6 16
M  V30 16 1 16 17
M  V30 17 1 17 18
M  V30 18 2 18 19
M  V30 19 1 19 20
M  V30 20 2 20 21
M  V30 21 1 21 22
M  V30 22 1 21 23
M  V30 23 1 23 24
M  V30 24 2 24 25
M  V30 25 1 24 26
M  V30 26 2 23 27
M  V30 27 1 16 2
M  V30 28 1 27 18
M  V30 29 1 15 7
M  V30 30 1 3 28
M  V30 31 1 8 29
M  V30 32 1 9 30
M  V30 33 1 10 31
M  V30 34 1 15 32
M  V30 35 1 17 33
M  V30 36 1 19 34
M  V30 37 1 20 35
M  V30 38 1 26 36
M  V30 39 1 27 37
M  V30 END BOND
M  V30 END CTAB
M  END
>  <Dataset>  (440) 
ChEMBL_Kinases

>  <Ligand_Instance>  (440) 
nan

>  <PDB_ID>  (440) 
nan

>  <Standardized_SMILES>  (440) 
O=C1NC(=O)C(c2cccc([N+](=O)[O-])c2)=C1Nc1ccc(Cl)c(C(=O)O)c1

>  <Name>  (440) 
nan

>  <Pocket>  (440) 
nan

>  <ATP_Site>  (440) 
nan

>  <Peripheral>  (440) 
nan

>  <Num_H_Atoms_ProtBoundConf>  (440) 
nan

>  <Num_Resolved_Atoms>  (440) 
nan

>  <Num_Not_Resolved_Atoms>  (440) 
nan

$$$$
CHEMBL1557831
     RDKit          3D

  0  0  0  0  0  0  0  0  0  0999 V3000
M  V30 BEGIN CTAB
M  V30 COUNTS 36 38 0 0 0
M  V30 BEGIN ATOM
M  V30 1 O -0.001388 -3.699145 0.728852 0
M  V30 2 C 0.203078 -2.442325 0.520558 0
M  V30 3 N 1.061674 -1.985047 1.544786 0
M  V30 4 N 1.496591 -2.890289 2.519617 0
M  V30 5 C 2.527144 -3.745001 2.703269 0
M  V30 6 N 2.378689 -4.362666 3.899085 0
M  V30 7 N 1.272304 -3.899792 4.451959 0
M  V30 8 C 0.720901 -2.995143 3.615567 0
M  V30 9 C -0.458015 -1.840254 -0.646195 0
M  V30 10 S 0.628787 -1.067569 -1.841945 0
M  V30 11 C 1.471539 0.372286 -1.294637 0
M  V30 12 C 2.710742 0.366044 -0.655719 0
M  V30 13 C 3.433965 1.451860 -0.211902 0
M  V30 14 C 2.838473 2.676139 -0.439656 0
M  V30 15 C 1.620690 2.833984 -1.057837 0
M  V30 16 C 0.987352 1.677101 -1.459684 0
M  V30 17 C -1.433395 -0.834817 -0.165304 0
M  V30 18 C -2.748376 -1.135977 -0.516960 0
M  V30 19 C -3.844583 -0.331855 -0.173803 0
M  V30 20 C -3.638829 0.822883 0.549108 0
M  V30 21 C -2.359771 1.144782 0.908469 0
M  V30 22 C -1.319183 0.323958 0.548231 0
M  V30 23 H 1.287312 -0.981616 1.450600 0
M  V30 24 H 3.260807 -3.792565 1.908108 0
M  V30 25 H -0.195480 -2.565960 3.996918 0
M  V30 26 H -1.008715 -2.641218 -1.221389 0
M  V30 27 H 3.161524 -0.617913 -0.486414 0
M  V30 28 H 4.373773 1.315031 0.264296 0
M  V30 29 H 3.374507 3.569039 -0.105449 0
M  V30 30 H 1.143813 3.787274 -1.241886 0
M  V30 31 H 0.015003 1.786882 -1.954731 0
M  V30 32 H -3.101663 -2.007008 -1.088024 0
M  V30 33 H -4.870739 -0.539989 -0.432390 0
M  V30 34 H -4.376990 1.536924 0.883988 0
M  V30 35 H -2.091595 2.024670 1.473894 0
M  V30 36 H -0.306280 0.560422 0.821605 0
M  V30 END ATOM
M  V30 BEGIN BOND
M  V30 1 2 1 2
M  V30 2 1 2 3
M  V30 3 1 3 4
M  V30 4 1 4 5
M  V30 5 2 5 6
M  V30 6 1 6 7
M  V30 7 2 7 8
M  V30 8 1 2 9
M  V30 9 1 9 10
M  V30 10 1 10 11
M  V30 11 2 11 12
M  V30 12 1 12 13
M  V30 13 2 13 14
M  V30 14 1 14 15
M  V30 15 2 15 16
M  V30 16 1 9 17
M  V30 17 2 17 18
M  V30 18 1 18 19
M  V30 19 2 19 20
M  V30 20 1 20 21
M  V30 21 2 21 22
M  V30 22 1 8 4
M  V30 23 1 16 11
M  V30 24 1 22 17
M  V30 25 1 3 23
M  V30 26 1 5 24
M  V30 27 1 8 25
M  V30 28 1 9 26
M  V30 29 1 12 27
M  V30 30 1 13 28
M  V30 31 1 14 29
M  V30 32 1 15 30
M  V30 33 1 16 31
M  V30 34 1 18 32
M  V30 35 1 19 33
M  V30 36 1 20 34
M  V30 37 1 21 35
M  V30 38 1 22 36
M  V30 END BOND
M  V30 END CTAB
M  END
>  <Dataset>  (441) 
ChEMBL_Kinases

>  <Ligand_Instance>  (441) 
nan

>  <PDB_ID>  (441) 
nan

>  <Standardized_SMILES>  (441) 
O=C(Nn1cnnc1)C(Sc1ccccc1)c1ccccc1

>  <Name>  (441) 
nan

>  <Pocket>  (441) 
nan

>  <ATP_Site>  (441) 
nan

>  <Peripheral>  (441) 
nan

>  <Num_H_Atoms_ProtBoundConf>  (441) 
nan

>  <Num_Resolved_Atoms>  (441) 
nan

>  <Num_Not_Resolved_Atoms>  (441) 
nan

$$$$
CHEMBL1557987
     RDKit          3D

  0  0  0  0  0  0  0  0  0  0999 V3000
M  V30 BEGIN CTAB
M  V30 COUNTS 55 57 0 0 0
M  V30 BEGIN ATOM
M  V30 1 C -0.596104 -2.086429 4.196318 0
M  V30 2 O -1.283588 -1.875767 2.995542 0
M  V30 3 C -0.651084 -1.503501 1.816126 0
M  V30 4 C 0.712854 -1.361606 1.939356 0
M  V30 5 C 1.480404 -0.995506 0.856190 0
M  V30 6 C 2.940291 -0.748657 0.695476 0
M  V30 7 N 3.282383 0.650737 0.794745 0
M  V30 8 C 3.233169 1.588901 1.827254 0
M  V30 9 C 2.827562 1.355841 3.120823 0
M  V30 10 C 2.768298 2.276540 4.143489 0
M  V30 11 C 3.160065 3.555550 3.815484 0
M  V30 12 N 3.223259 4.673920 4.559356 0
M  V30 13 C 3.672788 5.659487 3.762373 0
M  V30 14 O 3.923162 7.001616 4.011461 0
M  V30 15 N 3.892913 5.176301 2.528318 0
M  V30 16 C 3.578802 3.866459 2.542528 0
M  V30 17 C 3.609605 2.891495 1.576918 0
M  V30 18 C 0.789507 -0.786367 -0.341330 0
M  V30 19 C -0.575817 -0.931609 -0.452976 0
M  V30 20 C -1.345463 -1.300234 0.641806 0
M  V30 21 O -2.690124 -1.492298 0.730661 0
M  V30 22 C -3.669378 -1.382847 -0.239908 0
M  V30 23 C -3.552895 -2.292445 -1.394960 0
M  V30 24 O -4.537959 -2.031327 -2.168115 0
M  V30 25 N -2.624153 -3.302810 -1.748082 0
M  V30 26 C -3.030036 -3.870249 -3.032931 0
M  V30 27 C -4.412766 -4.461658 -2.921258 0
M  V30 28 C -2.083101 -5.013360 -3.407769 0
M  V30 29 C -3.022551 -2.856063 -4.126192 0
M  V30 30 H 0.243360 -2.813281 4.088339 0
M  V30 31 H -1.348020 -2.467147 4.940865 0
M  V30 32 H -0.163239 -1.169625 4.624084 0
M  V30 33 H 1.293814 -1.518765 2.821621 0
M  V30 34 H 3.266345 -1.188718 -0.255295 0
M  V30 35 H 3.464676 -1.296378 1.532904 0
M  V30 36 H 3.646700 1.009899 -0.144373 0
M  V30 37 H 2.526758 0.366743 3.393871 0
M  V30 38 H 2.436399 2.012999 5.137629 0
M  V30 39 H 2.984957 4.825650 5.570808 0
M  V30 40 H 3.590343 7.744331 3.422556 0
M  V30 41 H 3.954898 3.216338 0.586905 0
M  V30 42 H 1.239086 -0.494985 -1.288139 0
M  V30 43 H -1.143375 -0.778536 -1.360780 0
M  V30 44 H -4.649119 -1.597818 0.282767 0
M  V30 45 H -3.689910 -0.323675 -0.585045 0
M  V30 46 H -1.888870 -3.400612 -1.016748 0
M  V30 47 H -4.446283 -5.476861 -3.366906 0
M  V30 48 H -5.125611 -3.854295 -3.502209 0
M  V30 49 H -4.743505 -4.524641 -1.862444 0
M  V30 50 H -1.134536 -4.592990 -3.794960 0
M  V30 51 H -1.810019 -5.490596 -2.423626 0
M  V30 52 H -2.565139 -5.729666 -4.075429 0
M  V30 53 H -4.055020 -2.514014 -4.399535 0
M  V30 54 H -2.580983 -3.313145 -5.035099 0
M  V30 55 H -2.378670 -1.975262 -3.905217 0
M  V30 END ATOM
M  V30 BEGIN BOND
M  V30 1 1 1 2
M  V30 2 1 2 3
M  V30 3 2 3 4
M  V30 4 1 4 5
M  V30 5 1 5 6
M  V30 6 1 6 7
M  V30 7 1 7 8
M  V30 8 2 8 9
M  V30 9 1 9 10
M  V30 10 2 10 11
M  V30 11 1 11 12
M  V30 12 1 12 13
M  V30 13 1 13 14
M  V30 14 2 13 15
M  V30 15 1 15 16
M  V30 16 2 16 17
M  V30 17 2 5 18
M  V30 18 1 18 19
M  V30 19 2 19 20
M  V30 20 1 20 21
M  V30 21 1 21 22
M  V30 22 1 22 23
M  V30 23 2 23 24
M  V30 24 1 23 25
M  V30 25 1 25 26
M  V30 26 1 26 27
M  V30 27 1 26 28
M  V30 28 1 26 29
M  V30 29 1 20 3
M  V30 30 1 17 8
M  V30 31 1 16 11
M  V30 32 1 1 30
M  V30 33 1 1 31
M  V30 34 1 1 32
M  V30 35 1 4 33
M  V30 36 1 6 34
M  V30 37 1 6 35
M  V30 38 1 7 36
M  V30 39 1 9 37
M  V30 40 1 10 38
M  V30 41 1 12 39
M  V30 42 1 14 40
M  V30 43 1 17 41
M  V30 44 1 18 42
M  V30 45 1 19 43
M  V30 46 1 22 44
M  V30 47 1 22 45
M  V30 48 1 25 46
M  V30 49 1 27 47
M  V30 50 1 27 48
M  V30 51 1 27 49
M  V30 52 1 28 50
M  V30 53 1 28 51
M  V30 54 1 28 52
M  V30 55 1 29 53
M  V30 56 1 29 54
M  V30 57 1 29 55
M  V30 END BOND
M  V30 END CTAB
M  END
>  <Dataset>  (442) 
ChEMBL_Kinases

>  <Ligand_Instance>  (442) 
nan

>  <PDB_ID>  (442) 
nan

>  <Standardized_SMILES>  (442) 
COc1cc(CNc2ccc3[nH]c(O)nc3c2)ccc1OCC(=O)NC(C)(C)C

>  <Name>  (442) 
nan

>  <Pocket>  (442) 
nan

>  <ATP_Site>  (442) 
nan

>  <Peripheral>  (442) 
nan

>  <Num_H_Atoms_ProtBoundConf>  (442) 
nan

>  <Num_Resolved_Atoms>  (442) 
nan

>  <Num_Not_Resolved_Atoms>  (442) 
nan

$$$$
CHEMBL1558146
     RDKit          3D

  0  0  0  0  0  0  0  0  0  0999 V3000
M  V30 BEGIN CTAB
M  V30 COUNTS 62 65 0 0 0
M  V30 BEGIN ATOM
M  V30 1 C 6.011636 -1.529046 7.610929 0
M  V30 2 O 4.855500 -1.860362 6.892349 0
M  V30 3 C 4.441755 -1.206792 5.719831 0
M  V30 4 C 5.173740 -0.166579 5.191366 0
M  V30 5 C 4.724554 0.444985 4.034708 0
M  V30 6 C 3.562992 0.007310 3.435460 0
M  V30 7 N 2.916674 0.478859 2.256047 0
M  V30 8 C 1.936161 1.508270 2.322740 0
M  V30 9 O 1.546003 2.093359 3.369417 0
M  V30 10 N 1.271938 1.998120 1.165069 0
M  V30 11 C 0.263278 3.047455 1.188742 0
M  V30 12 C -0.944951 2.231001 0.700496 0
M  V30 13 C -0.262781 1.421951 -0.410507 0 CFG=2
M  V30 14 C -0.844501 1.875481 -1.711810 0
M  V30 15 C -2.270528 1.460223 -1.860158 0
M  V30 16 C -2.675445 0.352551 -0.894373 0
M  V30 17 N -1.575368 -0.586066 -0.903595 0
M  V30 18 C -1.503212 -1.891343 -1.462616 0
M  V30 19 O -0.476477 -2.604008 -1.399282 0
M  V30 20 C -2.548658 -2.610797 -2.175749 0
M  V30 21 C -2.893302 -3.875249 -1.718302 0
M  V30 22 C -3.866212 -4.693683 -2.284813 0
M  V30 23 C -4.120516 -6.036543 -1.675024 0
M  V30 24 F -5.312768 -6.551919 -2.128178 0
M  V30 25 F -4.073516 -5.942856 -0.306418 0
M  V30 26 F -3.093043 -6.893908 -2.059872 0
M  V30 27 C -4.525336 -4.187481 -3.384291 0
M  V30 28 C -4.217054 -2.934810 -3.875654 0
M  V30 29 C -4.930939 -2.394956 -5.062558 0
M  V30 30 F -5.464677 -1.131231 -4.813821 0
M  V30 31 F -4.081658 -2.282978 -6.141144 0
M  V30 32 F -5.971406 -3.232484 -5.375017 0
M  V30 33 C -3.241364 -2.150459 -3.283175 0
M  V30 34 C -0.415083 -0.056730 -0.227418 0
M  V30 35 C 1.213067 1.803451 -0.295664 0
M  V30 36 C 2.842498 -1.054239 3.999716 0
M  V30 37 C 3.256918 -1.690184 5.152738 0
M  V30 38 H 6.834312 -1.151716 6.969961 0
M  V30 39 H 5.835970 -0.793609 8.416196 0
M  V30 40 H 6.394315 -2.467651 8.081632 0
M  V30 41 H 6.071559 0.188296 5.634150 0
M  V30 42 H 5.192316 1.260578 3.519214 0
M  V30 43 H 3.096302 0.129219 1.280268 0
M  V30 44 H 0.488494 3.874307 0.485309 0
M  V30 45 H 0.083646 3.420147 2.219078 0
M  V30 46 H -1.753026 2.864656 0.342808 0
M  V30 47 H -1.198093 1.578751 1.569385 0
M  V30 48 H -0.243632 1.521546 -2.577160 0
M  V30 49 H -0.813849 2.998287 -1.712549 0
M  V30 50 H -2.419634 1.073405 -2.898966 0
M  V30 51 H -2.942105 2.313361 -1.731055 0
M  V30 52 H -3.613130 -0.106237 -1.274579 0
M  V30 53 H -2.902374 0.772267 0.099697 0
M  V30 54 H -2.363426 -4.272881 -0.841564 0
M  V30 55 H -5.289534 -4.819112 -3.833553 0
M  V30 56 H -2.956045 -1.162086 -3.622226 0
M  V30 57 H -0.483783 -0.351124 0.845115 0
M  V30 58 H 0.482044 -0.553252 -0.701876 0
M  V30 59 H 1.890676 0.985225 -0.530686 0
M  V30 60 H 1.466982 2.701212 -0.858524 0
M  V30 61 H 1.907758 -1.473273 3.597574 0
M  V30 62 H 2.725163 -2.510871 5.615892 0
M  V30 END ATOM
M  V30 BEGIN BOND
M  V30 1 1 1 2
M  V30 2 1 2 3
M  V30 3 2 3 4
M  V30 4 1 4 5
M  V30 5 2 5 6
M  V30 6 1 6 7
M  V30 7 1 7 8
M  V30 8 2 8 9
M  V30 9 1 8 10
M  V30 10 1 10 11
M  V30 11 1 11 12
M  V30 12 1 13 12 CFG=1
M  V30 13 1 13 14
M  V30 14 1 14 15
M  V30 15 1 15 16
M  V30 16 1 16 17
M  V30 17 1 17 18
M  V30 18 2 18 19
M  V30 19 1 18 20
M  V30 20 2 20 21
M  V30 21 1 21 22
M  V30 22 1 22 23
M  V30 23 1 23 24
M  V30 24 1 23 25
M  V30 25 1 23 26
M  V30 26 2 22 27
M  V30 27 1 27 28
M  V30 28 1 28 29
M  V30 29 1 29 30
M  V30 30 1 29 31
M  V30 31 1 29 32
M  V30 32 2 28 33
M  V30 33 1 17 34
M  V30 34 1 13 35
M  V30 35 1 6 36
M  V30 36 2 36 37
M  V30 37 1 37 3
M  V30 38 1 35 10
M  V30 39 1 34 13
M  V30 40 1 33 20
M  V30 41 1 1 38
M  V30 42 1 1 39
M  V30 43 1 1 40
M  V30 44 1 4 41
M  V30 45 1 5 42
M  V30 46 1 7 43
M  V30 47 1 11 44
M  V30 48 1 11 45
M  V30 49 1 12 46
M  V30 50 1 12 47
M  V30 51 1 14 48
M  V30 52 1 14 49
M  V30 53 1 15 50
M  V30 54 1 15 51
M  V30 55 1 16 52
M  V30 56 1 16 53
M  V30 57 1 21 54
M  V30 58 1 27 55
M  V30 59 1 33 56
M  V30 60 1 34 57
M  V30 61 1 34 58
M  V30 62 1 35 59
M  V30 63 1 35 60
M  V30 64 1 36 61
M  V30 65 1 37 62
M  V30 END BOND
M  V30 END CTAB
M  END
>  <Dataset>  (443) 
ChEMBL_Kinases

>  <Ligand_Instance>  (443) 
nan

>  <PDB_ID>  (443) 
nan

>  <Standardized_SMILES>  (443) 
COc1ccc(NC(=O)N2CC[C@@]3(CCCN(C(=O)c4cc(C(F)(F)F)cc(C(F)(F)F)c4)C3)C2)cc1

>  <Name>  (443) 
nan

>  <Pocket>  (443) 
nan

>  <ATP_Site>  (443) 
nan

>  <Peripheral>  (443) 
nan

>  <Num_H_Atoms_ProtBoundConf>  (443) 
nan

>  <Num_Resolved_Atoms>  (443) 
nan

>  <Num_Not_Resolved_Atoms>  (443) 
nan

$$$$
CHEMBL1558184
     RDKit          3D

  0  0  0  0  0  0  0  0  0  0999 V3000
M  V30 BEGIN CTAB
M  V30 COUNTS 45 48 0 0 0
M  V30 BEGIN ATOM
M  V30 1 C -1.041415 -3.742335 -1.046600 0
M  V30 2 C 0.328444 -3.900169 -0.456403 0
M  V30 3 N 0.735707 -5.041658 0.129582 0
M  V30 4 O 1.961902 -4.902601 0.552729 0
M  V30 5 C 2.402332 -3.687332 0.267659 0
M  V30 6 C 3.708469 -3.023307 0.524897 0
M  V30 7 C 1.388420 -2.989574 -0.387054 0
M  V30 8 C 1.308107 -1.634083 -0.926558 0
M  V30 9 C 1.671426 -1.341807 -2.240460 0
M  V30 10 C 1.572485 -0.032525 -2.694277 0
M  V30 11 C 1.125857 0.998505 -1.891576 0
M  V30 12 N 1.026753 2.264335 -2.319554 0
M  V30 13 C 0.582318 3.213846 -1.476166 0
M  V30 14 N 0.233718 2.898510 -0.195091 0
M  V30 15 C 0.326976 1.615833 0.261129 0
M  V30 16 N -0.075573 1.435156 1.633533 0
M  V30 17 C 0.636260 0.952990 2.790656 0
M  V30 18 C -0.251595 0.021027 3.580369 0
M  V30 19 N -1.454275 0.715960 3.973820 0
M  V30 20 C -2.640828 -0.109502 3.814919 0
M  V30 21 C -1.685381 1.951367 3.292572 0
M  V30 22 C -1.461897 1.834411 1.793171 0
M  V30 23 C 0.782778 0.641956 -0.603790 0
M  V30 24 C 0.854842 -0.613413 -0.096915 0
M  V30 25 H -1.735715 -3.634079 -0.193618 0
M  V30 26 H -1.094902 -2.811547 -1.630298 0
M  V30 27 H -1.235427 -4.610546 -1.693943 0
M  V30 28 H 4.467564 -3.803876 0.776895 0
M  V30 29 H 3.638885 -2.298815 1.369859 0
M  V30 30 H 4.071312 -2.492268 -0.395456 0
M  V30 31 H 2.019975 -2.146428 -2.866922 0
M  V30 32 H 1.847438 0.223251 -3.708843 0
M  V30 33 H 0.493436 4.246511 -1.800052 0
M  V30 34 H 0.816261 1.829959 3.458374 0
M  V30 35 H 1.617497 0.534903 2.569324 0
M  V30 36 H -0.564994 -0.881097 3.026412 0
M  V30 37 H 0.264442 -0.324243 4.501162 0
M  V30 38 H -2.675819 -0.399318 2.724526 0
M  V30 39 H -2.592992 -1.026883 4.452330 0
M  V30 40 H -3.508901 0.517282 4.109141 0
M  V30 41 H -1.111564 2.793479 3.684475 0
M  V30 42 H -2.778227 2.186647 3.423488 0
M  V30 43 H -1.544099 2.891171 1.411303 0
M  V30 44 H -2.179936 1.168582 1.304860 0
M  V30 45 H 0.578768 -0.861282 0.916535 0
M  V30 END ATOM
M  V30 BEGIN BOND
M  V30 1 1 1 2
M  V30 2 2 2 3
M  V30 3 1 3 4
M  V30 4 1 4 5
M  V30 5 1 5 6
M  V30 6 2 5 7
M  V30 7 1 7 8
M  V30 8 2 8 9
M  V30 9 1 9 10
M  V30 10 2 10 11
M  V30 11 1 11 12
M  V30 12 2 12 13
M  V30 13 1 13 14
M  V30 14 2 14 15
M  V30 15 1 15 16
M  V30 16 1 16 17
M  V30 17 1 17 18
M  V30 18 1 18 19
M  V30 19 1 19 20
M  V30 20 1 19 21
M  V30 21 1 21 22
M  V30 22 1 15 23
M  V30 23 2 23 24
M  V30 24 1 7 2
M  V30 25 1 24 8
M  V30 26 1 23 11
M  V30 27 1 22 16
M  V30 28 1 1 25
M  V30 29 1 1 26
M  V30 30 1 1 27
M  V30 31 1 6 28
M  V30 32 1 6 29
M  V30 33 1 6 30
M  V30 34 1 9 31
M  V30 35 1 10 32
M  V30 36 1 13 33
M  V30 37 1 17 34
M  V30 38 1 17 35
M  V30 39 1 18 36
M  V30 40 1 18 37
M  V30 41 1 20 38
M  V30 42 1 20 39
M  V30 43 1 20 40
M  V30 44 1 21 41
M  V30 45 1 21 42
M  V30 46 1 22 43
M  V30 47 1 22 44
M  V30 48 1 24 45
M  V30 END BOND
M  V30 END CTAB
M  END
>  <Dataset>  (444) 
ChEMBL_Kinases

>  <Ligand_Instance>  (444) 
nan

>  <PDB_ID>  (444) 
nan

>  <Standardized_SMILES>  (444) 
Cc1noc(C)c1-c1ccc2ncnc(N3CCN(C)CC3)c2c1

>  <Name>  (444) 
nan

>  <Pocket>  (444) 
nan

>  <ATP_Site>  (444) 
nan

>  <Peripheral>  (444) 
nan

>  <Num_H_Atoms_ProtBoundConf>  (444) 
nan

>  <Num_Resolved_Atoms>  (444) 
nan

>  <Num_Not_Resolved_Atoms>  (444) 
nan

$$$$
CHEMBL1558303
     RDKit          3D

  0  0  0  0  0  0  0  0  0  0999 V3000
M  V30 BEGIN CTAB
M  V30 COUNTS 49 51 0 0 0
M  V30 BEGIN ATOM
M  V30 1 C -2.606082 -4.976726 1.783050 0
M  V30 2 O -1.511640 -4.227101 1.270920 0
M  V30 3 C -1.396395 -4.034439 -0.095325 0
M  V30 4 O -2.386240 -4.625276 -0.637445 0
M  V30 5 N -0.333472 -3.300557 -0.660595 0
M  V30 6 C 0.672460 -2.730542 0.241280 0
M  V30 7 C 1.385741 -1.664888 -0.520748 0
M  V30 8 C 0.507410 -0.788896 -1.358251 0
M  V30 9 C 1.361128 0.274575 -1.987888 0
M  V30 10 C 1.803999 1.314125 -0.995337 0
M  V30 11 N 1.073687 1.185122 0.223498 0
M  V30 12 C 1.528692 2.014972 1.279751 0
M  V30 13 C 0.765744 1.870472 2.516761 0
M  V30 14 C -0.350632 2.584277 2.903081 0
M  V30 15 C -1.012961 2.379998 4.096110 0
M  V30 16 C -0.547326 1.403853 4.976691 0
M  V30 17 C -1.262504 1.218682 6.210458 0
M  V30 18 N -1.850443 1.076688 7.200488 0
M  V30 19 C 0.566801 0.660783 4.638373 0
M  V30 20 C 1.195819 0.902839 3.431488 0
M  V30 21 C -0.324684 1.182789 -0.045458 0
M  V30 22 C -0.660332 -0.187477 -0.649307 0
M  V30 23 C -0.052173 -1.653191 -2.478677 0
M  V30 24 C -0.213361 -3.101048 -2.070668 0
M  V30 25 H -2.495835 -4.982144 2.890063 0
M  V30 26 H -2.549128 -6.024762 1.406507 0
M  V30 27 H -3.564857 -4.539002 1.469183 0
M  V30 28 H 1.430439 -3.511038 0.487880 0
M  V30 29 H 0.231314 -2.407087 1.201334 0
M  V30 30 H 2.044806 -1.108841 0.173598 0
M  V30 31 H 2.075905 -2.182699 -1.243596 0
M  V30 32 H 0.746457 0.723200 -2.820031 0
M  V30 33 H 2.238678 -0.214610 -2.479972 0
M  V30 34 H 1.533912 2.322838 -1.422239 0
M  V30 35 H 2.896816 1.275481 -0.807869 0
M  V30 36 H 2.592544 1.753308 1.474803 0
M  V30 37 H 1.502052 3.081827 0.983985 0
M  V30 38 H -0.695023 3.331219 2.215295 0
M  V30 39 H -1.878080 2.999365 4.293845 0
M  V30 40 H 0.927039 -0.095678 5.321839 0
M  V30 41 H 2.066223 0.284007 3.226056 0
M  V30 42 H -0.517484 1.977140 -0.798158 0
M  V30 43 H -0.945715 1.392386 0.830569 0
M  V30 44 H -1.461328 0.004405 -1.397084 0
M  V30 45 H -1.035120 -0.843430 0.166290 0
M  V30 46 H 0.595662 -1.599474 -3.387161 0
M  V30 47 H -1.074034 -1.300378 -2.757641 0
M  V30 48 H 0.666257 -3.664669 -2.485050 0
M  V30 49 H -1.091835 -3.557850 -2.569098 0
M  V30 END ATOM
M  V30 BEGIN BOND
M  V30 1 1 1 2
M  V30 2 1 2 3
M  V30 3 2 3 4
M  V30 4 1 3 5
M  V30 5 1 5 6
M  V30 6 1 6 7
M  V30 7 1 7 8
M  V30 8 1 8 9
M  V30 9 1 9 10
M  V30 10 1 10 11
M  V30 11 1 11 12
M  V30 12 1 12 13
M  V30 13 2 13 14
M  V30 14 1 14 15
M  V30 15 2 15 16
M  V30 16 1 16 17
M  V30 17 3 17 18
M  V30 18 1 16 19
M  V30 19 2 19 20
M  V30 20 1 11 21
M  V30 21 1 21 22
M  V30 22 1 8 23
M  V30 23 1 23 24
M  V30 24 1 24 5
M  V30 25 1 22 8
M  V30 26 1 20 13
M  V30 27 1 1 25
M  V30 28 1 1 26
M  V30 29 1 1 27
M  V30 30 1 6 28
M  V30 31 1 6 29
M  V30 32 1 7 30
M  V30 33 1 7 31
M  V30 34 1 9 32
M  V30 35 1 9 33
M  V30 36 1 10 34
M  V30 37 1 10 35
M  V30 38 1 12 36
M  V30 39 1 12 37
M  V30 40 1 14 38
M  V30 41 1 15 39
M  V30 42 1 19 40
M  V30 43 1 20 41
M  V30 44 1 21 42
M  V30 45 1 21 43
M  V30 46 1 22 44
M  V30 47 1 22 45
M  V30 48 1 23 46
M  V30 49 1 23 47
M  V30 50 1 24 48
M  V30 51 1 24 49
M  V30 END BOND
M  V30 END CTAB
M  END
>  <Dataset>  (445) 
ChEMBL_Kinases

>  <Ligand_Instance>  (445) 
nan

>  <PDB_ID>  (445) 
nan

>  <Standardized_SMILES>  (445) 
COC(=O)N1CCC2(CCN(Cc3ccc(C#N)cc3)CC2)CC1

>  <Name>  (445) 
nan

>  <Pocket>  (445) 
nan

>  <ATP_Site>  (445) 
nan

>  <Peripheral>  (445) 
nan

>  <Num_H_Atoms_ProtBoundConf>  (445) 
nan

>  <Num_Resolved_Atoms>  (445) 
nan

>  <Num_Not_Resolved_Atoms>  (445) 
nan

$$$$
CHEMBL1558384
     RDKit          3D

  0  0  0  0  0  0  0  0  0  0999 V3000
M  V30 BEGIN CTAB
M  V30 COUNTS 36 39 0 0 0
M  V30 BEGIN ATOM
M  V30 1 C -0.595666 -5.706223 1.258105 0
M  V30 2 C -0.283779 -4.253522 1.139062 0
M  V30 3 N 0.905023 -3.898730 1.664260 0
M  V30 4 C 1.346933 -2.623399 1.643479 0
M  V30 5 C 2.564943 -2.259255 2.181492 0
M  V30 6 N 2.962164 -0.958339 2.133648 0
M  V30 7 C 2.136629 -0.051925 1.551158 0
M  V30 8 O 2.643619 1.240425 1.559622 0
M  V30 9 C 1.957086 2.315149 1.014612 0
M  V30 10 C 2.168688 2.620383 -0.320460 0
M  V30 11 C 1.511536 3.681774 -0.919287 0
M  V30 12 C 0.619829 4.475589 -0.205334 0
M  V30 13 C 0.427095 4.146432 1.131465 0
M  V30 14 Cl -0.682098 5.079804 2.147266 0
M  V30 15 C 1.076771 3.088153 1.744642 0
M  V30 16 N 0.947783 -0.424378 1.029240 0
M  V30 17 C 0.514478 -1.692124 1.052845 0
M  V30 18 N -0.677030 -2.012423 0.519781 0
M  V30 19 C -1.546685 -1.031518 -0.098799 0
M  V30 20 C -2.281600 -1.471813 -1.375530 0
M  V30 21 C -1.237700 -0.363674 -1.362287 0
M  V30 22 C -1.077741 -3.295953 0.562637 0
M  V30 23 O -2.168750 -3.717662 0.098802 0
M  V30 24 H -0.684059 -5.970325 2.346075 0
M  V30 25 H 0.166586 -6.301035 0.755573 0
M  V30 26 H -1.618119 -5.839062 0.846328 0
M  V30 27 H 3.156642 -3.048269 2.625312 0
M  V30 28 H 2.840791 2.071814 -0.976018 0
M  V30 29 H 1.665208 3.933664 -1.960214 0
M  V30 30 H 0.079079 5.316557 -0.621511 0
M  V30 31 H 0.898249 2.865064 2.789699 0
M  V30 32 H -2.233330 -0.550415 0.626974 0
M  V30 33 H -2.003687 -2.430585 -1.845332 0
M  V30 34 H -3.322286 -1.157473 -1.527691 0
M  V30 35 H -0.334772 -0.585768 -1.928263 0
M  V30 36 H -1.628164 0.682192 -1.486365 0
M  V30 END ATOM
M  V30 BEGIN BOND
M  V30 1 1 1 2
M  V30 2 2 2 3
M  V30 3 1 3 4
M  V30 4 2 4 5
M  V30 5 1 5 6
M  V30 6 2 6 7
M  V30 7 1 7 8
M  V30 8 1 8 9
M  V30 9 2 9 10
M  V30 10 1 10 11
M  V30 11 2 11 12
M  V30 12 1 12 13
M  V30 13 1 13 14
M  V30 14 2 13 15
M  V30 15 1 7 16
M  V30 16 2 16 17
M  V30 17 1 17 18
M  V30 18 1 18 19
M  V30 19 1 19 20
M  V30 20 1 20 21
M  V30 21 1 18 22
M  V30 22 2 22 23
M  V30 23 1 22 2
M  V30 24 1 17 4
M  V30 25 1 21 19
M  V30 26 1 15 9
M  V30 27 1 1 24
M  V30 28 1 1 25
M  V30 29 1 1 26
M  V30 30 1 5 27
M  V30 31 1 10 28
M  V30 32 1 11 29
M  V30 33 1 12 30
M  V30 34 1 15 31
M  V30 35 1 19 32
M  V30 36 1 20 33
M  V30 37 1 20 34
M  V30 38 1 21 35
M  V30 39 1 21 36
M  V30 END BOND
M  V30 END CTAB
M  END
>  <Dataset>  (446) 
ChEMBL_Kinases

>  <Ligand_Instance>  (446) 
nan

>  <PDB_ID>  (446) 
nan

>  <Standardized_SMILES>  (446) 
Cc1nc2cnc(Oc3cccc(Cl)c3)nc2n(C2CC2)c1=O

>  <Name>  (446) 
nan

>  <Pocket>  (446) 
nan

>  <ATP_Site>  (446) 
nan

>  <Peripheral>  (446) 
nan

>  <Num_H_Atoms_ProtBoundConf>  (446) 
nan

>  <Num_Resolved_Atoms>  (446) 
nan

>  <Num_Not_Resolved_Atoms>  (446) 
nan

$$$$
CHEMBL1558400
     RDKit          3D

  0  0  0  0  0  0  0  0  0  0999 V3000
M  V30 BEGIN CTAB
M  V30 COUNTS 35 37 0 0 0
M  V30 BEGIN ATOM
M  V30 1 C 0.588996 -3.670510 4.636366 0
M  V30 2 O 0.529592 -2.862687 3.478505 0
M  V30 3 C 1.561266 -1.942620 3.198143 0
M  V30 4 N 2.583626 -1.872920 4.068749 0
M  V30 5 C 3.568904 -1.015393 3.829854 0
M  V30 6 N 3.464174 -0.277869 2.725015 0
M  V30 7 C 2.485022 -0.317877 1.854683 0
M  V30 8 C 1.437248 -1.186371 2.049599 0
M  V30 9 N 0.317570 -1.361757 1.233763 0
M  V30 10 C 0.089215 -0.719425 0.145193 0
M  V30 11 C -1.174327 -1.081599 -0.552622 0
M  V30 12 C -1.658752 0.181624 -1.218545 0
M  V30 13 C -2.967503 -0.007237 -1.933253 0
M  V30 14 C -1.788899 1.278610 -0.198142 0
M  V30 15 C -0.600055 0.579717 -2.244901 0
M  V30 16 C 0.671121 0.921504 -1.524270 0
M  V30 17 N 1.516252 1.921259 -2.085740 0
M  V30 18 C 0.961156 0.296462 -0.412887 0
M  V30 19 S 2.482503 0.737362 0.409947 0
M  V30 20 H -0.436724 -3.982712 4.939968 0
M  V30 21 H 1.008523 -3.126091 5.507221 0
M  V30 22 H 1.180798 -4.599225 4.478875 0
M  V30 23 H 4.360481 -1.005432 4.564020 0
M  V30 24 H -0.960599 -1.804349 -1.392881 0
M  V30 25 H -1.923182 -1.509361 0.135079 0
M  V30 26 H -2.839894 -0.274120 -3.002538 0
M  V30 27 H -3.522829 -0.841842 -1.458366 0
M  V30 28 H -3.521645 0.951551 -1.864608 0
M  V30 29 H -0.881258 1.911622 -0.141815 0
M  V30 30 H -2.632738 1.935622 -0.529068 0
M  V30 31 H -2.020336 0.815391 0.779812 0
M  V30 32 H -0.491050 -0.227509 -2.969189 0
M  V30 33 H -1.012152 1.482814 -2.741835 0
M  V30 34 H 1.634836 2.902203 -1.702415 0
M  V30 35 H 1.884822 2.899707 -2.032428 0
M  V30 END ATOM
M  V30 BEGIN BOND
M  V30 1 1 1 2
M  V30 2 1 2 3
M  V30 3 2 3 4
M  V30 4 1 4 5
M  V30 5 2 5 6
M  V30 6 1 6 7
M  V30 7 2 7 8
M  V30 8 1 8 9
M  V30 9 2 9 10
M  V30 10 1 10 11
M  V30 11 1 11 12
M  V30 12 1 12 13
M  V30 13 1 12 14
M  V30 14 1 12 15
M  V30 15 1 15 16
M  V30 16 1 16 17
M  V30 17 2 16 18
M  V30 18 1 18 19
M  V30 19 1 8 3
M  V30 20 1 18 10
M  V30 21 1 19 7
M  V30 22 1 1 20
M  V30 23 1 1 21
M  V30 24 1 1 22
M  V30 25 1 5 23
M  V30 26 1 11 24
M  V30 27 1 11 25
M  V30 28 1 13 26
M  V30 29 1 13 27
M  V30 30 1 13 28
M  V30 31 1 14 29
M  V30 32 1 14 30
M  V30 33 1 14 31
M  V30 34 1 15 32
M  V30 35 1 15 33
M  V30 36 1 17 34
M  V30 37 1 17 35
M  V30 END BOND
M  V30 END CTAB
M  END
>  <Dataset>  (447) 
ChEMBL_Kinases

>  <Ligand_Instance>  (447) 
nan

>  <PDB_ID>  (447) 
nan

>  <Standardized_SMILES>  (447) 
COc1ncnc2c1N=C1CC(C)(C)CC(N)=C1S2

>  <Name>  (447) 
nan

>  <Pocket>  (447) 
nan

>  <ATP_Site>  (447) 
nan

>  <Peripheral>  (447) 
nan

>  <Num_H_Atoms_ProtBoundConf>  (447) 
nan

>  <Num_Resolved_Atoms>  (447) 
nan

>  <Num_Not_Resolved_Atoms>  (447) 
nan

$$$$
CHEMBL1559588
     RDKit          3D

  0  0  0  0  0  0  0  0  0  0999 V3000
M  V30 BEGIN CTAB
M  V30 COUNTS 41 43 0 0 0
M  V30 BEGIN ATOM
M  V30 1 C -1.413768 -4.547887 1.420577 0
M  V30 2 C 0.020475 -4.838529 1.720428 0
M  V30 3 O 0.815527 -3.906416 0.993465 0
M  V30 4 C 2.194775 -3.992969 1.147907 0
M  V30 5 O 2.261087 -4.952386 1.938318 0
M  V30 6 C 3.095816 -3.024503 0.411509 0
M  V30 7 S 3.116923 -1.444731 1.326630 0
M  V30 8 C 1.491085 -0.685848 1.188717 0
M  V30 9 N 1.130733 0.203798 0.261044 0
M  V30 10 C -0.105037 0.716145 0.195863 0
M  V30 11 N -0.474275 1.677532 -0.788340 0
M  V30 12 C 0.500209 2.105520 -1.771440 0
M  V30 13 C 1.690682 2.678018 -1.092488 0
M  V30 14 C 1.840381 4.040317 -0.795504 0
M  V30 15 C 3.053425 4.256711 -0.166140 0
M  V30 16 C 3.590900 3.003571 -0.108717 0
M  V30 17 O 2.784386 2.124254 -0.647479 0
M  V30 18 C -0.988871 0.248674 1.167078 0
M  V30 19 C -2.274471 0.696723 1.179041 0
M  V30 20 C -3.183499 0.237609 2.131480 0
M  V30 21 C -2.851217 -0.678725 3.103125 0
M  V30 22 C -1.536027 -1.133457 3.088280 0
M  V30 23 C -0.655943 -0.668181 2.139217 0
M  V30 24 N 0.626432 -1.138200 2.135211 0
M  V30 25 H -1.526668 -3.649127 0.760470 0
M  V30 26 H -1.959155 -4.301502 2.365477 0
M  V30 27 H -1.931176 -5.427250 0.997689 0
M  V30 28 H 0.320287 -5.868942 1.464190 0
M  V30 29 H 0.189422 -4.713103 2.822836 0
M  V30 30 H 4.108063 -3.459844 0.414036 0
M  V30 31 H 2.692919 -2.840543 -0.580599 0
M  V30 32 H -1.411401 2.079976 -0.826553 0
M  V30 33 H 0.787042 1.286341 -2.462339 0
M  V30 34 H 0.030029 2.935407 -2.372093 0
M  V30 35 H 1.165147 4.868403 -0.992092 0
M  V30 36 H 3.490546 5.172711 0.198222 0
M  V30 37 H 4.548548 2.712167 0.312878 0
M  V30 38 H -2.684864 1.410474 0.485039 0
M  V30 39 H -4.206018 0.590333 2.147497 0
M  V30 40 H -3.551868 -1.024844 3.825255 0
M  V30 41 H -1.237748 -1.843749 3.817387 0
M  V30 END ATOM
M  V30 BEGIN BOND
M  V30 1 1 1 2
M  V30 2 1 2 3
M  V30 3 1 3 4
M  V30 4 2 4 5
M  V30 5 1 4 6
M  V30 6 1 6 7
M  V30 7 1 7 8
M  V30 8 2 8 9
M  V30 9 1 9 10
M  V30 10 1 10 11
M  V30 11 1 11 12
M  V30 12 1 12 13
M  V30 13 2 13 14
M  V30 14 1 14 15
M  V30 15 2 15 16
M  V30 16 1 16 17
M  V30 17 2 10 18
M  V30 18 1 18 19
M  V30 19 2 19 20
M  V30 20 1 20 21
M  V30 21 2 21 22
M  V30 22 1 22 23
M  V30 23 2 23 24
M  V30 24 1 24 8
M  V30 25 1 17 13
M  V30 26 1 23 18
M  V30 27 1 1 25
M  V30 28 1 1 26
M  V30 29 1 1 27
M  V30 30 1 2 28
M  V30 31 1 2 29
M  V30 32 1 6 30
M  V30 33 1 6 31
M  V30 34 1 11 32
M  V30 35 1 12 33
M  V30 36 1 12 34
M  V30 37 1 14 35
M  V30 38 1 15 36
M  V30 39 1 16 37
M  V30 40 1 19 38
M  V30 41 1 20 39
M  V30 42 1 21 40
M  V30 43 1 22 41
M  V30 END BOND
M  V30 END CTAB
M  END
>  <Dataset>  (448) 
ChEMBL_Kinases

>  <Ligand_Instance>  (448) 
nan

>  <PDB_ID>  (448) 
nan

>  <Standardized_SMILES>  (448) 
CCOC(=O)CSc1nc(NCc2ccco2)c2ccccc2n1

>  <Name>  (448) 
nan

>  <Pocket>  (448) 
nan

>  <ATP_Site>  (448) 
nan

>  <Peripheral>  (448) 
nan

>  <Num_H_Atoms_ProtBoundConf>  (448) 
nan

>  <Num_Resolved_Atoms>  (448) 
nan

>  <Num_Not_Resolved_Atoms>  (448) 
nan

$$$$
CHEMBL1558700
     RDKit          3D

  0  0  0  0  0  0  0  0  0  0999 V3000
M  V30 BEGIN CTAB
M  V30 COUNTS 38 39 0 0 0
M  V30 BEGIN ATOM
M  V30 1 C -0.804224 -3.717174 -0.829381 0
M  V30 2 C -0.492123 -3.460347 0.452096 0
M  V30 3 C 0.892650 -3.290918 0.909257 0
M  V30 4 N 1.161851 -2.002201 1.498608 0
M  V30 5 C 1.585394 -0.905607 0.839086 0
M  V30 6 C 1.866015 -0.776453 -0.616372 0
M  V30 7 N 0.698556 -0.365033 -1.372781 0
M  V30 8 C 0.077327 0.871675 -1.070952 0
M  V30 9 O 0.518446 1.631973 -0.151434 0
M  V30 10 C -1.111967 1.253256 -1.867466 0
M  V30 11 C -1.670198 2.593582 -1.437749 0
M  V30 12 C -0.671999 3.699611 -1.592935 0
M  V30 13 N 1.715724 0.089464 1.757182 0
M  V30 14 C 1.380678 -0.364778 2.983300 0
M  V30 15 C 1.343669 0.235925 4.228273 0
M  V30 16 C 0.949719 -0.490290 5.342485 0
M  V30 17 C 0.607397 -1.813640 5.130530 0
M  V30 18 C 0.629411 -2.452689 3.909718 0
M  V30 19 C 1.024840 -1.707569 2.818899 0
M  V30 20 H -1.848176 -3.834485 -1.117869 0
M  V30 21 H -1.853866 -3.828671 -1.084658 0
M  V30 22 H -1.240340 -3.359307 1.243089 0
M  V30 23 H 1.190981 -4.074041 1.632354 0
M  V30 24 H 1.559866 -3.446289 0.017874 0
M  V30 25 H 2.247808 -1.725053 -1.037344 0
M  V30 26 H 2.697542 -0.047207 -0.712135 0
M  V30 27 H 0.315312 -0.968663 -2.132280 0
M  V30 28 H -1.889273 0.481365 -1.774164 0
M  V30 29 H -0.862453 1.349026 -2.960422 0
M  V30 30 H -2.541319 2.821838 -2.082836 0
M  V30 31 H -1.978793 2.499119 -0.379351 0
M  V30 32 H -0.040265 3.842952 -0.678917 0
M  V30 33 H -1.211310 4.625362 -1.834474 0
M  V30 34 H 0.037225 3.435576 -2.413848 0
M  V30 35 H 1.625284 1.279376 4.325552 0
M  V30 36 H 0.910793 -0.052090 6.321889 0
M  V30 37 H 0.298119 -2.374908 6.020367 0
M  V30 38 H 0.356419 -3.473820 3.798989 0
M  V30 END ATOM
M  V30 BEGIN BOND
M  V30 1 2 1 2
M  V30 2 1 2 3
M  V30 3 1 3 4
M  V30 4 1 4 5
M  V30 5 1 5 6
M  V30 6 1 6 7
M  V30 7 1 7 8
M  V30 8 2 8 9
M  V30 9 1 8 10
M  V30 10 1 10 11
M  V30 11 1 11 12
M  V30 12 2 5 13
M  V30 13 1 13 14
M  V30 14 2 14 15
M  V30 15 1 15 16
M  V30 16 2 16 17
M  V30 17 1 17 18
M  V30 18 2 18 19
M  V30 19 1 19 4
M  V30 20 1 19 14
M  V30 21 1 1 20
M  V30 22 1 1 21
M  V30 23 1 2 22
M  V30 24 1 3 23
M  V30 25 1 3 24
M  V30 26 1 6 25
M  V30 27 1 6 26
M  V30 28 1 7 27
M  V30 29 1 10 28
M  V30 30 1 10 29
M  V30 31 1 11 30
M  V30 32 1 11 31
M  V30 33 1 12 32
M  V30 34 1 12 33
M  V30 35 1 12 34
M  V30 36 1 15 35
M  V30 37 1 16 36
M  V30 38 1 17 37
M  V30 39 1 18 38
M  V30 END BOND
M  V30 END CTAB
M  END
>  <Dataset>  (449) 
ChEMBL_Kinases

>  <Ligand_Instance>  (449) 
nan

>  <PDB_ID>  (449) 
nan

>  <Standardized_SMILES>  (449) 
C=CCn1c(CNC(=O)CCC)nc2ccccc21

>  <Name>  (449) 
nan

>  <Pocket>  (449) 
nan

>  <ATP_Site>  (449) 
nan

>  <Peripheral>  (449) 
nan

>  <Num_H_Atoms_ProtBoundConf>  (449) 
nan

>  <Num_Resolved_Atoms>  (449) 
nan

>  <Num_Not_Resolved_Atoms>  (449) 
nan

$$$$
CHEMBL1558864
     RDKit          3D

  0  0  0  0  0  0  0  0  0  0999 V3000
M  V30 BEGIN CTAB
M  V30 COUNTS 67 70 0 0 0
M  V30 BEGIN ATOM
M  V30 1 C 1.592370 -3.467021 4.119352 0
M  V30 2 C 3.029862 -3.013237 3.996793 0
M  V30 3 O 3.036918 -1.776537 3.297290 0
M  V30 4 C 2.372945 -0.655295 3.773655 0
M  V30 5 O 1.716696 -0.658919 4.862215 0
M  V30 6 C 2.476878 0.572899 2.919339 0
M  V30 7 C 3.917118 0.999934 2.754156 0
M  V30 8 C 4.182381 1.562927 1.380215 0
M  V30 9 C 3.019851 2.458191 0.947285 0
M  V30 10 N 1.873210 1.603629 0.853054 0
M  V30 11 C 0.850743 2.125188 0.054942 0
M  V30 12 O 1.424281 3.194752 -0.255685 0
M  V30 13 C -0.492575 1.842487 -0.454956 0
M  V30 14 C -1.532340 1.658078 0.608289 0
M  V30 15 C -2.895690 1.776145 -0.031902 0
M  V30 16 N -2.916732 1.509683 -1.401299 0
M  V30 17 S -3.331773 0.054888 -2.036782 0
M  V30 18 O -3.378168 0.120207 -3.557596 0
M  V30 19 O -4.764126 -0.291023 -1.645101 0
M  V30 20 N -2.400239 -1.330948 -1.657017 0
M  V30 21 C -2.381324 -1.666224 -0.252794 0
M  V30 22 C -2.733378 -3.156360 -0.101335 0
M  V30 23 C -1.701026 -3.845324 -0.973055 0
M  V30 24 C -2.196639 -3.677314 -2.394106 0
M  V30 25 C -2.954507 -2.390245 -2.496047 0
M  V30 26 O -1.523686 -5.172415 -0.626452 0
M  V30 27 C -0.518933 -5.068954 0.357417 0
M  V30 28 C 0.437209 -4.128361 -0.347754 0
M  V30 29 O -0.460247 -3.224285 -0.913104 0
M  V30 30 C -2.116673 2.415476 -2.175632 0
M  V30 31 C -0.966660 2.989230 -1.358215 0
M  V30 32 C 1.866634 0.325098 1.560829 0
M  V30 33 H 1.018986 -3.039098 3.269522 0
M  V30 34 H 1.513899 -4.562859 4.076587 0
M  V30 35 H 1.157046 -3.037128 5.045908 0
M  V30 36 H 3.601610 -3.752014 3.425925 0
M  V30 37 H 3.463687 -2.795625 4.998853 0
M  V30 38 H 1.863593 1.358321 3.401273 0
M  V30 39 H 4.647579 0.186797 2.944984 0
M  V30 40 H 4.111750 1.807970 3.491736 0
M  V30 41 H 4.315819 0.766908 0.624602 0
M  V30 42 H 5.078345 2.183423 1.425709 0
M  V30 43 H 2.913696 3.325234 1.605645 0
M  V30 44 H 3.296872 2.768398 -0.100690 0
M  V30 45 H -0.505000 0.921382 -1.089940 0
M  V30 46 H -1.419219 2.421272 1.431768 0
M  V30 47 H -1.398187 0.679707 1.130701 0
M  V30 48 H -3.183608 2.863039 0.108911 0
M  V30 49 H -3.608441 1.218907 0.593608 0
M  V30 50 H -3.060598 -1.096659 0.376948 0
M  V30 51 H -1.312905 -1.658575 0.119956 0
M  V30 52 H -3.759484 -3.358299 -0.456489 0
M  V30 53 H -2.578426 -3.409286 0.955366 0
M  V30 54 H -2.934255 -4.507705 -2.564221 0
M  V30 55 H -1.395299 -3.816277 -3.131769 0
M  V30 56 H -4.040533 -2.500220 -2.302716 0
M  V30 57 H -2.851068 -2.018239 -3.539209 0
M  V30 58 H -0.888693 -4.528193 1.267528 0
M  V30 59 H -0.078038 -6.058911 0.583669 0
M  V30 60 H 0.916652 -4.733265 -1.146613 0
M  V30 61 H 1.151106 -3.626096 0.307074 0
M  V30 62 H -2.755294 3.280126 -2.454224 0
M  V30 63 H -1.736098 1.925417 -3.083734 0
M  V30 64 H -0.128004 3.327434 -1.993267 0
M  V30 65 H -1.326089 3.778849 -0.666784 0
M  V30 66 H 2.523771 -0.381162 1.013129 0
M  V30 67 H 0.863210 -0.120137 1.629029 0
M  V30 END ATOM
M  V30 BEGIN BOND
M  V30 1 1 1 2
M  V30 2 1 2 3
M  V30 3 1 3 4
M  V30 4 2 4 5
M  V30 5 1 4 6
M  V30 6 1 6 7
M  V30 7 1 7 8
M  V30 8 1 8 9
M  V30 9 1 9 10
M  V30 10 1 10 11
M  V30 11 2 11 12
M  V30 12 1 11 13
M  V30 13 1 13 14
M  V30 14 1 14 15
M  V30 15 1 15 16
M  V30 16 1 16 17
M  V30 17 2 17 18
M  V30 18 2 17 19
M  V30 19 1 17 20
M  V30 20 1 20 21
M  V30 21 1 21 22
M  V30 22 1 22 23
M  V30 23 1 23 24
M  V30 24 1 24 25
M  V30 25 1 23 26
M  V30 26 1 26 27
M  V30 27 1 27 28
M  V30 28 1 28 29
M  V30 29 1 16 30
M  V30 30 1 30 31
M  V30 31 1 10 32
M  V30 32 1 32 6
M  V30 33 1 31 13
M  V30 34 1 25 20
M  V30 35 1 29 23
M  V30 36 1 1 33
M  V30 37 1 1 34
M  V30 38 1 1 35
M  V30 39 1 2 36
M  V30 40 1 2 37
M  V30 41 1 6 38
M  V30 42 1 7 39
M  V30 43 1 7 40
M  V30 44 1 8 41
M  V30 45 1 8 42
M  V30 46 1 9 43
M  V30 47 1 9 44
M  V30 48 1 13 45
M  V30 49 1 14 46
M  V30 50 1 14 47
M  V30 51 1 15 48
M  V30 52 1 15 49
M  V30 53 1 21 50
M  V30 54 1 21 51
M  V30 55 1 22 52
M  V30 56 1 22 53
M  V30 57 1 24 54
M  V30 58 1 24 55
M  V30 59 1 25 56
M  V30 60 1 25 57
M  V30 61 1 27 58
M  V30 62 1 27 59
M  V30 63 1 28 60
M  V30 64 1 28 61
M  V30 65 1 30 62
M  V30 66 1 30 63
M  V30 67 1 31 64
M  V30 68 1 31 65
M  V30 69 1 32 66
M  V30 70 1 32 67
M  V30 END BOND
M  V30 END CTAB
M  END
>  <Dataset>  (450) 
ChEMBL_Kinases

>  <Ligand_Instance>  (450) 
nan

>  <PDB_ID>  (450) 
nan

>  <Standardized_SMILES>  (450) 
CCOC(=O)C1CCCN(C(=O)C2CCN(S(=O)(=O)N3CCC4(CC3)OCCO4)CC2)C1

>  <Name>  (450) 
nan

>  <Pocket>  (450) 
nan

>  <ATP_Site>  (450) 
nan

>  <Peripheral>  (450) 
nan

>  <Num_H_Atoms_ProtBoundConf>  (450) 
nan

>  <Num_Resolved_Atoms>  (450) 
nan

>  <Num_Not_Resolved_Atoms>  (450) 
nan

$$$$
CHEMBL1559061
     RDKit          3D

  0  0  0  0  0  0  0  0  0  0999 V3000
M  V30 BEGIN CTAB
M  V30 COUNTS 32 34 0 0 0
M  V30 BEGIN ATOM
M  V30 1 C -4.265085 -4.092607 1.636236 0
M  V30 2 C -3.068532 -3.390877 1.087546 0
M  V30 3 C -1.982333 -3.166355 1.936582 0
M  V30 4 C -0.876933 -2.508572 1.383450 0
M  V30 5 C -0.903786 -2.112414 0.035568 0
M  V30 6 N 0.377797 -1.477357 -0.207260 0
M  V30 7 C 0.566840 -0.172730 -0.804933 0
M  V30 8 N -0.102963 0.129123 -1.830996 0
M  V30 9 C 0.132374 1.418901 -2.362836 0
M  V30 10 O -0.444481 1.832794 -3.398344 0
M  V30 11 S 1.346609 2.258080 -1.301052 0
M  V30 12 C 1.517034 0.813769 -0.240031 0
M  V30 13 C 2.297644 0.670805 0.788788 0
M  V30 14 C 3.180921 1.737865 1.227461 0
M  V30 15 C 3.413323 1.945233 2.587317 0
M  V30 16 C 4.290671 3.025927 2.666582 0
M  V30 17 C 4.537211 3.408760 1.354242 0
M  V30 18 O 3.858066 2.617379 0.532682 0
M  V30 19 C -1.977444 -2.341051 -0.779155 0
M  V30 20 C -3.079353 -2.994752 -0.234842 0
M  V30 21 H -4.489700 -3.743658 2.685185 0
M  V30 22 H -4.102274 -5.178903 1.685382 0
M  V30 23 H -5.145647 -3.902026 1.020094 0
M  V30 24 H -2.066460 -3.511445 2.950406 0
M  V30 25 H -0.101826 -2.395868 2.137153 0
M  V30 26 H 1.285286 -1.987826 0.062556 0
M  V30 27 H 2.257718 -0.271777 1.299819 0
M  V30 28 H 3.056271 1.451449 3.482766 0
M  V30 29 H 4.688974 3.460529 3.599569 0
M  V30 30 H 5.203419 4.247475 1.098978 0
M  V30 31 H -1.812552 -1.966929 -1.767615 0
M  V30 32 H -3.892905 -3.147243 -0.923926 0
M  V30 END ATOM
M  V30 BEGIN BOND
M  V30 1 1 1 2
M  V30 2 2 2 3
M  V30 3 1 3 4
M  V30 4 2 4 5
M  V30 5 1 5 6
M  V30 6 1 6 7
M  V30 7 2 7 8
M  V30 8 1 8 9
M  V30 9 2 9 10
M  V30 10 1 9 11
M  V30 11 1 11 12
M  V30 12 2 12 13
M  V30 13 1 13 14
M  V30 14 2 14 15
M  V30 15 1 15 16
M  V30 16 2 16 17
M  V30 17 1 17 18
M  V30 18 1 5 19
M  V30 19 2 19 20
M  V30 20 1 20 2
M  V30 21 1 12 7
M  V30 22 1 18 14
M  V30 23 1 1 21
M  V30 24 1 1 22
M  V30 25 1 1 23
M  V30 26 1 3 24
M  V30 27 1 4 25
M  V30 28 1 6 26
M  V30 29 1 13 27
M  V30 30 1 15 28
M  V30 31 1 16 29
M  V30 32 1 17 30
M  V30 33 1 19 31
M  V30 34 1 20 32
M  V30 END BOND
M  V30 END CTAB
M  END
>  <Dataset>  (451) 
ChEMBL_Kinases

>  <Ligand_Instance>  (451) 
nan

>  <PDB_ID>  (451) 
nan

>  <Standardized_SMILES>  (451) 
Cc1ccc(NC2=NC(=O)S/C2=C\c2ccco2)cc1

>  <Name>  (451) 
nan

>  <Pocket>  (451) 
nan

>  <ATP_Site>  (451) 
nan

>  <Peripheral>  (451) 
nan

>  <Num_H_Atoms_ProtBoundConf>  (451) 
nan

>  <Num_Resolved_Atoms>  (451) 
nan

>  <Num_Not_Resolved_Atoms>  (451) 
nan

$$$$
CHEMBL1559069
     RDKit          3D

  0  0  0  0  0  0  0  0  0  0999 V3000
M  V30 BEGIN CTAB
M  V30 COUNTS 58 60 0 0 0
M  V30 BEGIN ATOM
M  V30 1 C -3.290869 -0.879633 8.331461 0
M  V30 2 C -2.197332 -0.440408 7.420291 0
M  V30 3 C -2.035946 -1.384244 6.228543 0
M  V30 4 C -0.915512 -0.876755 5.391711 0
M  V30 5 N -0.399708 -1.277398 4.352886 0
M  V30 6 N 0.585513 -0.640033 3.823144 0
M  V30 7 C 1.132603 0.353448 4.190940 0
M  V30 8 N 2.238126 0.734932 3.254024 0
M  V30 9 C 1.962516 1.638077 2.167696 0
M  V30 10 O 0.717836 1.797300 2.475734 0
M  V30 11 C 3.245990 1.756650 1.474182 0
M  V30 12 C 3.130338 2.632294 0.260478 0
M  V30 13 C 2.169987 2.237377 -0.746094 0
M  V30 14 O 1.153974 2.037313 -0.042290 0
M  V30 15 N 1.280506 1.861753 -1.758634 0
M  V30 16 C -0.085536 1.475487 -1.698834 0
M  V30 17 C -0.355720 0.168251 -2.411726 0
M  V30 18 N 0.737837 -0.159663 -3.329607 0
M  V30 19 S 0.082482 -1.291485 -4.486933 0
M  V30 20 O 1.196859 -1.641900 -5.448920 0
M  V30 21 O -0.990554 -0.591726 -5.258663 0
M  V30 22 C -0.451621 -2.735817 -3.694775 0
M  V30 23 C 0.436472 -3.816810 -3.570703 0
M  V30 24 C -0.136944 -4.894685 -2.905005 0
M  V30 25 C -1.413106 -4.947687 -2.407439 0
M  V30 26 C -1.864753 -6.183887 -1.716029 0
M  V30 27 C -2.220767 -3.848809 -2.568257 0
M  V30 28 C -1.739757 -2.740857 -3.212629 0
M  V30 29 C 0.999791 1.104186 -4.040331 0
M  V30 30 C 1.898917 1.879717 -3.089961 0
M  V30 31 S 0.087142 0.625385 5.731760 0
M  V30 32 H -3.204477 -0.268050 9.261583 0
M  V30 33 H -4.276399 -0.731733 7.894498 0
M  V30 34 H -3.069882 -1.922393 8.645202 0
M  V30 35 H -1.248433 -0.274492 7.947466 0
M  V30 36 H -2.485324 0.545100 6.951235 0
M  V30 37 H -2.969594 -1.432954 5.665682 0
M  V30 38 H -1.663271 -2.336766 6.649440 0
M  V30 39 H 3.121008 0.221083 3.594819 0
M  V30 40 H 4.039114 2.161881 2.160424 0
M  V30 41 H 3.544260 0.745767 1.106796 0
M  V30 42 H 4.164131 2.653735 -0.223175 0
M  V30 43 H 2.954294 3.703031 0.525098 0
M  V30 44 H -0.757449 2.255079 -2.136313 0
M  V30 45 H -0.424231 1.347685 -0.659818 0
M  V30 46 H -1.245050 0.282060 -3.063035 0
M  V30 47 H -0.559874 -0.687067 -1.741967 0
M  V30 48 H 1.448893 -3.807214 -3.950327 0
M  V30 49 H 0.501647 -5.775823 -2.772995 0
M  V30 50 H -1.983517 -7.050805 -2.415610 0
M  V30 51 H -2.838406 -6.059906 -1.231595 0
M  V30 52 H -1.139094 -6.540343 -0.947696 0
M  V30 53 H -3.224806 -3.896632 -2.174381 0
M  V30 54 H -2.386652 -1.866086 -3.339626 0
M  V30 55 H 0.063265 1.673726 -4.179410 0
M  V30 56 H 1.521617 0.932081 -5.003498 0
M  V30 57 H 2.096984 2.905955 -3.410804 0
M  V30 58 H 2.807090 1.234860 -2.980744 0
M  V30 END ATOM
M  V30 BEGIN BOND
M  V30 1 1 1 2
M  V30 2 1 2 3
M  V30 3 1 3 4
M  V30 4 2 4 5
M  V30 5 1 5 6
M  V30 6 2 6 7
M  V30 7 1 7 8
M  V30 8 1 8 9
M  V30 9 2 9 10
M  V30 10 1 9 11
M  V30 11 1 11 12
M  V30 12 1 12 13
M  V30 13 2 13 14
M  V30 14 1 13 15
M  V30 15 1 15 16
M  V30 16 1 16 17
M  V30 17 1 17 18
M  V30 18 1 18 19
M  V30 19 2 19 20
M  V30 20 2 19 21
M  V30 21 1 19 22
M  V30 22 2 22 23
M  V30 23 1 23 24
M  V30 24 2 24 25
M  V30 25 1 25 26
M  V30 26 1 25 27
M  V30 27 2 27 28
M  V30 28 1 18 29
M  V30 29 1 29 30
M  V30 30 1 7 31
M  V30 31 1 31 4
M  V30 32 1 30 15
M  V30 33 1 28 22
M  V30 34 1 1 32
M  V30 35 1 1 33
M  V30 36 1 1 34
M  V30 37 1 2 35
M  V30 38 1 2 36
M  V30 39 1 3 37
M  V30 40 1 3 38
M  V30 41 1 8 39
M  V30 42 1 11 40
M  V30 43 1 11 41
M  V30 44 1 12 42
M  V30 45 1 12 43
M  V30 46 1 16 44
M  V30 47 1 16 45
M  V30 48 1 17 46
M  V30 49 1 17 47
M  V30 50 1 23 48
M  V30 51 1 24 49
M  V30 52 1 26 50
M  V30 53 1 26 51
M  V30 54 1 26 52
M  V30 55 1 27 53
M  V30 56 1 28 54
M  V30 57 1 29 55
M  V30 58 1 29 56
M  V30 59 1 30 57
M  V30 60 1 30 58
M  V30 END BOND
M  V30 END CTAB
M  END
>  <Dataset>  (452) 
ChEMBL_Kinases

>  <Ligand_Instance>  (452) 
nan

>  <PDB_ID>  (452) 
nan

>  <Standardized_SMILES>  (452) 
CCCc1nnc(NC(=O)CCC(=O)N2CCN(S(=O)(=O)c3ccc(C)cc3)CC2)s1

>  <Name>  (452) 
nan

>  <Pocket>  (452) 
nan

>  <ATP_Site>  (452) 
nan

>  <Peripheral>  (452) 
nan

>  <Num_H_Atoms_ProtBoundConf>  (452) 
nan

>  <Num_Resolved_Atoms>  (452) 
nan

>  <Num_Not_Resolved_Atoms>  (452) 
nan

$$$$
CHEMBL1559098
     RDKit          3D

  0  0  0  0  0  0  0  0  0  0999 V3000
M  V30 BEGIN CTAB
M  V30 COUNTS 45 47 0 0 0
M  V30 BEGIN ATOM
M  V30 1 C -2.113628 -6.776778 2.144908 0
M  V30 2 C -1.928597 -5.299903 1.852331 0
M  V30 3 C -1.587025 -5.060317 0.406205 0
M  V30 4 C -1.423353 -3.588349 0.168740 0
M  V30 5 N -0.356288 -2.990011 0.951366 0
M  V30 6 C -0.109821 -1.584807 0.827804 0
M  V30 7 N 1.092493 -1.008930 0.686742 0
M  V30 8 C 1.302873 0.312589 0.589267 0
M  V30 9 N 2.641824 0.743510 0.417215 0
M  V30 10 C 3.628060 -0.322886 0.239741 0
M  V30 11 C 3.112510 2.077928 0.395481 0
M  V30 12 C 2.284109 3.188144 0.581888 0
M  V30 13 C 2.917541 4.440778 0.514404 0
M  V30 14 C 4.248473 4.623934 0.286949 0
M  V30 15 C 5.079326 3.547659 0.100808 0
M  V30 16 C 4.437333 2.309618 0.169681 0
M  V30 17 N 0.199590 1.069317 0.641858 0
M  V30 18 C -1.049847 0.601351 0.779678 0
M  V30 19 N -2.161462 1.482803 0.820413 0
M  V30 20 C -2.499446 2.619911 0.178790 0
M  V30 21 C -3.754150 3.051349 0.648180 0
M  V30 22 N -4.165767 2.161645 1.578634 0
M  V30 23 C -3.186661 1.237070 1.654746 0
M  V30 24 N -1.133142 -0.716869 0.866353 0
M  V30 25 H -2.356521 -6.837832 3.233698 0
M  V30 26 H -2.925324 -7.179504 1.502822 0
M  V30 27 H -1.160304 -7.320652 1.953792 0
M  V30 28 H -1.108433 -4.922458 2.474723 0
M  V30 29 H -2.877976 -4.814684 2.130828 0
M  V30 30 H -0.595662 -5.522099 0.146299 0
M  V30 31 H -2.339818 -5.517684 -0.262283 0
M  V30 32 H -2.391206 -3.033512 0.279623 0
M  V30 33 H -1.170131 -3.425230 -0.925957 0
M  V30 34 H 0.191254 -3.626536 1.601506 0
M  V30 35 H 4.209928 -0.152349 -0.715959 0
M  V30 36 H 3.168478 -1.320189 0.197086 0
M  V30 37 H 4.378160 -0.334910 1.049282 0
M  V30 38 H 1.245101 3.099376 0.762374 0
M  V30 39 H 2.243288 5.301448 0.663612 0
M  V30 40 H 4.661827 5.640258 0.251906 0
M  V30 41 H 6.117742 3.668432 -0.080521 0
M  V30 42 H 5.128984 1.487984 0.018896 0
M  V30 43 H -1.728158 2.937832 -0.543228 0
M  V30 44 H -3.996742 3.962609 0.110330 0
M  V30 45 H -3.340595 0.417942 2.369138 0
M  V30 END ATOM
M  V30 BEGIN BOND
M  V30 1 1 1 2
M  V30 2 1 2 3
M  V30 3 1 3 4
M  V30 4 1 4 5
M  V30 5 1 5 6
M  V30 6 2 6 7
M  V30 7 1 7 8
M  V30 8 1 8 9
M  V30 9 1 9 10
M  V30 10 1 9 11
M  V30 11 2 11 12
M  V30 12 1 12 13
M  V30 13 2 13 14
M  V30 14 1 14 15
M  V30 15 2 15 16
M  V30 16 2 8 17
M  V30 17 1 17 18
M  V30 18 1 18 19
M  V30 19 1 19 20
M  V30 20 2 20 21
M  V30 21 1 21 22
M  V30 22 2 22 23
M  V30 23 2 18 24
M  V30 24 1 24 6
M  V30 25 1 16 11
M  V30 26 1 23 19
M  V30 27 1 1 25
M  V30 28 1 1 26
M  V30 29 1 1 27
M  V30 30 1 2 28
M  V30 31 1 2 29
M  V30 32 1 3 30
M  V30 33 1 3 31
M  V30 34 1 4 32
M  V30 35 1 4 33
M  V30 36 1 5 34
M  V30 37 1 10 35
M  V30 38 1 10 36
M  V30 39 1 10 37
M  V30 40 1 12 38
M  V30 41 1 13 39
M  V30 42 1 14 40
M  V30 43 1 15 41
M  V30 44 1 16 42
M  V30 45 1 20 43
M  V30 46 1 21 44
M  V30 47 1 23 45
M  V30 END BOND
M  V30 END CTAB
M  END
>  <Dataset>  (453) 
ChEMBL_Kinases

>  <Ligand_Instance>  (453) 
nan

>  <PDB_ID>  (453) 
nan

>  <Standardized_SMILES>  (453) 
CCCCNc1nc(N(C)c2ccccc2)nc(-n2ccnc2)n1

>  <Name>  (453) 
nan

>  <Pocket>  (453) 
nan

>  <ATP_Site>  (453) 
nan

>  <Peripheral>  (453) 
nan

>  <Num_H_Atoms_ProtBoundConf>  (453) 
nan

>  <Num_Resolved_Atoms>  (453) 
nan

>  <Num_Not_Resolved_Atoms>  (453) 
nan

$$$$
CHEMBL1559159
     RDKit          3D

  0  0  0  0  0  0  0  0  0  0999 V3000
M  V30 BEGIN CTAB
M  V30 COUNTS 34 36 0 0 0
M  V30 BEGIN ATOM
M  V30 1 C -0.540380 -2.375117 3.258564 0
M  V30 2 O -1.107241 -1.217319 2.653703 0
M  V30 3 C -0.489566 -0.568126 1.593326 0
M  V30 4 C 0.704419 -1.114413 1.164603 0
M  V30 5 C 1.346346 -0.927723 -0.019688 0
M  V30 6 C 2.123570 -2.085078 -0.547017 0
M  V30 7 C 2.272967 -3.290891 -0.011022 0
M  V30 8 C 3.009001 -4.253550 -0.598232 0
M  V30 9 C 3.606212 -3.829775 -1.856000 0
M  V30 10 S 3.015614 -2.069241 -2.025554 0
M  V30 11 C 1.393309 0.187495 -0.829259 0
M  V30 12 C 0.503728 1.267715 -0.761962 0
M  V30 13 O 0.761303 2.273322 -1.471615 0
M  V30 14 C -0.656302 1.357787 0.016047 0
M  V30 15 C -1.628520 2.328137 -0.122069 0
M  V30 16 C -1.605601 3.435875 -1.117112 0
M  V30 17 O -2.583984 2.115449 0.772028 0
M  V30 18 C -2.295843 1.046087 1.503250 0
M  V30 19 C -3.125788 0.485335 2.611891 0
M  V30 20 C -1.089779 0.550506 1.049289 0
M  V30 21 H -0.209866 -3.101620 2.467250 0
M  V30 22 H -1.309757 -2.902153 3.856603 0
M  V30 23 H 0.337949 -2.117344 3.858319 0
M  V30 24 H 1.219946 -1.786720 1.846422 0
M  V30 25 H 1.780213 -3.522280 0.949173 0
M  V30 26 H 3.194749 -5.260680 -0.250867 0
M  V30 27 H 4.290744 -4.632687 -2.462042 0
M  V30 28 H 2.166765 0.259073 -1.582770 0
M  V30 29 H -0.914822 4.220298 -0.756625 0
M  V30 30 H -1.334439 3.063185 -2.140705 0
M  V30 31 H -2.645309 3.812519 -1.233360 0
M  V30 32 H -4.128196 0.981030 2.573478 0
M  V30 33 H -3.360538 -0.594747 2.467955 0
M  V30 34 H -2.702510 0.722166 3.602243 0
M  V30 END ATOM
M  V30 BEGIN BOND
M  V30 1 1 1 2
M  V30 2 1 2 3
M  V30 3 2 3 4
M  V30 4 1 4 5
M  V30 5 1 5 6
M  V30 6 2 6 7
M  V30 7 1 7 8
M  V30 8 2 8 9
M  V30 9 1 9 10
M  V30 10 2 5 11
M  V30 11 1 11 12
M  V30 12 2 12 13
M  V30 13 1 12 14
M  V30 14 2 14 15
M  V30 15 1 15 16
M  V30 16 1 15 17
M  V30 17 1 17 18
M  V30 18 1 18 19
M  V30 19 2 18 20
M  V30 20 1 20 3
M  V30 21 1 10 6
M  V30 22 1 20 14
M  V30 23 1 1 21
M  V30 24 1 1 22
M  V30 25 1 1 23
M  V30 26 1 4 24
M  V30 27 1 7 25
M  V30 28 1 8 26
M  V30 29 1 9 27
M  V30 30 1 11 28
M  V30 31 1 16 29
M  V30 32 1 16 30
M  V30 33 1 16 31
M  V30 34 1 19 32
M  V30 35 1 19 33
M  V30 36 1 19 34
M  V30 END BOND
M  V30 END CTAB
M  END
>  <Dataset>  (454) 
ChEMBL_Kinases

>  <Ligand_Instance>  (454) 
nan

>  <PDB_ID>  (454) 
nan

>  <Standardized_SMILES>  (454) 
COc1cc(-c2cccs2)cc(=O)c2c(C)oc(C)c12

>  <Name>  (454) 
nan

>  <Pocket>  (454) 
nan

>  <ATP_Site>  (454) 
nan

>  <Peripheral>  (454) 
nan

>  <Num_H_Atoms_ProtBoundConf>  (454) 
nan

>  <Num_Resolved_Atoms>  (454) 
nan

>  <Num_Not_Resolved_Atoms>  (454) 
nan

$$$$
CHEMBL155929
     RDKit          3D

  0  0  0  0  0  0  0  0  0  0999 V3000
M  V30 BEGIN CTAB
M  V30 COUNTS 51 56 0 0 0
M  V30 BEGIN ATOM
M  V30 1 C -0.922720 -1.908807 2.993248 0
M  V30 2 N 0.287057 -1.889577 2.223607 0
M  V30 3 C 1.365969 -2.589557 2.690003 0
M  V30 4 C 1.518774 -3.381336 3.839028 0
M  V30 5 C 2.644637 -4.046208 4.214814 0
M  V30 6 C 3.713442 -3.901618 3.357349 0
M  V30 7 C 3.590494 -3.133355 2.227243 0
M  V30 8 C 2.456222 -2.468834 1.856656 0
M  V30 9 C 2.028411 -1.664356 0.840530 0
M  V30 10 C 2.724841 -1.233738 -0.250356 0
M  V30 11 C 2.090910 -0.421596 -1.161217 0
M  V30 12 C 0.759030 -0.093791 -0.897318 0
M  V30 13 C -0.088945 0.684608 -1.654245 0
M  V30 14 C 0.086958 1.354128 -2.819066 0
M  V30 15 C -0.947722 2.068956 -3.358343 0
M  V30 16 C -2.165312 2.113336 -2.727371 0
M  V30 17 C -2.273107 1.416410 -1.558525 0
M  V30 18 C -1.263526 0.659930 -0.938818 0
M  V30 19 N -1.177599 -0.086309 0.205187 0
M  V30 20 C -2.360003 -0.157555 0.959215 0
M  V30 21 C -2.546904 0.987324 1.930471 0
M  V30 22 C -3.839540 0.802298 2.697000 0
M  V30 23 N -4.957180 0.774066 1.771844 0
M  V30 24 C 0.073897 -0.542201 0.215244 0
M  V30 25 C 0.713733 -1.335567 1.096297 0
M  V30 26 C 2.982941 -0.034293 -2.287012 0
M  V30 27 N 4.240279 -0.693832 -2.007413 0
M  V30 28 C 4.042095 -1.382349 -0.797495 0
M  V30 29 O 5.037299 -2.004128 -0.402659 0
M  V30 30 H -0.761683 -2.428710 3.996134 0
M  V30 31 H -1.293046 -0.939963 3.342764 0
M  V30 32 H -1.669417 -2.604073 2.538757 0
M  V30 33 H 0.724872 -3.551911 4.571641 0
M  V30 34 H 2.755064 -4.652475 5.098539 0
M  V30 35 H 4.644040 -4.411413 3.605416 0
M  V30 36 H 4.482121 -3.103726 1.653989 0
M  V30 37 H 1.015592 1.360376 -3.365663 0
M  V30 38 H -0.802635 2.600271 -4.285620 0
M  V30 39 H -2.983589 2.676055 -3.149589 0
M  V30 40 H -3.254254 1.487896 -1.104710 0
M  V30 41 H -3.293633 -0.004087 0.260776 0
M  V30 42 H -2.688296 -1.088851 1.408377 0
M  V30 43 H -2.751393 1.920023 1.312576 0
M  V30 44 H -1.680679 1.232155 2.531064 0
M  V30 45 H -3.947803 1.577618 3.466469 0
M  V30 46 H -3.861167 -0.180446 3.232684 0
M  V30 47 H -5.105316 -0.195803 1.381916 0
M  V30 48 H -5.836841 1.144101 2.157835 0
M  V30 49 H 2.650983 -0.370740 -3.267349 0
M  V30 50 H 3.080109 1.072687 -2.229127 0
M  V30 51 H 5.010246 -0.557739 -2.690120 0
M  V30 END ATOM
M  V30 BEGIN BOND
M  V30 1 1 1 2
M  V30 2 1 2 3
M  V30 3 2 3 4
M  V30 4 1 4 5
M  V30 5 2 5 6
M  V30 6 1 6 7
M  V30 7 2 7 8
M  V30 8 1 8 9
M  V30 9 2 9 10
M  V30 10 1 10 11
M  V30 11 2 11 12
M  V30 12 1 12 13
M  V30 13 2 13 14
M  V30 14 1 14 15
M  V30 15 2 15 16
M  V30 16 1 16 17
M  V30 17 2 17 18
M  V30 18 1 18 19
M  V30 19 1 19 20
M  V30 20 1 20 21
M  V30 21 1 21 22
M  V30 22 1 22 23
M  V30 23 1 19 24
M  V30 24 2 24 25
M  V30 25 1 11 26
M  V30 26 1 26 27
M  V30 27 1 27 28
M  V30 28 2 28 29
M  V30 29 1 25 2
M  V30 30 1 8 3
M  V30 31 1 25 9
M  V30 32 1 28 10
M  V30 33 1 24 12
M  V30 34 1 18 13
M  V30 35 1 1 30
M  V30 36 1 1 31
M  V30 37 1 1 32
M  V30 38 1 4 33
M  V30 39 1 5 34
M  V30 40 1 6 35
M  V30 41 1 7 36
M  V30 42 1 14 37
M  V30 43 1 15 38
M  V30 44 1 16 39
M  V30 45 1 17 40
M  V30 46 1 20 41
M  V30 47 1 20 42
M  V30 48 1 21 43
M  V30 49 1 21 44
M  V30 50 1 22 45
M  V30 51 1 22 46
M  V30 52 1 23 47
M  V30 53 1 23 48
M  V30 54 1 26 49
M  V30 55 1 26 50
M  V30 56 1 27 51
M  V30 END BOND
M  V30 END CTAB
M  END
>  <Dataset>  (455) 
ChEMBL_Kinases

>  <Ligand_Instance>  (455) 
nan

>  <PDB_ID>  (455) 
nan

>  <Standardized_SMILES>  (455) 
Cn1c2ccccc2c2c3c(c4c5ccccc5n(CCCN)c4c21)CNC3=O

>  <Name>  (455) 
nan

>  <Pocket>  (455) 
nan

>  <ATP_Site>  (455) 
nan

>  <Peripheral>  (455) 
nan

>  <Num_H_Atoms_ProtBoundConf>  (455) 
nan

>  <Num_Resolved_Atoms>  (455) 
nan

>  <Num_Not_Resolved_Atoms>  (455) 
nan

$$$$
CHEMBL1559474
     RDKit          3D

  0  0  0  0  0  0  0  0  0  0999 V3000
M  V30 BEGIN CTAB
M  V30 COUNTS 48 49 0 0 0
M  V30 BEGIN ATOM
M  V30 1 C -0.073578 -1.532801 4.242698 0
M  V30 2 C 1.329944 -1.500359 4.752348 0
M  V30 3 O 2.317674 -1.562519 3.744077 0
M  V30 4 C 2.482478 -0.666397 2.728232 0
M  V30 5 O 1.520590 0.023744 3.121231 0
M  V30 6 C 3.494774 -0.722772 1.688347 0
M  V30 7 C 4.334683 -1.808368 1.807339 0
M  V30 8 C 5.345734 -2.017361 0.920869 0
M  V30 9 C 5.503327 -1.122338 -0.087452 0
M  V30 10 C 4.644717 -0.047591 -0.176598 0
M  V30 11 C 3.623195 0.201388 0.683572 0
M  V30 12 N 2.727052 1.291233 0.626226 0
M  V30 13 C 2.683511 2.365925 -0.280466 0
M  V30 14 O 3.538286 2.429442 -1.196619 0
M  V30 15 C 1.709315 3.484315 -0.289081 0
M  V30 16 S 0.380772 3.075934 -1.449498 0
M  V30 17 C -0.608101 1.704568 -0.930478 0
M  V30 18 N -0.540204 0.933394 0.168535 0
M  V30 19 C -1.398581 -0.079053 0.380285 0
M  V30 20 C -2.399111 -0.360994 -0.550154 0
M  V30 21 C -3.298811 -1.494109 -0.236333 0
M  V30 22 O -3.185029 -2.184315 0.822794 0
M  V30 23 O -4.310714 -1.855155 -1.088941 0
M  V30 24 C -5.226933 -2.902620 -0.909085 0
M  V30 25 C -6.083190 -2.805000 0.311242 0
M  V30 26 C -2.471937 0.427207 -1.678056 0
M  V30 27 N -3.503663 0.111860 -2.604892 0
M  V30 28 N -1.582035 1.431821 -1.838554 0
M  V30 29 H -0.637679 -0.621355 4.549067 0
M  V30 30 H -0.666729 -2.377734 4.688480 0
M  V30 31 H -0.108097 -1.643272 3.144732 0
M  V30 32 H 1.556736 -0.576230 5.358928 0
M  V30 33 H 1.465121 -2.401471 5.401548 0
M  V30 34 H 4.244081 -2.546237 2.597233 0
M  V30 35 H 6.030058 -2.867600 0.985958 0
M  V30 36 H 6.301608 -1.275107 -0.799597 0
M  V30 37 H 4.843130 0.609365 -1.007220 0
M  V30 38 H 1.958881 1.387701 1.320599 0
M  V30 39 H 2.194976 4.419457 -0.599570 0
M  V30 40 H 1.292985 3.681608 0.723053 0
M  V30 41 H -1.262819 -0.642092 1.296247 0
M  V30 42 H -4.628491 -3.832229 -0.818982 0
M  V30 43 H -5.852073 -2.968010 -1.815906 0
M  V30 44 H -7.059578 -2.347884 -0.009268 0
M  V30 45 H -5.702886 -2.105238 1.087806 0
M  V30 46 H -6.312724 -3.804300 0.722281 0
M  V30 47 H -3.455538 -0.720397 -3.266140 0
M  V30 48 H -4.411101 0.644734 -2.746116 0
M  V30 END ATOM
M  V30 BEGIN BOND
M  V30 1 1 1 2
M  V30 2 1 2 3
M  V30 3 1 3 4
M  V30 4 2 4 5
M  V30 5 1 4 6
M  V30 6 2 6 7
M  V30 7 1 7 8
M  V30 8 2 8 9
M  V30 9 1 9 10
M  V30 10 2 10 11
M  V30 11 1 11 12
M  V30 12 1 12 13
M  V30 13 2 13 14
M  V30 14 1 13 15
M  V30 15 1 15 16
M  V30 16 1 16 17
M  V30 17 2 17 18
M  V30 18 1 18 19
M  V30 19 2 19 20
M  V30 20 1 20 21
M  V30 21 2 21 22
M  V30 22 1 21 23
M  V30 23 1 23 24
M  V30 24 1 24 25
M  V30 25 1 20 26
M  V30 26 1 26 27
M  V30 27 2 26 28
M  V30 28 1 11 6
M  V30 29 1 28 17
M  V30 30 1 1 29
M  V30 31 1 1 30
M  V30 32 1 1 31
M  V30 33 1 2 32
M  V30 34 1 2 33
M  V30 35 1 7 34
M  V30 36 1 8 35
M  V30 37 1 9 36
M  V30 38 1 10 37
M  V30 39 1 12 38
M  V30 40 1 15 39
M  V30 41 1 15 40
M  V30 42 1 19 41
M  V30 43 1 24 42
M  V30 44 1 24 43
M  V30 45 1 25 44
M  V30 46 1 25 45
M  V30 47 1 25 46
M  V30 48 1 27 47
M  V30 49 1 27 48
M  V30 END BOND
M  V30 END CTAB
M  END
>  <Dataset>  (456) 
ChEMBL_Kinases

>  <Ligand_Instance>  (456) 
nan

>  <PDB_ID>  (456) 
nan

>  <Standardized_SMILES>  (456) 
CCOC(=O)c1ccccc1NC(=O)CSc1ncc(C(=O)OCC)c(N)n1

>  <Name>  (456) 
nan

>  <Pocket>  (456) 
nan

>  <ATP_Site>  (456) 
nan

>  <Peripheral>  (456) 
nan

>  <Num_H_Atoms_ProtBoundConf>  (456) 
nan

>  <Num_Resolved_Atoms>  (456) 
nan

>  <Num_Not_Resolved_Atoms>  (456) 
nan

$$$$
CHEMBL1558616
     RDKit          3D

  0  0  0  0  0  0  0  0  0  0999 V3000
M  V30 BEGIN CTAB
M  V30 COUNTS 39 41 0 0 0
M  V30 BEGIN ATOM
M  V30 1 C 2.158209 -2.792396 3.467326 0
M  V30 2 C 1.294003 -2.811980 2.222912 0
M  V30 3 O 1.544557 -1.675474 1.415355 0
M  V30 4 C 1.997881 -1.729739 0.129088 0
M  V30 5 O 2.179372 -2.900710 -0.290691 0
M  V30 6 C 2.261246 -0.574486 -0.716496 0
M  V30 7 C 2.713974 -0.805073 -1.986712 0
M  V30 8 C 2.865172 0.511361 -2.526499 0
M  V30 9 S 3.329376 1.553884 -3.935004 0
M  V30 10 C 2.976747 3.206597 -3.067800 0
M  V30 11 C 2.540384 2.750149 -1.787188 0
M  V30 12 C 2.488148 1.422536 -1.528310 0
M  V30 13 N 2.126476 0.729104 -0.440754 0
M  V30 14 C 1.653670 1.129370 0.873431 0
M  V30 15 C -0.151373 -2.791766 2.570142 0
M  V30 16 O -0.766219 -3.651661 3.287181 0
M  V30 17 N -1.036253 -1.753487 2.110201 0
M  V30 18 C -2.386092 -1.965580 2.585903 0
M  V30 19 C -3.272789 -0.895983 2.105953 0
M  V30 20 C -4.030741 -0.761781 0.995863 0
M  V30 21 C -4.780778 0.351287 0.780094 0
M  V30 22 C -4.675465 1.356989 1.856622 0
M  V30 23 S -3.498181 0.550112 3.041896 0
M  V30 24 H 3.167653 -2.458520 3.170193 0
M  V30 25 H 1.750863 -2.096527 4.239468 0
M  V30 26 H 2.248206 -3.827695 3.842926 0
M  V30 27 H 1.499631 -3.767982 1.716569 0
M  V30 28 H 2.960293 -1.618801 -2.620720 0
M  V30 29 H 3.134931 4.040525 -3.587492 0
M  V30 30 H 2.307148 3.617576 -1.194867 0
M  V30 31 H 2.137736 0.567495 1.694539 0
M  V30 32 H 1.924745 2.205685 1.073449 0
M  V30 33 H 0.576834 0.960890 0.904907 0
M  V30 34 H -0.675781 -0.991382 1.520700 0
M  V30 35 H -2.815593 -2.916533 2.200751 0
M  V30 36 H -2.445757 -2.067108 3.702741 0
M  V30 37 H -4.004307 -1.584448 0.297965 0
M  V30 38 H -5.403876 0.513785 -0.085425 0
M  V30 39 H -5.307085 2.330963 1.707896 0
M  V30 END ATOM
M  V30 BEGIN BOND
M  V30 1 1 1 2
M  V30 2 1 2 3
M  V30 3 1 3 4
M  V30 4 2 4 5
M  V30 5 1 4 6
M  V30 6 2 6 7
M  V30 7 1 7 8
M  V30 8 1 8 9
M  V30 9 1 9 10
M  V30 10 2 10 11
M  V30 11 1 11 12
M  V30 12 1 12 13
M  V30 13 1 13 14
M  V30 14 1 2 15
M  V30 15 2 15 16
M  V30 16 1 15 17
M  V30 17 1 17 18
M  V30 18 1 18 19
M  V30 19 2 19 20
M  V30 20 1 20 21
M  V30 21 2 21 22
M  V30 22 1 22 23
M  V30 23 1 13 6
M  V30 24 1 23 19
M  V30 25 2 12 8
M  V30 26 1 1 24
M  V30 27 1 1 25
M  V30 28 1 1 26
M  V30 29 1 2 27
M  V30 30 1 7 28
M  V30 31 1 10 29
M  V30 32 1 11 30
M  V30 33 1 14 31
M  V30 34 1 14 32
M  V30 35 1 14 33
M  V30 36 1 17 34
M  V30 37 1 18 35
M  V30 38 1 18 36
M  V30 39 1 20 37
M  V30 40 1 21 38
M  V30 41 1 22 39
M  V30 END BOND
M  V30 END CTAB
M  END
>  <Dataset>  (457) 
ChEMBL_Kinases

>  <Ligand_Instance>  (457) 
nan

>  <PDB_ID>  (457) 
nan

>  <Standardized_SMILES>  (457) 
CC(OC(=O)c1cc2sccc2n1C)C(=O)NCc1cccs1

>  <Name>  (457) 
nan

>  <Pocket>  (457) 
nan

>  <ATP_Site>  (457) 
nan

>  <Peripheral>  (457) 
nan

>  <Num_H_Atoms_ProtBoundConf>  (457) 
nan

>  <Num_Resolved_Atoms>  (457) 
nan

>  <Num_Not_Resolved_Atoms>  (457) 
nan

$$$$
CHEMBL1563648
     RDKit          3D

  0  0  0  0  0  0  0  0  0  0999 V3000
M  V30 BEGIN CTAB
M  V30 COUNTS 45 48 0 0 0
M  V30 BEGIN ATOM
M  V30 1 N -0.659649 -3.270556 3.756962 0
M  V30 2 C 0.130288 -2.740968 2.692643 0
M  V30 3 N 1.345462 -2.173352 2.761708 0
M  V30 4 C 1.948966 -1.726752 1.648568 0
M  V30 5 S 3.580630 -0.962584 1.806395 0
M  V30 6 C 4.065435 -0.505958 0.089246 0
M  V30 7 C 3.249660 0.598481 -0.396558 0
M  V30 8 O 3.679664 0.529221 -1.614609 0
M  V30 9 N 2.359775 1.675763 -0.563211 0
M  V30 10 C 1.858531 2.429553 -1.729433 0
M  V30 11 C 2.038881 3.842420 -1.151264 0
M  V30 12 C 1.473570 3.642468 0.226349 0
M  V30 13 C 0.858806 4.564825 1.051597 0
M  V30 14 C 0.421621 4.138814 2.282594 0
M  V30 15 C 0.596869 2.835525 2.671514 0
M  V30 16 C 1.218581 2.003086 1.778211 0
M  V30 17 C 1.703301 2.291102 0.519184 0
M  V30 18 N 1.323124 -1.853848 0.460251 0
M  V30 19 C 0.096130 -2.419512 0.336560 0
M  V30 20 O -0.317801 -2.426240 -0.994698 0
M  V30 21 C -0.532516 -2.884850 1.497149 0
M  V30 22 C -1.822100 -3.448980 1.109149 0
M  V30 23 C -1.853275 -4.788729 0.764555 0
M  V30 24 C -3.108678 -5.240485 0.406383 0
M  V30 25 C -4.280290 -4.515807 0.361686 0
M  V30 26 C -4.161056 -3.173574 0.726170 0
M  V30 27 C -2.947687 -2.623595 1.100974 0
M  V30 28 H -0.680013 -4.049445 4.472949 0
M  V30 29 H -1.576677 -2.811882 4.028044 0
M  V30 30 H 4.019021 -1.439818 -0.528649 0
M  V30 31 H 5.165581 -0.219948 0.103993 0
M  V30 32 H 0.786152 2.247234 -1.836212 0
M  V30 33 H 2.483646 2.259793 -2.602401 0
M  V30 34 H 1.525861 4.581202 -1.744307 0
M  V30 35 H 3.145603 3.980430 -1.066586 0
M  V30 36 H 0.743732 5.582799 0.709270 0
M  V30 37 H -0.058095 4.815762 2.972680 0
M  V30 38 H 0.273229 2.461419 3.633100 0
M  V30 39 H 1.363802 0.977433 2.081489 0
M  V30 40 H -1.308285 -2.690938 -1.134993 0
M  V30 41 H -1.000554 -5.435145 0.763302 0
M  V30 42 H -3.178785 -6.301468 0.121046 0
M  V30 43 H -5.211334 -4.986318 0.058743 0
M  V30 44 H -5.044937 -2.550704 0.712263 0
M  V30 45 H -2.885357 -1.588878 1.378342 0
M  V30 END ATOM
M  V30 BEGIN BOND
M  V30 1 1 1 2
M  V30 2 2 2 3
M  V30 3 1 3 4
M  V30 4 1 4 5
M  V30 5 1 5 6
M  V30 6 1 6 7
M  V30 7 2 7 8
M  V30 8 1 7 9
M  V30 9 1 9 10
M  V30 10 1 10 11
M  V30 11 1 11 12
M  V30 12 2 12 13
M  V30 13 1 13 14
M  V30 14 2 14 15
M  V30 15 1 15 16
M  V30 16 2 16 17
M  V30 17 2 4 18
M  V30 18 1 18 19
M  V30 19 1 19 20
M  V30 20 2 19 21
M  V30 21 1 21 22
M  V30 22 2 22 23
M  V30 23 1 23 24
M  V30 24 2 24 25
M  V30 25 1 25 26
M  V30 26 2 26 27
M  V30 27 1 21 2
M  V30 28 1 27 22
M  V30 29 1 17 9
M  V30 30 1 17 12
M  V30 31 1 1 28
M  V30 32 1 1 29
M  V30 33 1 6 30
M  V30 34 1 6 31
M  V30 35 1 10 32
M  V30 36 1 10 33
M  V30 37 1 11 34
M  V30 38 1 11 35
M  V30 39 1 13 36
M  V30 40 1 14 37
M  V30 41 1 15 38
M  V30 42 1 16 39
M  V30 43 1 20 40
M  V30 44 1 23 41
M  V30 45 1 24 42
M  V30 46 1 25 43
M  V30 47 1 26 44
M  V30 48 1 27 45
M  V30 END BOND
M  V30 END CTAB
M  END
>  <Dataset>  (458) 
ChEMBL_Kinases

>  <Ligand_Instance>  (458) 
nan

>  <PDB_ID>  (458) 
nan

>  <Standardized_SMILES>  (458) 
Nc1nc(SCC(=O)N2CCc3ccccc32)nc(O)c1-c1ccccc1

>  <Name>  (458) 
nan

>  <Pocket>  (458) 
nan

>  <ATP_Site>  (458) 
nan

>  <Peripheral>  (458) 
nan

>  <Num_H_Atoms_ProtBoundConf>  (458) 
nan

>  <Num_Resolved_Atoms>  (458) 
nan

>  <Num_Not_Resolved_Atoms>  (458) 
nan

$$$$
CHEMBL1563647
     RDKit          3D

  0  0  0  0  0  0  0  0  0  0999 V3000
M  V30 BEGIN CTAB
M  V30 COUNTS 30 31 0 0 0
M  V30 BEGIN ATOM
M  V30 1 C 1.592564 -4.383365 0.348697 0
M  V30 2 O 1.362825 -3.023340 0.664820 0
M  V30 3 C 1.518596 -1.979367 -0.263957 0
M  V30 4 O 1.871503 -2.195369 -1.430177 0
M  V30 5 C 1.198175 -0.696429 0.399978 0
M  V30 6 C 2.170223 0.044650 1.043195 0
M  V30 7 C 3.516349 -0.456674 1.057751 0
M  V30 8 N 4.600627 -0.862793 1.089170 0
M  V30 9 C 1.787914 1.230239 1.637396 0
M  V30 10 N 2.774009 2.009435 2.305608 0
M  V30 11 N 0.514692 1.684307 1.612068 0
M  V30 12 C -0.437331 0.961712 0.983939 0
M  V30 13 C -0.104385 -0.229762 0.375286 0
M  V30 14 C -1.190937 -0.979714 -0.298816 0
M  V30 15 C -2.468705 -1.046845 0.471174 0
M  V30 16 C -2.573322 0.086752 1.455610 0
M  V30 17 C -1.882279 1.312809 0.861019 0
M  V30 18 H 1.470759 -4.583854 -0.743676 0
M  V30 19 H 0.754433 -4.952450 0.845388 0
M  V30 20 H 2.534598 -4.782238 0.770499 0
M  V30 21 H 3.761978 2.017566 1.922686 0
M  V30 22 H 2.552540 2.581632 3.173377 0
M  V30 23 H -1.420875 -0.427344 -1.251984 0
M  V30 24 H -0.845926 -1.982021 -0.651125 0
M  V30 25 H -2.500912 -2.048005 0.956253 0
M  V30 26 H -3.375196 -0.954851 -0.191670 0
M  V30 27 H -2.007628 -0.243894 2.357557 0
M  V30 28 H -3.612693 0.296335 1.759887 0
M  V30 29 H -2.135011 2.188331 1.499260 0
M  V30 30 H -2.223712 1.397407 -0.176307 0
M  V30 END ATOM
M  V30 BEGIN BOND
M  V30 1 1 1 2
M  V30 2 1 2 3
M  V30 3 2 3 4
M  V30 4 1 3 5
M  V30 5 2 5 6
M  V30 6 1 6 7
M  V30 7 3 7 8
M  V30 8 1 6 9
M  V30 9 1 9 10
M  V30 10 2 9 11
M  V30 11 1 11 12
M  V30 12 2 12 13
M  V30 13 1 13 14
M  V30 14 1 14 15
M  V30 15 1 15 16
M  V30 16 1 16 17
M  V30 17 1 13 5
M  V30 18 1 17 12
M  V30 19 1 1 18
M  V30 20 1 1 19
M  V30 21 1 1 20
M  V30 22 1 10 21
M  V30 23 1 10 22
M  V30 24 1 14 23
M  V30 25 1 14 24
M  V30 26 1 15 25
M  V30 27 1 15 26
M  V30 28 1 16 27
M  V30 29 1 16 28
M  V30 30 1 17 29
M  V30 31 1 17 30
M  V30 END BOND
M  V30 END CTAB
M  END
>  <Dataset>  (459) 
ChEMBL_Kinases

>  <Ligand_Instance>  (459) 
nan

>  <PDB_ID>  (459) 
nan

>  <Standardized_SMILES>  (459) 
COC(=O)c1c(C#N)c(N)nc2c1CCCC2

>  <Name>  (459) 
nan

>  <Pocket>  (459) 
nan

>  <ATP_Site>  (459) 
nan

>  <Peripheral>  (459) 
nan

>  <Num_H_Atoms_ProtBoundConf>  (459) 
nan

>  <Num_Resolved_Atoms>  (459) 
nan

>  <Num_Not_Resolved_Atoms>  (459) 
nan

$$$$
CHEMBL1563638
     RDKit          3D

  0  0  0  0  0  0  0  0  0  0999 V3000
M  V30 BEGIN CTAB
M  V30 COUNTS 48 51 0 0 0
M  V30 BEGIN ATOM
M  V30 1 O -0.294712 -0.893959 3.349750 0
M  V30 2 C -0.028284 -1.828478 2.518265 0
M  V30 3 C 1.385867 -2.270615 2.433566 0
M  V30 4 C 1.989017 -2.030876 1.067769 0
M  V30 5 C 1.700532 -0.567384 0.744480 0
M  V30 6 N 2.254302 0.245135 1.773614 0
M  V30 7 S 3.013873 1.668054 1.173402 0
M  V30 8 O 4.110119 1.348702 0.169501 0
M  V30 9 O 3.603470 2.471903 2.266390 0
M  V30 10 C 1.797076 2.623298 0.355482 0
M  V30 11 C 1.786797 3.012849 -0.968456 0
M  V30 12 N 0.675931 3.734837 -1.196552 0
M  V30 13 C -0.013893 3.808250 -0.044083 0
M  V30 14 N 0.671229 3.125109 0.917938 0
M  V30 15 C 3.074257 -0.448127 2.738200 0
M  V30 16 C 2.245418 -1.520812 3.416443 0
M  V30 17 N -1.050423 -2.430595 1.696867 0
M  V30 18 C -1.004513 -3.500842 0.695657 0
M  V30 19 C -1.156982 -2.945938 -0.693216 0
M  V30 20 C -2.241987 -1.908420 -0.632796 0
M  V30 21 C -2.654105 -1.449647 -1.880050 0
M  V30 22 C -3.642408 -0.495478 -2.005652 0
M  V30 23 C -4.224130 0.003442 -0.847086 0
M  V30 24 C -3.818575 -0.448760 0.395467 0
M  V30 25 C -2.825479 -1.408051 0.529698 0
M  V30 26 C -2.405532 -1.879734 1.878159 0
M  V30 27 H 1.380660 -3.347408 2.702337 0
M  V30 28 H 3.093300 -2.125760 1.166049 0
M  V30 29 H 1.676022 -2.721163 0.290370 0
M  V30 30 H 0.578071 -0.483623 0.826302 0
M  V30 31 H 1.950473 -0.291364 -0.285954 0
M  V30 32 H 2.548613 2.777299 -1.707838 0
M  V30 33 H 0.444287 4.141810 -2.128789 0
M  V30 34 H -0.951172 4.335886 0.044566 0
M  V30 35 H 4.044414 -0.786720 2.375573 0
M  V30 36 H 3.295881 0.312972 3.538209 0
M  V30 37 H 2.958934 -2.207764 3.930237 0
M  V30 38 H 1.600212 -1.021752 4.190427 0
M  V30 39 H -1.899245 -4.142388 0.884768 0
M  V30 40 H -0.135179 -4.168213 0.829213 0
M  V30 41 H -0.244063 -2.545100 -1.134533 0
M  V30 42 H -1.569964 -3.747216 -1.370622 0
M  V30 43 H -2.233941 -1.805016 -2.815121 0
M  V30 44 H -3.988078 -0.115698 -2.953231 0
M  V30 45 H -5.009244 0.755465 -0.826758 0
M  V30 46 H -4.246426 -0.085360 1.319771 0
M  V30 47 H -2.459391 -1.123767 2.660378 0
M  V30 48 H -3.037003 -2.786195 2.106611 0
M  V30 END ATOM
M  V30 BEGIN BOND
M  V30 1 2 1 2
M  V30 2 1 2 3
M  V30 3 1 3 4
M  V30 4 1 4 5
M  V30 5 1 5 6
M  V30 6 1 6 7
M  V30 7 2 7 8
M  V30 8 2 7 9
M  V30 9 1 7 10
M  V30 10 2 10 11
M  V30 11 1 11 12
M  V30 12 1 12 13
M  V30 13 2 13 14
M  V30 14 1 6 15
M  V30 15 1 15 16
M  V30 16 1 2 17
M  V30 17 1 17 18
M  V30 18 1 18 19
M  V30 19 1 19 20
M  V30 20 2 20 21
M  V30 21 1 21 22
M  V30 22 2 22 23
M  V30 23 1 23 24
M  V30 24 2 24 25
M  V30 25 1 25 26
M  V30 26 1 16 3
M  V30 27 1 26 17
M  V30 28 1 14 10
M  V30 29 1 25 20
M  V30 30 1 3 27
M  V30 31 1 4 28
M  V30 32 1 4 29
M  V30 33 1 5 30
M  V30 34 1 5 31
M  V30 35 1 11 32
M  V30 36 1 12 33
M  V30 37 1 13 34
M  V30 38 1 15 35
M  V30 39 1 15 36
M  V30 40 1 16 37
M  V30 41 1 16 38
M  V30 42 1 18 39
M  V30 43 1 18 40
M  V30 44 1 19 41
M  V30 45 1 19 42
M  V30 46 1 21 43
M  V30 47 1 22 44
M  V30 48 1 23 45
M  V30 49 1 24 46
M  V30 50 1 26 47
M  V30 51 1 26 48
M  V30 END BOND
M  V30 END CTAB
M  END
>  <Dataset>  (460) 
ChEMBL_Kinases

>  <Ligand_Instance>  (460) 
nan

>  <PDB_ID>  (460) 
nan

>  <Standardized_SMILES>  (460) 
O=C(C1CCN(S(=O)(=O)c2c[nH]cn2)CC1)N1CCc2ccccc2C1

>  <Name>  (460) 
nan

>  <Pocket>  (460) 
nan

>  <ATP_Site>  (460) 
nan

>  <Peripheral>  (460) 
nan

>  <Num_H_Atoms_ProtBoundConf>  (460) 
nan

>  <Num_Resolved_Atoms>  (460) 
nan

>  <Num_Not_Resolved_Atoms>  (460) 
nan

$$$$
CHEMBL1563576
     RDKit          3D

  0  0  0  0  0  0  0  0  0  0999 V3000
M  V30 BEGIN CTAB
M  V30 COUNTS 39 41 0 0 0
M  V30 BEGIN ATOM
M  V30 1 O 2.834397 -1.160512 2.711046 0
M  V30 2 C 2.607379 -0.552306 1.617074 0
M  V30 3 C 3.773341 -0.582705 0.693808 0
M  V30 4 O 3.411331 0.119183 -0.483941 0
M  V30 5 C 4.366376 0.210338 -1.485495 0
M  V30 6 O 5.325531 -0.415613 -0.974045 0
M  V30 7 C 4.122724 0.898899 -2.735270 0
M  V30 8 C 2.897093 1.492361 -2.952419 0
M  V30 9 C 2.770297 2.123540 -4.179665 0
M  V30 10 C 3.816476 2.128032 -5.074930 0
M  V30 11 C 5.028214 1.522507 -4.820518 0
M  V30 12 N 5.135492 0.910047 -3.616326 0
M  V30 13 N 1.401444 0.091954 1.275979 0
M  V30 14 C 0.258528 0.121275 2.182020 0
M  V30 15 N -0.636561 -0.674317 2.251239 0
M  V30 16 C -1.653407 -0.583663 3.107865 0
M  V30 17 C -2.727799 -1.562520 3.172246 0
M  V30 18 C -2.770515 -2.662989 2.344323 0
M  V30 19 C -3.733491 -3.647883 2.317893 0
M  V30 20 C -4.758149 -3.495335 3.228980 0
M  V30 21 C -4.778623 -2.412021 4.092311 0
M  V30 22 N -5.857066 -2.294227 5.017772 0 CHG=1 VAL=4
M  V30 23 O -6.759650 -3.134574 5.057765 0
M  V30 24 O -5.871108 -1.211276 5.875853 0 CHG=-1 VAL=1
M  V30 25 C -3.775138 -1.483177 4.043590 0
M  V30 26 C -1.636927 0.560089 3.989907 0
M  V30 27 S -0.041085 1.413081 3.424129 0
M  V30 28 H 4.683364 -0.159229 1.169871 0
M  V30 29 H 3.952478 -1.631034 0.361363 0
M  V30 30 H 2.105805 1.467424 -2.229749 0
M  V30 31 H 1.825773 2.606049 -4.400207 0
M  V30 32 H 3.614810 2.647836 -6.003272 0
M  V30 33 H 5.790131 1.577227 -5.581315 0
M  V30 34 H 1.350975 0.555212 0.339002 0
M  V30 35 H -1.957885 -2.795356 1.612855 0
M  V30 36 H -3.672840 -4.474424 1.624392 0
M  V30 37 H -5.547933 -4.228750 3.265467 0
M  V30 38 H -3.861881 -0.679121 4.739648 0
M  V30 39 H -2.444933 0.755177 4.766871 0
M  V30 END ATOM
M  V30 BEGIN BOND
M  V30 1 2 1 2
M  V30 2 1 2 3
M  V30 3 1 3 4
M  V30 4 1 4 5
M  V30 5 2 5 6
M  V30 6 1 5 7
M  V30 7 2 7 8
M  V30 8 1 8 9
M  V30 9 2 9 10
M  V30 10 1 10 11
M  V30 11 2 11 12
M  V30 12 1 2 13
M  V30 13 1 13 14
M  V30 14 2 14 15
M  V30 15 1 15 16
M  V30 16 1 16 17
M  V30 17 2 17 18
M  V30 18 1 18 19
M  V30 19 2 19 20
M  V30 20 1 20 21
M  V30 21 1 21 22
M  V30 22 2 22 23
M  V30 23 1 22 24
M  V30 24 2 21 25
M  V30 25 2 16 26
M  V30 26 1 26 27
M  V30 27 1 12 7
M  V30 28 1 27 14
M  V30 29 1 25 17
M  V30 30 1 3 28
M  V30 31 1 3 29
M  V30 32 1 8 30
M  V30 33 1 9 31
M  V30 34 1 10 32
M  V30 35 1 11 33
M  V30 36 1 13 34
M  V30 37 1 18 35
M  V30 38 1 19 36
M  V30 39 1 20 37
M  V30 40 1 25 38
M  V30 41 1 26 39
M  V30 END BOND
M  V30 END CTAB
M  END
>  <Dataset>  (461) 
ChEMBL_Kinases

>  <Ligand_Instance>  (461) 
nan

>  <PDB_ID>  (461) 
nan

>  <Standardized_SMILES>  (461) 
O=C(COC(=O)c1ccccn1)Nc1nc(-c2cccc([N+](=O)[O-])c2)cs1

>  <Name>  (461) 
nan

>  <Pocket>  (461) 
nan

>  <ATP_Site>  (461) 
nan

>  <Peripheral>  (461) 
nan

>  <Num_H_Atoms_ProtBoundConf>  (461) 
nan

>  <Num_Resolved_Atoms>  (461) 
nan

>  <Num_Not_Resolved_Atoms>  (461) 
nan

$$$$
CHEMBL1563483
     RDKit          3D

  0  0  0  0  0  0  0  0  0  0999 V3000
M  V30 BEGIN CTAB
M  V30 COUNTS 40 39 0 0 0
M  V30 BEGIN ATOM
M  V30 1 C -2.128338 -2.764179 0.271200 0
M  V30 2 C -1.233282 -3.864384 0.823730 0
M  V30 3 C -0.562864 -4.645219 -0.244688 0
M  V30 4 C 0.317811 -3.906532 -1.181261 0
M  V30 5 S 1.675720 -3.124612 -0.391965 0
M  V30 6 O 2.462757 -4.206681 0.319456 0
M  V30 7 O 2.649294 -2.553934 -1.402452 0
M  V30 8 C 1.208874 -1.954957 0.782744 0
M  V30 9 C 0.728861 -0.779354 0.468297 0
M  V30 10 C 0.593354 -0.465959 -0.921564 0
M  V30 11 C 0.103291 0.734640 -1.106547 0
M  V30 12 S -0.451170 2.109541 -0.282377 0
M  V30 13 O -0.188990 3.387867 -1.098695 0
M  V30 14 O -1.983479 2.050519 -0.245249 0
M  V30 15 C 0.054361 2.365193 1.371930 0
M  V30 16 C 1.545400 2.470506 1.571552 0
M  V30 17 C 1.770835 2.685698 3.064988 0
M  V30 18 C 1.086633 3.953261 3.531656 0
M  V30 19 H -1.973683 -2.622757 -0.816902 0
M  V30 20 H -1.948387 -1.827106 0.839694 0
M  V30 21 H -3.207971 -3.035579 0.382444 0
M  V30 22 H -1.915694 -4.599399 1.362719 0
M  V30 23 H -0.565011 -3.487831 1.585991 0
M  V30 24 H -1.336661 -5.182896 -0.858676 0
M  V30 25 H 0.031001 -5.450383 0.252945 0
M  V30 26 H -0.277702 -3.181167 -1.796069 0
M  V30 27 H 0.762566 -4.624906 -1.925035 0
M  V30 28 H 1.337336 -2.206012 1.850886 0
M  V30 29 H 0.498047 -0.200720 1.336792 0
M  V30 30 H 0.865586 -1.134367 -1.714594 0
M  V30 31 H 0.012007 0.913451 -2.205100 0
M  V30 32 H -0.453231 1.689064 2.048444 0
M  V30 33 H -0.310613 3.410187 1.724686 0
M  V30 34 H 1.971476 3.351528 1.027157 0
M  V30 35 H 2.112352 1.603709 1.236002 0
M  V30 36 H 1.316189 1.860461 3.635742 0
M  V30 37 H 2.834191 2.703377 3.318091 0
M  V30 38 H 0.008098 3.697151 3.719067 0
M  V30 39 H 1.562834 4.189990 4.524053 0
M  V30 40 H 1.231682 4.794348 2.846739 0
M  V30 END ATOM
M  V30 BEGIN BOND
M  V30 1 1 1 2
M  V30 2 1 2 3
M  V30 3 1 3 4
M  V30 4 1 4 5
M  V30 5 2 5 6
M  V30 6 2 5 7
M  V30 7 1 5 8
M  V30 8 2 8 9
M  V30 9 1 9 10
M  V30 10 2 10 11
M  V30 11 1 11 12
M  V30 12 2 12 13
M  V30 13 2 12 14
M  V30 14 1 12 15
M  V30 15 1 15 16
M  V30 16 1 16 17
M  V30 17 1 17 18
M  V30 18 1 1 19
M  V30 19 1 1 20
M  V30 20 1 1 21
M  V30 21 1 2 22
M  V30 22 1 2 23
M  V30 23 1 3 24
M  V30 24 1 3 25
M  V30 25 1 4 26
M  V30 26 1 4 27
M  V30 27 1 8 28
M  V30 28 1 9 29
M  V30 29 1 10 30
M  V30 30 1 11 31
M  V30 31 1 15 32
M  V30 32 1 15 33
M  V30 33 1 16 34
M  V30 34 1 16 35
M  V30 35 1 17 36
M  V30 36 1 17 37
M  V30 37 1 18 38
M  V30 38 1 18 39
M  V30 39 1 18 40
M  V30 END BOND
M  V30 END CTAB
M  END
>  <Dataset>  (462) 
ChEMBL_Kinases

>  <Ligand_Instance>  (462) 
nan

>  <PDB_ID>  (462) 
nan

>  <Standardized_SMILES>  (462) 
CCCCS(=O)(=O)/C=C\C=C/S(=O)(=O)CCCC

>  <Name>  (462) 
nan

>  <Pocket>  (462) 
nan

>  <ATP_Site>  (462) 
nan

>  <Peripheral>  (462) 
nan

>  <Num_H_Atoms_ProtBoundConf>  (462) 
nan

>  <Num_Resolved_Atoms>  (462) 
nan

>  <Num_Not_Resolved_Atoms>  (462) 
nan

$$$$
CHEMBL1563413
     RDKit          3D

  0  0  0  0  0  0  0  0  0  0999 V3000
M  V30 BEGIN CTAB
M  V30 COUNTS 48 50 0 0 0
M  V30 BEGIN ATOM
M  V30 1 C -1.095829 -1.125539 3.926007 0
M  V30 2 O -0.593002 -1.486740 2.710546 0
M  V30 3 C -1.223333 -2.553926 2.091476 0
M  V30 4 C -0.588908 -2.836702 0.757624 0
M  V30 5 C -0.678657 -1.706487 -0.177265 0
M  V30 6 N -1.939603 -1.226171 -0.573835 0
M  V30 7 C -2.788334 -0.288448 -0.131050 0
M  V30 8 S -2.546339 0.785389 1.261677 0
M  V30 9 C -1.732921 2.330221 0.861400 0
M  V30 10 C -0.321313 2.087751 0.474442 0
M  V30 11 O -0.032595 1.786702 -0.693235 0
M  V30 12 N 0.669246 2.214217 1.481698 0
M  V30 13 C 2.053634 2.137372 1.781930 0
M  V30 14 C 2.770296 3.326931 1.613489 0
M  V30 15 C 4.135207 3.416482 1.872601 0
M  V30 16 C 4.680500 2.222027 2.304129 0
M  V30 17 C 4.012100 1.027995 2.483884 0
M  V30 18 C 4.738604 -0.181370 2.961035 0
M  V30 19 N 2.709158 1.027839 2.213446 0
M  V30 20 N -3.910536 -0.197456 -0.853069 0
M  V30 21 N -3.833702 -1.099011 -1.823755 0
M  V30 22 C -2.627634 -1.708891 -1.630681 0
M  V30 23 C -2.313951 -2.759556 -2.592041 0
M  V30 24 C -2.679114 -4.079984 -2.361379 0
M  V30 25 C -2.225500 -4.795603 -3.471686 0
M  V30 26 C -1.610891 -3.855140 -4.308366 0
M  V30 27 O -1.684706 -2.689187 -3.760548 0
M  V30 28 H -1.078331 -1.894378 4.714864 0
M  V30 29 H -0.409152 -0.315992 4.315320 0
M  V30 30 H -2.087810 -0.609729 3.865693 0
M  V30 31 H -2.300687 -2.269434 2.009776 0
M  V30 32 H -1.154367 -3.440437 2.776179 0
M  V30 33 H 0.498439 -3.001141 0.971494 0
M  V30 34 H -0.915858 -3.816678 0.336887 0
M  V30 35 H -0.032101 -1.939247 -1.074430 0
M  V30 36 H -0.126644 -0.843919 0.300499 0
M  V30 37 H -1.741890 2.951975 1.777707 0
M  V30 38 H -2.267190 2.907172 0.069907 0
M  V30 39 H 0.365079 2.470943 2.468767 0
M  V30 40 H 2.257940 4.234923 1.266556 0
M  V30 41 H 4.720716 4.306557 1.756553 0
M  V30 42 H 5.757133 2.196989 2.533694 0
M  V30 43 H 4.635843 -1.049624 2.269982 0
M  V30 44 H 4.207711 -0.496683 3.907402 0
M  V30 45 H 5.782126 0.078869 3.173529 0
M  V30 46 H -3.212983 -4.460516 -1.482603 0
M  V30 47 H -2.345981 -5.870173 -3.619963 0
M  V30 48 H -1.149847 -4.079403 -5.261562 0
M  V30 END ATOM
M  V30 BEGIN BOND
M  V30 1 1 1 2
M  V30 2 1 2 3
M  V30 3 1 3 4
M  V30 4 1 4 5
M  V30 5 1 5 6
M  V30 6 1 6 7
M  V30 7 1 7 8
M  V30 8 1 8 9
M  V30 9 1 9 10
M  V30 10 2 10 11
M  V30 11 1 10 12
M  V30 12 1 12 13
M  V30 13 2 13 14
M  V30 14 1 14 15
M  V30 15 2 15 16
M  V30 16 1 16 17
M  V30 17 1 17 18
M  V30 18 2 17 19
M  V30 19 2 7 20
M  V30 20 1 20 21
M  V30 21 2 21 22
M  V30 22 1 22 23
M  V30 23 2 23 24
M  V30 24 1 24 25
M  V30 25 2 25 26
M  V30 26 1 26 27
M  V30 27 1 22 6
M  V30 28 1 27 23
M  V30 29 1 19 13
M  V30 30 1 1 28
M  V30 31 1 1 29
M  V30 32 1 1 30
M  V30 33 1 3 31
M  V30 34 1 3 32
M  V30 35 1 4 33
M  V30 36 1 4 34
M  V30 37 1 5 35
M  V30 38 1 5 36
M  V30 39 1 9 37
M  V30 40 1 9 38
M  V30 41 1 12 39
M  V30 42 1 14 40
M  V30 43 1 15 41
M  V30 44 1 16 42
M  V30 45 1 18 43
M  V30 46 1 18 44
M  V30 47 1 18 45
M  V30 48 1 24 46
M  V30 49 1 25 47
M  V30 50 1 26 48
M  V30 END BOND
M  V30 END CTAB
M  END
>  <Dataset>  (463) 
ChEMBL_Kinases

>  <Ligand_Instance>  (463) 
nan

>  <PDB_ID>  (463) 
nan

>  <Standardized_SMILES>  (463) 
COCCCn1c(SCC(=O)Nc2cccc(C)n2)nnc1-c1ccco1

>  <Name>  (463) 
nan

>  <Pocket>  (463) 
nan

>  <ATP_Site>  (463) 
nan

>  <Peripheral>  (463) 
nan

>  <Num_H_Atoms_ProtBoundConf>  (463) 
nan

>  <Num_Resolved_Atoms>  (463) 
nan

>  <Num_Not_Resolved_Atoms>  (463) 
nan

$$$$
CHEMBL1563110
     RDKit          3D

  0  0  0  0  0  0  0  0  0  0999 V3000
M  V30 BEGIN CTAB
M  V30 COUNTS 57 61 0 0 0
M  V30 BEGIN ATOM
M  V30 1 C 1.733830 2.215156 1.863771 0
M  V30 2 C 1.832463 2.331044 0.410357 0
M  V30 3 C 3.010461 1.986058 -0.215516 0
M  V30 4 C 3.150832 2.089058 -1.577177 0
M  V30 5 F 4.300400 1.750738 -2.171411 0
M  V30 6 C 2.086367 2.547358 -2.320494 0
M  V30 7 C 0.940303 2.874578 -1.638316 0
M  V30 8 C 0.720021 2.796867 -0.253036 0
M  V30 9 S -0.816645 3.252110 0.392179 0
M  V30 10 O -0.677591 4.417262 1.369277 0
M  V30 11 O -1.663891 3.803436 -0.722970 0
M  V30 12 N -1.665824 1.972875 1.174272 0
M  V30 13 C -1.527656 1.095919 2.274474 0
M  V30 14 C -1.135054 1.644995 3.497979 0
M  V30 15 C -0.971493 0.958764 4.673643 0
M  V30 16 C -1.231009 -0.389696 4.582278 0
M  V30 17 C -1.621072 -0.982337 3.400846 0
M  V30 18 C -1.772520 -0.258037 2.247127 0
M  V30 19 C -2.174266 -0.892551 1.005624 0
M  V30 20 O -2.335711 -0.389712 -0.127373 0
M  V30 21 N -2.451904 -2.284267 0.946428 0
M  V30 22 C -2.851285 -3.031104 -0.190356 0
M  V30 23 C -4.202957 -3.094556 -0.364800 0
M  V30 24 C -4.735342 -3.798100 -1.444069 0
M  V30 25 C -3.836769 -4.398263 -2.284728 0
M  V30 26 C -2.467688 -4.365884 -2.155487 0
M  V30 27 C -1.993199 -3.656739 -1.071371 0
M  V30 28 C -0.575378 -3.555294 -0.836683 0
M  V30 29 N 0.068345 -2.914454 0.155559 0
M  V30 30 C 1.399548 -3.059521 0.017671 0
M  V30 31 C 2.473198 -2.611063 0.748250 0
M  V30 32 C 3.785718 -2.878322 0.427055 0
M  V30 33 C 3.990365 -3.648370 -0.707676 0
M  V30 34 C 2.924056 -4.110587 -1.458313 0
M  V30 35 C 1.627429 -3.832091 -1.119443 0
M  V30 36 N 0.403595 -4.102231 -1.593604 0
M  V30 37 H 2.772162 2.365382 2.284820 0
M  V30 38 H 1.428942 1.230467 2.226918 0
M  V30 39 H 1.131581 3.010662 2.338379 0
M  V30 40 H 3.838770 1.625084 0.401474 0
M  V30 41 H 2.135046 2.650460 -3.393058 0
M  V30 42 H 0.109216 3.237512 -2.264036 0
M  V30 43 H -2.609954 1.717527 0.747559 0
M  V30 44 H -0.934965 2.728133 3.536331 0
M  V30 45 H -0.667164 1.464729 5.563462 0
M  V30 46 H -1.115131 -0.984237 5.494677 0
M  V30 47 H -1.793066 -2.046142 3.462142 0
M  V30 48 H -2.391110 -2.932974 1.758931 0
M  V30 49 H -4.930938 -2.626671 0.289380 0
M  V30 50 H -5.802793 -3.853398 -1.589201 0
M  V30 51 H -4.254405 -4.945734 -3.124622 0
M  V30 52 H -1.804546 -4.855838 -2.845621 0
M  V30 53 H 2.331936 -2.006135 1.640852 0
M  V30 54 H 4.619154 -2.516415 1.014531 0
M  V30 55 H 5.002405 -3.881599 -0.995822 0
M  V30 56 H 3.043424 -4.706330 -2.338032 0
M  V30 57 H 0.213775 -4.671273 -2.451941 0
M  V30 END ATOM
M  V30 BEGIN BOND
M  V30 1 1 1 2
M  V30 2 2 2 3
M  V30 3 1 3 4
M  V30 4 1 4 5
M  V30 5 2 4 6
M  V30 6 1 6 7
M  V30 7 2 7 8
M  V30 8 1 8 9
M  V30 9 2 9 10
M  V30 10 2 9 11
M  V30 11 1 9 12
M  V30 12 1 12 13
M  V30 13 2 13 14
M  V30 14 1 14 15
M  V30 15 2 15 16
M  V30 16 1 16 17
M  V30 17 2 17 18
M  V30 18 1 18 19
M  V30 19 2 19 20
M  V30 20 1 19 21
M  V30 21 1 21 22
M  V30 22 2 22 23
M  V30 23 1 23 24
M  V30 24 2 24 25
M  V30 25 1 25 26
M  V30 26 2 26 27
M  V30 27 1 27 28
M  V30 28 2 28 29
M  V30 29 1 29 30
M  V30 30 2 30 31
M  V30 31 1 31 32
M  V30 32 2 32 33
M  V30 33 1 33 34
M  V30 34 2 34 35
M  V30 35 1 35 36
M  V30 36 1 8 2
M  V30 37 1 18 13
M  V30 38 1 27 22
M  V30 39 1 36 28
M  V30 40 1 35 30
M  V30 41 1 1 37
M  V30 42 1 1 38
M  V30 43 1 1 39
M  V30 44 1 3 40
M  V30 45 1 6 41
M  V30 46 1 7 42
M  V30 47 1 12 43
M  V30 48 1 14 44
M  V30 49 1 15 45
M  V30 50 1 16 46
M  V30 51 1 17 47
M  V30 52 1 21 48
M  V30 53 1 23 49
M  V30 54 1 24 50
M  V30 55 1 25 51
M  V30 56 1 26 52
M  V30 57 1 31 53
M  V30 58 1 32 54
M  V30 59 1 33 55
M  V30 60 1 34 56
M  V30 61 1 36 57
M  V30 END BOND
M  V30 END CTAB
M  END
>  <Dataset>  (464) 
ChEMBL_Kinases

>  <Ligand_Instance>  (464) 
nan

>  <PDB_ID>  (464) 
nan

>  <Standardized_SMILES>  (464) 
Cc1cc(F)ccc1S(=O)(=O)Nc1ccccc1C(=O)Nc1ccccc1-c1nc2ccccc2[nH]1

>  <Name>  (464) 
nan

>  <Pocket>  (464) 
nan

>  <ATP_Site>  (464) 
nan

>  <Peripheral>  (464) 
nan

>  <Num_H_Atoms_ProtBoundConf>  (464) 
nan

>  <Num_Resolved_Atoms>  (464) 
nan

>  <Num_Not_Resolved_Atoms>  (464) 
nan

$$$$
CHEMBL1563017
     RDKit          3D

  0  0  0  0  0  0  0  0  0  0999 V3000
M  V30 BEGIN CTAB
M  V30 COUNTS 36 37 0 0 0
M  V30 BEGIN ATOM
M  V30 1 O 0.536190 -3.203699 3.503789 0
M  V30 2 C 1.028296 -2.518634 2.546265 0
M  V30 3 C 2.367044 -1.987280 2.834639 0
M  V30 4 S 2.388258 -0.253545 3.262998 0
M  V30 5 C 2.072037 0.835034 1.898311 0
M  V30 6 N 1.860311 0.377686 0.688537 0
M  V30 7 C 1.631302 1.155192 -0.370579 0
M  V30 8 C 1.604459 2.517495 -0.255971 0
M  V30 9 C 1.344424 3.248298 -1.517118 0
M  V30 10 F 1.831796 2.525122 -2.603509 0
M  V30 11 F -0.026171 3.370334 -1.716561 0
M  V30 12 F 1.973682 4.482800 -1.469487 0
M  V30 13 C 1.822745 3.045449 1.000244 0
M  V30 14 C 2.054418 2.189177 2.068472 0
M  V30 15 Cl 2.311659 2.947084 3.601390 0
M  V30 16 N 0.135385 -2.470307 1.476463 0
M  V30 17 C -1.127761 -3.156342 1.558519 0
M  V30 18 C -1.929131 -2.899882 0.307830 0
M  V30 19 C -2.341764 -1.464406 0.203941 0
M  V30 20 C -1.974845 -1.083018 -1.199255 0
M  V30 21 C -1.146691 -2.222594 -1.681538 0
M  V30 22 O -1.271993 -3.293595 -0.814766 0
M  V30 23 H 2.996823 -2.126319 1.918912 0
M  V30 24 H 2.888701 -2.577766 3.624883 0
M  V30 25 H 1.478001 0.573320 -1.293595 0
M  V30 26 H 1.794239 4.122994 1.036265 0
M  V30 27 H 0.477787 -1.922365 0.663248 0
M  V30 28 H -0.917207 -4.245649 1.677235 0
M  V30 29 H -1.692666 -2.828500 2.469936 0
M  V30 30 H -2.838391 -3.556862 0.395299 0
M  V30 31 H -3.438349 -1.387390 0.396897 0
M  V30 32 H -1.832790 -0.857535 0.974841 0
M  V30 33 H -2.897608 -0.942138 -1.798745 0
M  V30 34 H -1.440502 -0.109453 -1.200401 0
M  V30 35 H -0.079531 -1.907387 -1.668255 0
M  V30 36 H -1.428489 -2.502188 -2.724150 0
M  V30 END ATOM
M  V30 BEGIN BOND
M  V30 1 2 1 2
M  V30 2 1 2 3
M  V30 3 1 3 4
M  V30 4 1 4 5
M  V30 5 2 5 6
M  V30 6 1 6 7
M  V30 7 2 7 8
M  V30 8 1 8 9
M  V30 9 1 9 10
M  V30 10 1 9 11
M  V30 11 1 9 12
M  V30 12 1 8 13
M  V30 13 2 13 14
M  V30 14 1 14 15
M  V30 15 1 2 16
M  V30 16 1 16 17
M  V30 17 1 17 18
M  V30 18 1 18 19
M  V30 19 1 19 20
M  V30 20 1 20 21
M  V30 21 1 21 22
M  V30 22 1 14 5
M  V30 23 1 22 18
M  V30 24 1 3 23
M  V30 25 1 3 24
M  V30 26 1 7 25
M  V30 27 1 13 26
M  V30 28 1 16 27
M  V30 29 1 17 28
M  V30 30 1 17 29
M  V30 31 1 18 30
M  V30 32 1 19 31
M  V30 33 1 19 32
M  V30 34 1 20 33
M  V30 35 1 20 34
M  V30 36 1 21 35
M  V30 37 1 21 36
M  V30 END BOND
M  V30 END CTAB
M  END
>  <Dataset>  (465) 
ChEMBL_Kinases

>  <Ligand_Instance>  (465) 
nan

>  <PDB_ID>  (465) 
nan

>  <Standardized_SMILES>  (465) 
O=C(CSc1ncc(C(F)(F)F)cc1Cl)NCC1CCCO1

>  <Name>  (465) 
nan

>  <Pocket>  (465) 
nan

>  <ATP_Site>  (465) 
nan

>  <Peripheral>  (465) 
nan

>  <Num_H_Atoms_ProtBoundConf>  (465) 
nan

>  <Num_Resolved_Atoms>  (465) 
nan

>  <Num_Not_Resolved_Atoms>  (465) 
nan

$$$$
CHEMBL1563009
     RDKit          3D

  0  0  0  0  0  0  0  0  0  0999 V3000
M  V30 BEGIN CTAB
M  V30 COUNTS 52 55 0 0 0
M  V30 BEGIN ATOM
M  V30 1 O -2.204345 -2.318769 -1.439522 0
M  V30 2 C -1.116791 -2.682485 -0.875902 0
M  V30 3 N -0.606240 -1.997747 0.283734 0
M  V30 4 C -1.115215 -0.887688 1.008484 0
M  V30 5 C -0.456755 0.256923 1.122589 0
M  V30 6 C 0.853624 0.518829 0.528532 0
M  V30 7 C 1.413977 0.129875 -0.689440 0
M  V30 8 C 2.696362 0.655655 -0.752528 0
M  V30 9 C 2.863323 1.343037 0.430326 0
M  V30 10 C 4.085578 2.074729 0.814300 0
M  V30 11 C 5.178424 2.108988 -0.036874 0
M  V30 12 C 6.297526 2.806821 0.370536 0
M  V30 13 C 6.351631 3.460735 1.587061 0
M  V30 14 C 5.269632 3.433417 2.442308 0
M  V30 15 C 4.139440 2.727943 2.029555 0
M  V30 16 O 1.786459 1.244009 1.142112 0
M  V30 17 C -2.410118 -1.144652 1.618336 0
M  V30 18 O -2.394617 -2.313902 1.153750 0
M  V30 19 N -3.456791 -0.596319 2.406096 0
M  V30 20 C -3.728970 0.699985 3.055490 0
M  V30 21 C -4.933983 1.294579 2.355568 0
M  V30 22 O -5.554416 0.363231 1.528532 0
M  V30 23 C -5.806727 -0.835936 2.133471 0
M  V30 24 C -4.559085 -1.501322 2.666842 0
M  V30 25 C -0.351738 -3.811597 -1.392805 0
M  V30 26 C 0.821816 -4.313493 -0.900050 0
M  V30 27 C 1.439427 -5.395192 -1.493933 0
M  V30 28 C 0.910175 -6.026620 -2.611360 0
M  V30 29 C -0.271140 -5.548185 -3.135321 0
M  V30 30 C -0.849513 -4.465681 -2.506572 0
M  V30 31 H 0.261839 -2.233892 0.786749 0
M  V30 32 H -0.915278 1.056056 1.692036 0
M  V30 33 H 0.873851 -0.477920 -1.406538 0
M  V30 34 H 3.386346 0.525902 -1.580250 0
M  V30 35 H 5.156450 1.600890 -0.999706 0
M  V30 36 H 7.190849 2.871326 -0.255165 0
M  V30 37 H 7.223516 4.023065 1.940456 0
M  V30 38 H 5.277154 3.937193 3.409008 0
M  V30 39 H 3.299181 2.716519 2.713258 0
M  V30 40 H -2.904618 1.399987 2.973267 0
M  V30 41 H -4.049734 0.524094 4.110486 0
M  V30 42 H -4.556033 2.083441 1.674471 0
M  V30 43 H -5.630812 1.802065 3.045969 0
M  V30 44 H -6.617254 -0.789925 2.894606 0
M  V30 45 H -6.213906 -1.509153 1.323359 0
M  V30 46 H -4.424266 -2.514277 2.242243 0
M  V30 47 H -4.711782 -1.608958 3.764881 0
M  V30 48 H 1.229895 -3.819347 -0.031574 0
M  V30 49 H 2.371005 -5.773627 -1.080848 0
M  V30 50 H 1.349975 -6.875687 -3.115917 0
M  V30 51 H -0.733051 -5.998665 -4.006176 0
M  V30 52 H -1.789943 -4.114797 -2.954240 0
M  V30 END ATOM
M  V30 BEGIN BOND
M  V30 1 2 1 2
M  V30 2 1 2 3
M  V30 3 1 3 4
M  V30 4 2 4 5
M  V30 5 1 5 6
M  V30 6 2 6 7
M  V30 7 1 7 8
M  V30 8 2 8 9
M  V30 9 1 9 10
M  V30 10 2 10 11
M  V30 11 1 11 12
M  V30 12 2 12 13
M  V30 13 1 13 14
M  V30 14 2 14 15
M  V30 15 1 9 16
M  V30 16 1 4 17
M  V30 17 2 17 18
M  V30 18 1 17 19
M  V30 19 1 19 20
M  V30 20 1 20 21
M  V30 21 1 21 22
M  V30 22 1 22 23
M  V30 23 1 23 24
M  V30 24 1 2 25
M  V30 25 2 25 26
M  V30 26 1 26 27
M  V30 27 2 27 28
M  V30 28 1 28 29
M  V30 29 2 29 30
M  V30 30 1 16 6
M  V30 31 1 24 19
M  V30 32 1 30 25
M  V30 33 1 15 10
M  V30 34 1 3 31
M  V30 35 1 5 32
M  V30 36 1 7 33
M  V30 37 1 8 34
M  V30 38 1 11 35
M  V30 39 1 12 36
M  V30 40 1 13 37
M  V30 41 1 14 38
M  V30 42 1 15 39
M  V30 43 1 20 40
M  V30 44 1 20 41
M  V30 45 1 21 42
M  V30 46 1 21 43
M  V30 47 1 23 44
M  V30 48 1 23 45
M  V30 49 1 24 46
M  V30 50 1 24 47
M  V30 51 1 26 48
M  V30 52 1 27 49
M  V30 53 1 28 50
M  V30 54 1 29 51
M  V30 55 1 30 52
M  V30 END BOND
M  V30 END CTAB
M  END
>  <Dataset>  (466) 
ChEMBL_Kinases

>  <Ligand_Instance>  (466) 
nan

>  <PDB_ID>  (466) 
nan

>  <Standardized_SMILES>  (466) 
O=C(N/C(=C\c1ccc(-c2ccccc2)o1)C(=O)N1CCOCC1)c1ccccc1

>  <Name>  (466) 
nan

>  <Pocket>  (466) 
nan

>  <ATP_Site>  (466) 
nan

>  <Peripheral>  (466) 
nan

>  <Num_H_Atoms_ProtBoundConf>  (466) 
nan

>  <Num_Resolved_Atoms>  (466) 
nan

>  <Num_Not_Resolved_Atoms>  (466) 
nan

$$$$
CHEMBL1562951
     RDKit          3D

  0  0  0  0  0  0  0  0  0  0999 V3000
M  V30 BEGIN CTAB
M  V30 COUNTS 24 25 0 0 0
M  V30 BEGIN ATOM
M  V30 1 N -0.611396 -3.475425 2.439929 0
M  V30 2 C -0.380062 -2.275635 1.723921 0
M  V30 3 O -0.093164 -1.261753 2.399455 0
M  V30 4 C -0.457896 -2.166461 0.273478 0
M  V30 5 C -0.764273 -3.227316 -0.520096 0
M  V30 6 C -0.814133 -3.019168 -1.905146 0
M  V30 7 S -0.393846 -1.193670 -2.037465 0
M  V30 8 C -0.216284 -0.943384 -0.375305 0
M  V30 9 N 0.123846 0.326761 0.200901 0
M  V30 10 C 1.488753 0.558533 0.349482 0
M  V30 11 O 2.433549 -0.208996 0.039647 0
M  V30 12 C 1.876893 1.912653 0.964630 0
M  V30 13 C 1.148608 2.936793 1.395827 0
M  V30 14 C 1.798442 3.986804 1.884473 0
M  V30 15 C 3.128162 3.957037 1.915566 0
M  V30 16 S 3.540131 2.405514 1.239281 0
M  V30 17 H -1.236594 -3.845810 3.162373 0
M  V30 18 H -0.218459 -4.451286 2.496149 0
M  V30 19 H -0.975654 -4.229993 -0.174691 0
M  V30 20 H -1.035465 -3.721146 -2.690792 0
M  V30 21 H -0.593970 1.042346 0.495210 0
M  V30 22 H 0.056047 2.801079 1.299052 0
M  V30 23 H 1.240610 4.868655 2.258060 0
M  V30 24 H 3.808297 4.815612 2.320072 0
M  V30 END ATOM
M  V30 BEGIN BOND
M  V30 1 1 1 2
M  V30 2 2 2 3
M  V30 3 1 2 4
M  V30 4 1 4 5
M  V30 5 2 5 6
M  V30 6 1 6 7
M  V30 7 1 7 8
M  V30 8 1 8 9
M  V30 9 1 9 10
M  V30 10 2 10 11
M  V30 11 1 10 12
M  V30 12 2 12 13
M  V30 13 1 13 14
M  V30 14 2 14 15
M  V30 15 1 15 16
M  V30 16 2 8 4
M  V30 17 1 16 12
M  V30 18 1 1 17
M  V30 19 1 1 18
M  V30 20 1 5 19
M  V30 21 1 6 20
M  V30 22 1 9 21
M  V30 23 1 13 22
M  V30 24 1 14 23
M  V30 25 1 15 24
M  V30 END BOND
M  V30 END CTAB
M  END
>  <Dataset>  (467) 
ChEMBL_Kinases

>  <Ligand_Instance>  (467) 
nan

>  <PDB_ID>  (467) 
nan

>  <Standardized_SMILES>  (467) 
NC(=O)c1ccsc1NC(=O)c1cccs1

>  <Name>  (467) 
nan

>  <Pocket>  (467) 
nan

>  <ATP_Site>  (467) 
nan

>  <Peripheral>  (467) 
nan

>  <Num_H_Atoms_ProtBoundConf>  (467) 
nan

>  <Num_Resolved_Atoms>  (467) 
nan

>  <Num_Not_Resolved_Atoms>  (467) 
nan

$$$$
CHEMBL1562949
     RDKit          3D

  0  0  0  0  0  0  0  0  0  0999 V3000
M  V30 BEGIN CTAB
M  V30 COUNTS 42 44 0 0 0
M  V30 BEGIN ATOM
M  V30 1 C -0.603871 -7.034405 1.486840 0
M  V30 2 C 0.358030 -5.844897 1.369582 0
M  V30 3 C 0.475939 -5.545226 -0.114433 0
M  V30 4 N 1.382427 -4.411688 -0.333548 0
M  V30 5 C 0.935738 -3.036330 -0.369513 0
M  V30 6 O -0.277284 -2.737038 -0.213806 0
M  V30 7 C 1.999190 -2.069715 -0.597763 0
M  V30 8 C 1.999336 -0.788093 -0.312633 0
M  V30 9 C 0.860918 -0.125905 0.310470 0
M  V30 10 C 0.876910 1.143052 0.583286 0
M  V30 11 S 2.374939 2.077339 0.164491 0
M  V30 12 C 1.816751 3.577648 0.972914 0
M  V30 13 C 2.484517 4.759996 1.135745 0
M  V30 14 C 1.877061 5.834081 1.740868 0
M  V30 15 C 0.583952 5.630317 2.156213 0
M  V30 16 C -0.081446 4.439031 1.990201 0
M  V30 17 C 0.517933 3.354912 1.385655 0
M  V30 18 N -0.027079 2.055403 1.188802 0
M  V30 19 C -1.388542 1.693927 1.520553 0
M  V30 20 C -2.305762 1.550100 0.353565 0
M  V30 21 O -1.988134 0.629080 -0.592874 0
M  V30 22 S 3.313713 -3.069237 -1.354878 0
M  V30 23 C 2.800951 -4.605473 -0.528139 0
M  V30 24 S 3.628443 -5.920448 -0.075717 0
M  V30 25 H -0.925298 -7.177943 2.533549 0
M  V30 26 H -1.503400 -6.859276 0.846157 0
M  V30 27 H -0.122979 -7.962695 1.099518 0
M  V30 28 H 1.346003 -6.098628 1.787275 0
M  V30 29 H -0.163202 -5.022104 1.919091 0
M  V30 30 H 0.815766 -6.442490 -0.630107 0
M  V30 31 H -0.567569 -5.267498 -0.449510 0
M  V30 32 H 2.917545 -0.309771 -0.588947 0
M  V30 33 H -0.033047 -0.649355 0.595886 0
M  V30 34 H 3.496433 4.852872 0.787578 0
M  V30 35 H 2.420548 6.753089 1.858559 0
M  V30 36 H 0.114703 6.499222 2.635776 0
M  V30 37 H -1.105002 4.457673 2.381809 0
M  V30 38 H -1.802550 2.387414 2.296959 0
M  V30 39 H -1.329041 0.669834 1.997613 0
M  V30 40 H -3.362000 1.303477 0.687886 0
M  V30 41 H -2.424510 2.539532 -0.187046 0
M  V30 42 H -1.522140 0.977670 -1.406213 0
M  V30 END ATOM
M  V30 BEGIN BOND
M  V30 1 1 1 2
M  V30 2 1 2 3
M  V30 3 1 3 4
M  V30 4 1 4 5
M  V30 5 2 5 6
M  V30 6 1 5 7
M  V30 7 2 7 8
M  V30 8 1 8 9
M  V30 9 2 9 10
M  V30 10 1 10 11
M  V30 11 1 11 12
M  V30 12 2 12 13
M  V30 13 1 13 14
M  V30 14 2 14 15
M  V30 15 1 15 16
M  V30 16 2 16 17
M  V30 17 1 17 18
M  V30 18 1 18 19
M  V30 19 1 19 20
M  V30 20 1 20 21
M  V30 21 1 7 22
M  V30 22 1 22 23
M  V30 23 2 23 24
M  V30 24 1 23 4
M  V30 25 1 18 10
M  V30 26 1 17 12
M  V30 27 1 1 25
M  V30 28 1 1 26
M  V30 29 1 1 27
M  V30 30 1 2 28
M  V30 31 1 2 29
M  V30 32 1 3 30
M  V30 33 1 3 31
M  V30 34 1 8 32
M  V30 35 1 9 33
M  V30 36 1 13 34
M  V30 37 1 14 35
M  V30 38 1 15 36
M  V30 39 1 16 37
M  V30 40 1 19 38
M  V30 41 1 19 39
M  V30 42 1 20 40
M  V30 43 1 20 41
M  V30 44 1 21 42
M  V30 END BOND
M  V30 END CTAB
M  END
>  <Dataset>  (468) 
ChEMBL_Kinases

>  <Ligand_Instance>  (468) 
nan

>  <PDB_ID>  (468) 
nan

>  <Standardized_SMILES>  (468) 
CCCN1C(=O)/C(=C\C=C2/Sc3ccccc3N2CCO)SC1=S

>  <Name>  (468) 
nan

>  <Pocket>  (468) 
nan

>  <ATP_Site>  (468) 
nan

>  <Peripheral>  (468) 
nan

>  <Num_H_Atoms_ProtBoundConf>  (468) 
nan

>  <Num_Resolved_Atoms>  (468) 
nan

>  <Num_Not_Resolved_Atoms>  (468) 
nan

$$$$
CHEMBL1562777
     RDKit          3D

  0  0  0  0  0  0  0  0  0  0999 V3000
M  V30 BEGIN CTAB
M  V30 COUNTS 31 32 0 0 0
M  V30 BEGIN ATOM
M  V30 1 O 2.270914 0.389362 0.182404 0
M  V30 2 C 1.126040 0.784887 0.505742 0
M  V30 3 N 0.245870 0.639602 -0.618988 0
M  V30 4 N 1.011923 0.107877 -1.651026 0
M  V30 5 C 0.917967 -1.133355 -1.874101 0
M  V30 6 C 0.248245 -2.330076 -1.416400 0
M  V30 7 C 0.646225 -3.403580 -2.166329 0
M  V30 8 C 0.091207 -4.619932 -1.846985 0
M  V30 9 C -0.818877 -4.801903 -0.838060 0
M  V30 10 C -1.203349 -3.724918 -0.102892 0
M  V30 11 C -0.644890 -2.522827 -0.430047 0
M  V30 12 O -1.058389 -1.469761 0.332506 0
M  V30 13 C 0.841784 1.292055 1.836056 0
M  V30 14 C 1.902785 1.312010 2.714622 0
M  V30 15 C 1.749555 1.772855 4.003222 0
M  V30 16 C 0.543969 2.235880 4.487495 0
M  V30 17 C -0.523837 2.219748 3.615380 0
M  V30 18 C -0.348701 1.754612 2.330575 0
M  V30 19 O -1.437731 1.759075 1.505122 0
M  V30 20 H -0.739327 0.956742 -0.485831 0
M  V30 21 H 1.636170 -1.096185 -2.699555 0
M  V30 22 H 1.362477 -3.423544 -3.004041 0
M  V30 23 H 0.375206 -5.492389 -2.410627 0
M  V30 24 H -1.210704 -5.787233 -0.646521 0
M  V30 25 H -1.915331 -3.844524 0.692504 0
M  V30 26 H -2.004091 -1.314941 0.663433 0
M  V30 27 H 2.901322 0.960503 2.411175 0
M  V30 28 H 2.613377 1.767511 4.652587 0
M  V30 29 H 0.396059 2.603070 5.494308 0
M  V30 30 H -1.492727 2.570576 3.939598 0
M  V30 31 H -2.328504 1.314488 1.740137 0
M  V30 END ATOM
M  V30 BEGIN BOND
M  V30 1 2 1 2
M  V30 2 1 2 3
M  V30 3 1 3 4
M  V30 4 2 4 5
M  V30 5 1 5 6
M  V30 6 2 6 7
M  V30 7 1 7 8
M  V30 8 2 8 9
M  V30 9 1 9 10
M  V30 10 2 10 11
M  V30 11 1 11 12
M  V30 12 1 2 13
M  V30 13 2 13 14
M  V30 14 1 14 15
M  V30 15 2 15 16
M  V30 16 1 16 17
M  V30 17 2 17 18
M  V30 18 1 18 19
M  V30 19 1 11 6
M  V30 20 1 18 13
M  V30 21 1 3 20
M  V30 22 1 5 21
M  V30 23 1 7 22
M  V30 24 1 8 23
M  V30 25 1 9 24
M  V30 26 1 10 25
M  V30 27 1 12 26
M  V30 28 1 14 27
M  V30 29 1 15 28
M  V30 30 1 16 29
M  V30 31 1 17 30
M  V30 32 1 19 31
M  V30 END BOND
M  V30 END CTAB
M  END
>  <Dataset>  (469) 
ChEMBL_Kinases

>  <Ligand_Instance>  (469) 
nan

>  <PDB_ID>  (469) 
nan

>  <Standardized_SMILES>  (469) 
O=C(N/N=C\c1ccccc1O)c1ccccc1O

>  <Name>  (469) 
nan

>  <Pocket>  (469) 
nan

>  <ATP_Site>  (469) 
nan

>  <Peripheral>  (469) 
nan

>  <Num_H_Atoms_ProtBoundConf>  (469) 
nan

>  <Num_Resolved_Atoms>  (469) 
nan

>  <Num_Not_Resolved_Atoms>  (469) 
nan

$$$$
CHEMBL1562716
     RDKit          3D

  0  0  0  0  0  0  0  0  0  0999 V3000
M  V30 BEGIN CTAB
M  V30 COUNTS 43 46 0 0 0
M  V30 BEGIN ATOM
M  V30 1 O -1.591470 -3.978670 3.946474 0
M  V30 2 C -1.304831 -3.870620 2.717147 0
M  V30 3 C -0.983528 -5.063069 1.940305 0
M  V30 4 C -0.052521 -4.893637 1.014590 0
M  V30 5 C 0.650369 -3.621247 0.735641 0 CFG=1
M  V30 6 O 1.071674 -3.639410 -0.592334 0
M  V30 7 C -0.036167 -2.383755 1.140952 0 CFG=1
M  V30 8 C -0.520167 -1.528375 -0.008561 0 CFG=2
M  V30 9 C 0.563367 -0.792636 -0.695442 0
M  V30 10 O 1.680833 -1.127252 -1.171091 0
M  V30 11 N 0.204747 0.595946 -0.815505 0
M  V30 12 C 0.881726 1.711028 -1.451841 0
M  V30 13 C 1.763737 2.327491 -0.433059 0
M  V30 14 C 1.250331 3.334042 0.346682 0
M  V30 15 C 1.997514 3.964645 1.318692 0
M  V30 16 C 3.303297 3.544143 1.486609 0
M  V30 17 C 3.849659 2.532854 0.717014 0
M  V30 18 C 3.078775 1.907611 -0.260328 0
M  V30 19 C -1.042866 0.797063 -0.163868 0
M  V30 20 O -1.787463 1.808357 -0.180627 0
M  V30 21 C -1.366730 -0.422707 0.584235 0 CFG=2
M  V30 22 C -1.063905 -0.189642 2.040816 0
M  V30 23 C -1.397442 -1.395358 2.893785 0
M  V30 24 C -1.268181 -2.602053 1.983060 0 CFG=2
M  V30 25 H -1.498578 -6.015385 2.143236 0
M  V30 26 H 0.204814 -5.768856 0.420204 0
M  V30 27 H 1.615620 -3.698103 1.326323 0
M  V30 28 H 1.833453 -4.285541 -0.708519 0
M  V30 29 H 0.680493 -1.710596 1.706670 0
M  V30 30 H -1.119865 -2.165605 -0.666935 0
M  V30 31 H 0.171098 2.413650 -1.890247 0
M  V30 32 H 1.558190 1.286588 -2.237289 0
M  V30 33 H 0.227337 3.660963 0.212583 0
M  V30 34 H 1.557271 4.741184 1.900292 0
M  V30 35 H 3.930529 4.005241 2.233933 0
M  V30 36 H 4.854511 2.226547 0.863607 0
M  V30 37 H 3.448817 1.103273 -0.901618 0
M  V30 38 H -2.450892 -0.617245 0.461910 0
M  V30 39 H -1.755529 0.626648 2.360489 0
M  V30 40 H -0.041712 0.193940 2.189566 0
M  V30 41 H -2.368559 -1.334035 3.399701 0
M  V30 42 H -0.541712 -1.490139 3.624302 0
M  V30 43 H -2.211078 -2.566662 1.357236 0
M  V30 END ATOM
M  V30 BEGIN BOND
M  V30 1 2 1 2
M  V30 2 1 2 3
M  V30 3 2 3 4
M  V30 4 1 4 5
M  V30 5 1 5 6
M  V30 6 1 5 7
M  V30 7 1 7 8
M  V30 8 1 8 9
M  V30 9 2 9 10
M  V30 10 1 9 11
M  V30 11 1 11 12
M  V30 12 1 12 13
M  V30 13 2 13 14
M  V30 14 1 14 15
M  V30 15 2 15 16
M  V30 16 1 16 17
M  V30 17 2 17 18
M  V30 18 1 11 19
M  V30 19 2 19 20
M  V30 20 1 19 21
M  V30 21 1 21 22
M  V30 22 1 22 23
M  V30 23 1 23 24
M  V30 24 1 24 2
M  V30 25 1 24 7
M  V30 26 1 21 8
M  V30 27 1 18 13
M  V30 28 1 3 25
M  V30 29 1 4 26
M  V30 30 1 5 27 CFG=1
M  V30 31 1 6 28
M  V30 32 1 7 29 CFG=1
M  V30 33 1 8 30 CFG=3
M  V30 34 1 12 31
M  V30 35 1 12 32
M  V30 36 1 14 33
M  V30 37 1 15 34
M  V30 38 1 16 35
M  V30 39 1 17 36
M  V30 40 1 18 37
M  V30 41 1 21 38 CFG=1
M  V30 42 1 22 39
M  V30 43 1 22 40
M  V30 44 1 23 41
M  V30 45 1 23 42
M  V30 46 1 24 43 CFG=3
M  V30 END BOND
M  V30 END CTAB
M  END
>  <Dataset>  (470) 
ChEMBL_Kinases

>  <Ligand_Instance>  (470) 
nan

>  <PDB_ID>  (470) 
nan

>  <Standardized_SMILES>  (470) 
O=C1C=C[C@@H](O)[C@H]2[C@@H]3C(=O)N(Cc4ccccc4)C(=O)[C@@H]3CC[C@H]12

>  <Name>  (470) 
nan

>  <Pocket>  (470) 
nan

>  <ATP_Site>  (470) 
nan

>  <Peripheral>  (470) 
nan

>  <Num_H_Atoms_ProtBoundConf>  (470) 
nan

>  <Num_Resolved_Atoms>  (470) 
nan

>  <Num_Not_Resolved_Atoms>  (470) 
nan

$$$$
CHEMBL1562698
     RDKit          3D

  0  0  0  0  0  0  0  0  0  0999 V3000
M  V30 BEGIN CTAB
M  V30 COUNTS 42 45 0 0 0
M  V30 BEGIN ATOM
M  V30 1 O 1.806996 -0.594105 1.438375 0
M  V30 2 C 0.608054 -0.939625 1.248025 0
M  V30 3 C -0.040472 -2.164250 0.777986 0
M  V30 4 C 0.953982 -3.261105 0.446368 0
M  V30 5 C 1.895341 -2.836664 -0.622710 0
M  V30 6 N 3.076667 -2.226155 -0.519224 0
M  V30 7 C 3.623180 -2.011386 -1.726878 0
M  V30 8 C 4.819880 -1.418199 -2.090680 0
M  V30 9 C 5.143927 -1.325343 -3.446514 0
M  V30 10 C 4.244929 -1.835791 -4.376001 0
M  V30 11 C 3.056391 -2.424092 -3.999094 0
M  V30 12 C 2.726327 -2.521281 -2.666454 0
M  V30 13 N 1.690918 -3.011822 -1.930426 0
M  V30 14 N -0.253316 0.147599 1.583663 0
M  V30 15 C 0.363636 1.374414 2.052741 0
M  V30 16 C -0.015926 1.689816 3.482028 0
M  V30 17 C -1.482739 1.514255 3.642224 0
M  V30 18 C -2.141483 2.071888 4.721186 0
M  V30 19 C -3.517351 1.939503 4.922568 0
M  V30 20 C -4.209490 1.209597 3.974416 0
M  V30 21 C -3.562437 0.643804 2.886033 0
M  V30 22 C -2.205686 0.791689 2.714885 0
M  V30 23 C -1.703470 0.111214 1.488311 0
M  V30 24 H -0.728977 -2.576757 1.545171 0
M  V30 25 H -0.669012 -2.022745 -0.127066 0
M  V30 26 H 1.546326 -3.445898 1.380578 0
M  V30 27 H 0.471589 -4.191584 0.147956 0
M  V30 28 H 5.513254 -1.024225 -1.368749 0
M  V30 29 H 6.076817 -0.864584 -3.760848 0
M  V30 30 H 4.488542 -1.768722 -5.446134 0
M  V30 31 H 2.359897 -2.819493 -4.717899 0
M  V30 32 H 0.883347 -3.453055 -2.444333 0
M  V30 33 H -0.044167 2.191380 1.414701 0
M  V30 34 H 1.457509 1.364256 1.946808 0
M  V30 35 H 0.167084 2.787717 3.626680 0
M  V30 36 H 0.557209 1.083941 4.209926 0
M  V30 37 H -1.532113 2.631514 5.424637 0
M  V30 38 H -3.991346 2.396984 5.787907 0
M  V30 39 H -5.276993 1.135307 4.175640 0
M  V30 40 H -4.251566 0.105023 2.239375 0
M  V30 41 H -2.059077 -0.932920 1.424361 0
M  V30 42 H -1.981290 0.687355 0.572175 0
M  V30 END ATOM
M  V30 BEGIN BOND
M  V30 1 2 1 2
M  V30 2 1 2 3
M  V30 3 1 3 4
M  V30 4 1 4 5
M  V30 5 2 5 6
M  V30 6 1 6 7
M  V30 7 2 7 8
M  V30 8 1 8 9
M  V30 9 2 9 10
M  V30 10 1 10 11
M  V30 11 2 11 12
M  V30 12 1 12 13
M  V30 13 1 2 14
M  V30 14 1 14 15
M  V30 15 1 15 16
M  V30 16 1 16 17
M  V30 17 2 17 18
M  V30 18 1 18 19
M  V30 19 2 19 20
M  V30 20 1 20 21
M  V30 21 2 21 22
M  V30 22 1 22 23
M  V30 23 1 13 5
M  V30 24 1 23 14
M  V30 25 1 12 7
M  V30 26 1 22 17
M  V30 27 1 3 24
M  V30 28 1 3 25
M  V30 29 1 4 26
M  V30 30 1 4 27
M  V30 31 1 8 28
M  V30 32 1 9 29
M  V30 33 1 10 30
M  V30 34 1 11 31
M  V30 35 1 13 32
M  V30 36 1 15 33
M  V30 37 1 15 34
M  V30 38 1 16 35
M  V30 39 1 16 36
M  V30 40 1 18 37
M  V30 41 1 19 38
M  V30 42 1 20 39
M  V30 43 1 21 40
M  V30 44 1 23 41
M  V30 45 1 23 42
M  V30 END BOND
M  V30 END CTAB
M  END
>  <Dataset>  (471) 
ChEMBL_Kinases

>  <Ligand_Instance>  (471) 
nan

>  <PDB_ID>  (471) 
nan

>  <Standardized_SMILES>  (471) 
O=C(CCc1nc2ccccc2[nH]1)N1CCc2ccccc2C1

>  <Name>  (471) 
nan

>  <Pocket>  (471) 
nan

>  <ATP_Site>  (471) 
nan

>  <Peripheral>  (471) 
nan

>  <Num_H_Atoms_ProtBoundConf>  (471) 
nan

>  <Num_Resolved_Atoms>  (471) 
nan

>  <Num_Not_Resolved_Atoms>  (471) 
nan

$$$$
CHEMBL1562602
     RDKit          3D

  0  0  0  0  0  0  0  0  0  0999 V3000
M  V30 BEGIN CTAB
M  V30 COUNTS 63 68 0 0 0
M  V30 BEGIN ATOM
M  V30 1 O 2.515275 -4.590792 -0.894352 0
M  V30 2 C 2.231300 -3.798937 0.040063 0
M  V30 3 C 3.127978 -4.103371 1.171034 0
M  V30 4 S 2.591615 -2.869221 2.376120 0
M  V30 5 C 1.083088 -2.285121 1.552563 0
M  V30 6 C 0.918230 -0.846618 1.732472 0
M  V30 7 C 1.813712 0.200007 1.668346 0
M  V30 8 N 1.240756 1.390956 1.917669 0
M  V30 9 C 1.897503 2.656145 1.925966 0
M  V30 10 C 3.127100 2.897035 2.511063 0
M  V30 11 C 3.730255 4.137378 2.497770 0
M  V30 12 C 3.090052 5.195256 1.876417 0
M  V30 13 C 1.870183 4.984502 1.288549 0
M  V30 14 C 1.290384 3.736291 1.316273 0
M  V30 15 N -0.017089 1.110943 2.141293 0
M  V30 16 C -0.273951 -0.227225 2.043714 0
M  V30 17 C -1.641674 -0.667403 2.261883 0
M  V30 18 C -2.653609 0.037642 1.589266 0
M  V30 19 C -4.005324 -0.226719 1.678060 0
M  V30 20 C -4.402990 -1.266474 2.491785 0
M  V30 21 C -3.439045 -1.983093 3.169622 0
M  V30 22 C -2.099696 -1.682374 3.049939 0
M  V30 23 O -3.878297 -3.012095 3.970737 0
M  V30 24 C -5.079582 -3.730498 3.727735 0
M  V30 25 C -6.054280 -2.996473 2.869444 0
M  V30 26 O -5.720759 -1.633733 2.668224 0
M  V30 27 N 1.288457 -2.750751 0.204094 0
M  V30 28 C 0.650312 -2.345241 -1.048435 0
M  V30 29 C 1.460864 -1.297096 -1.711920 0
M  V30 30 N 0.936780 -0.827760 -2.959252 0
M  V30 31 C 0.932433 -1.721535 -4.046783 0
M  V30 32 C -0.372546 -1.826152 -4.792811 0
M  V30 33 O -1.433381 -1.406092 -4.008843 0
M  V30 34 C -1.279657 -0.039331 -3.704887 0
M  V30 35 C -0.022284 0.203790 -2.911144 0
M  V30 36 H 4.208169 -3.982958 0.945667 0
M  V30 37 H 2.910801 -5.101491 1.623104 0
M  V30 38 H 0.272844 -2.881131 2.044470 0
M  V30 39 H 2.867122 0.027863 1.435519 0
M  V30 40 H 3.619499 2.059964 2.995104 0
M  V30 41 H 4.694633 4.249924 2.976764 0
M  V30 42 H 3.582338 6.157674 1.879249 0
M  V30 43 H 1.438850 5.868682 0.824854 0
M  V30 44 H 0.314272 3.631842 0.828682 0
M  V30 45 H -2.402069 0.878652 0.924928 0
M  V30 46 H -4.728555 0.344906 1.140962 0
M  V30 47 H -1.381283 -2.243876 3.587215 0
M  V30 48 H -4.774185 -4.654488 3.159792 0
M  V30 49 H -5.558955 -4.085096 4.643290 0
M  V30 50 H -7.087775 -3.016034 3.287393 0
M  V30 51 H -6.151071 -3.420849 1.832709 0
M  V30 52 H 0.448275 -3.200249 -1.730165 0
M  V30 53 H -0.366202 -1.956478 -0.797063 0
M  V30 54 H 2.484204 -1.709007 -1.905861 0
M  V30 55 H 1.601909 -0.428106 -1.072174 0
M  V30 56 H 1.316970 -2.733698 -3.742143 0
M  V30 57 H 1.685921 -1.372653 -4.796899 0
M  V30 58 H -0.554078 -2.915298 -5.003273 0
M  V30 59 H -0.338369 -1.343800 -5.798749 0
M  V30 60 H -1.236989 0.568332 -4.638863 0
M  V30 61 H -2.162802 0.312961 -3.138173 0
M  V30 62 H -0.260279 0.454593 -1.852586 0
M  V30 63 H 0.479228 1.141411 -3.295138 0
M  V30 END ATOM
M  V30 BEGIN BOND
M  V30 1 2 1 2
M  V30 2 1 2 3
M  V30 3 1 3 4
M  V30 4 1 4 5
M  V30 5 1 5 6
M  V30 6 2 6 7
M  V30 7 1 7 8
M  V30 8 1 8 9
M  V30 9 2 9 10
M  V30 10 1 10 11
M  V30 11 2 11 12
M  V30 12 1 12 13
M  V30 13 2 13 14
M  V30 14 1 8 15
M  V30 15 2 15 16
M  V30 16 1 16 17
M  V30 17 2 17 18
M  V30 18 1 18 19
M  V30 19 2 19 20
M  V30 20 1 20 21
M  V30 21 2 21 22
M  V30 22 1 21 23
M  V30 23 1 23 24
M  V30 24 1 24 25
M  V30 25 1 25 26
M  V30 26 1 5 27
M  V30 27 1 27 28
M  V30 28 1 28 29
M  V30 29 1 29 30
M  V30 30 1 30 31
M  V30 31 1 31 32
M  V30 32 1 32 33
M  V30 33 1 33 34
M  V30 34 1 34 35
M  V30 35 1 27 2
M  V30 36 1 35 30
M  V30 37 1 16 6
M  V30 38 1 22 17
M  V30 39 1 14 9
M  V30 40 1 26 20
M  V30 41 1 3 36
M  V30 42 1 3 37
M  V30 43 1 5 38
M  V30 44 1 7 39
M  V30 45 1 10 40
M  V30 46 1 11 41
M  V30 47 1 12 42
M  V30 48 1 13 43
M  V30 49 1 14 44
M  V30 50 1 18 45
M  V30 51 1 19 46
M  V30 52 1 22 47
M  V30 53 1 24 48
M  V30 54 1 24 49
M  V30 55 1 25 50
M  V30 56 1 25 51
M  V30 57 1 28 52
M  V30 58 1 28 53
M  V30 59 1 29 54
M  V30 60 1 29 55
M  V30 61 1 31 56
M  V30 62 1 31 57
M  V30 63 1 32 58
M  V30 64 1 32 59
M  V30 65 1 34 60
M  V30 66 1 34 61
M  V30 67 1 35 62
M  V30 68 1 35 63
M  V30 END BOND
M  V30 END CTAB
M  END
>  <Dataset>  (472) 
ChEMBL_Kinases

>  <Ligand_Instance>  (472) 
nan

>  <PDB_ID>  (472) 
nan

>  <Standardized_SMILES>  (472) 
O=C1CSC(c2cn(-c3ccccc3)nc2-c2ccc3c(c2)OCCO3)N1CCN1CCOCC1

>  <Name>  (472) 
nan

>  <Pocket>  (472) 
nan

>  <ATP_Site>  (472) 
nan

>  <Peripheral>  (472) 
nan

>  <Num_H_Atoms_ProtBoundConf>  (472) 
nan

>  <Num_Resolved_Atoms>  (472) 
nan

>  <Num_Not_Resolved_Atoms>  (472) 
nan

$$$$
CHEMBL1561023
     RDKit          3D

  0  0  0  0  0  0  0  0  0  0999 V3000
M  V30 BEGIN CTAB
M  V30 COUNTS 42 44 0 0 0
M  V30 BEGIN ATOM
M  V30 1 C 1.546374 -5.321526 3.339178 0
M  V30 2 N 1.460857 -5.200369 1.895507 0
M  V30 3 C 1.516550 -6.366250 1.028481 0
M  V30 4 C 1.319119 -3.904340 1.324311 0
M  V30 5 C 1.265350 -2.797698 2.148923 0
M  V30 6 C 1.128419 -1.533195 1.612667 0
M  V30 7 C 1.044947 -1.378705 0.240362 0
M  V30 8 C 0.897147 -0.103089 -0.481356 0
M  V30 9 C 1.426490 0.087219 -1.745462 0
M  V30 10 C 1.279652 1.292260 -2.412778 0
M  V30 11 C 0.587262 2.305144 -1.780627 0
M  V30 12 N 0.421508 3.502439 -2.402862 0
M  V30 13 C -0.258314 4.473174 -1.763555 0
M  V30 14 N -0.773273 4.281583 -0.528476 0
M  V30 15 C -0.626734 3.094027 0.126162 0
M  V30 16 N -1.215122 3.014888 1.426167 0
M  V30 17 C -0.405227 2.746095 2.616390 0
M  V30 18 C -2.600945 3.166755 1.817310 0
M  V30 19 C 0.070854 2.105503 -0.536137 0
M  V30 20 C 0.209952 0.927014 0.125924 0
M  V30 21 C 1.098208 -2.483353 -0.591124 0
M  V30 22 C 1.236200 -3.756392 -0.048608 0
M  V30 23 H 1.356484 -6.379636 3.662710 0
M  V30 24 H 2.516075 -4.963337 3.751030 0
M  V30 25 H 0.747588 -4.720820 3.853477 0
M  V30 26 H 0.599318 -6.321025 0.382435 0
M  V30 27 H 2.368218 -6.328005 0.318216 0
M  V30 28 H 1.459488 -7.285881 1.623701 0
M  V30 29 H 1.326541 -2.863751 3.237487 0
M  V30 30 H 1.076125 -0.596398 2.177713 0
M  V30 31 H 1.965073 -0.720704 -2.221003 0
M  V30 32 H 1.700466 1.415820 -3.395017 0
M  V30 33 H -0.419994 5.446665 -2.212697 0
M  V30 34 H 0.652098 2.627938 2.355784 0
M  V30 35 H -0.575886 3.618585 3.304160 0
M  V30 36 H -0.773501 1.857377 3.155905 0
M  V30 37 H -2.985563 2.182823 2.193858 0
M  V30 38 H -3.221896 3.583458 1.002070 0
M  V30 39 H -2.688122 3.884699 2.662112 0
M  V30 40 H -0.193125 0.762880 1.103203 0
M  V30 41 H 1.042080 -2.476782 -1.678298 0
M  V30 42 H 1.284153 -4.667638 -0.655530 0
M  V30 END ATOM
M  V30 BEGIN BOND
M  V30 1 1 1 2
M  V30 2 1 2 3
M  V30 3 1 2 4
M  V30 4 2 4 5
M  V30 5 1 5 6
M  V30 6 2 6 7
M  V30 7 1 7 8
M  V30 8 2 8 9
M  V30 9 1 9 10
M  V30 10 2 10 11
M  V30 11 1 11 12
M  V30 12 2 12 13
M  V30 13 1 13 14
M  V30 14 2 14 15
M  V30 15 1 15 16
M  V30 16 1 16 17
M  V30 17 1 16 18
M  V30 18 1 15 19
M  V30 19 2 19 20
M  V30 20 1 7 21
M  V30 21 2 21 22
M  V30 22 1 22 4
M  V30 23 1 20 8
M  V30 24 1 19 11
M  V30 25 1 1 23
M  V30 26 1 1 24
M  V30 27 1 1 25
M  V30 28 1 3 26
M  V30 29 1 3 27
M  V30 30 1 3 28
M  V30 31 1 5 29
M  V30 32 1 6 30
M  V30 33 1 9 31
M  V30 34 1 10 32
M  V30 35 1 13 33
M  V30 36 1 17 34
M  V30 37 1 17 35
M  V30 38 1 17 36
M  V30 39 1 18 37
M  V30 40 1 18 38
M  V30 41 1 18 39
M  V30 42 1 20 40
M  V30 43 1 21 41
M  V30 44 1 22 42
M  V30 END BOND
M  V30 END CTAB
M  END
>  <Dataset>  (473) 
ChEMBL_Kinases

>  <Ligand_Instance>  (473) 
nan

>  <PDB_ID>  (473) 
nan

>  <Standardized_SMILES>  (473) 
CN(C)c1ccc(-c2ccc3ncnc(N(C)C)c3c2)cc1

>  <Name>  (473) 
nan

>  <Pocket>  (473) 
nan

>  <ATP_Site>  (473) 
nan

>  <Peripheral>  (473) 
nan

>  <Num_H_Atoms_ProtBoundConf>  (473) 
nan

>  <Num_Resolved_Atoms>  (473) 
nan

>  <Num_Not_Resolved_Atoms>  (473) 
nan

$$$$
CHEMBL1561168
     RDKit          3D

  0  0  0  0  0  0  0  0  0  0999 V3000
M  V30 BEGIN CTAB
M  V30 COUNTS 57 61 0 0 0
M  V30 BEGIN ATOM
M  V30 1 C 2.935493 -0.233640 3.217329 0
M  V30 2 C 3.681105 -1.090774 2.264729 0
M  V30 3 C 4.338037 -2.230681 2.677138 0
M  V30 4 C 5.027442 -3.012911 1.777244 0
M  V30 5 C 5.067456 -2.658216 0.437489 0
M  V30 6 Cl 5.934751 -3.631681 -0.730445 0
M  V30 7 C 4.398717 -1.509483 0.054893 0
M  V30 8 C 3.704525 -0.715392 0.939789 0
M  V30 9 N 3.064369 0.441198 0.362054 0
M  V30 10 C 3.299026 1.818998 0.735436 0
M  V30 11 C 2.006849 2.579348 0.888301 0
M  V30 12 N 0.904441 1.782855 0.465787 0
M  V30 13 C -0.301912 1.595167 1.218380 0
M  V30 14 O -0.016561 2.292702 2.205257 0
M  V30 15 C -1.356023 0.736198 0.636399 0
M  V30 16 C -2.304706 1.290565 -0.195481 0
M  V30 17 C -3.104013 0.221627 -0.538606 0
M  V30 18 C -4.215036 0.182130 -1.351641 0
M  V30 19 O -4.625153 1.232815 -1.899353 0
M  V30 20 N -4.854009 -0.983880 -1.553191 0
M  V30 21 C -6.025741 -1.036380 -2.407607 0
M  V30 22 C -4.382839 -2.088528 -0.947722 0
M  V30 23 C -5.075372 -3.257509 -1.190658 0
M  V30 24 C -4.622827 -4.413422 -0.589321 0
M  V30 25 C -3.506196 -4.410435 0.236245 0
M  V30 26 C -2.823954 -3.205574 0.463361 0
M  V30 27 C -3.271025 -2.050561 -0.133674 0
M  V30 28 C -2.583413 -0.883284 0.104194 0
M  V30 29 N -1.497094 -0.610489 0.845493 0
M  V30 30 C -0.661898 -1.423846 1.656732 0
M  V30 31 C 1.095643 1.160847 -0.809180 0
M  V30 32 C 2.136165 0.050260 -0.678126 0
M  V30 33 H 2.461086 -0.869581 3.999701 0
M  V30 34 H 3.659340 0.456959 3.741189 0
M  V30 35 H 2.175886 0.332719 2.675790 0
M  V30 36 H 4.279214 -2.471079 3.745173 0
M  V30 37 H 5.536963 -3.903110 2.115862 0
M  V30 38 H 4.453018 -1.262559 -1.008469 0
M  V30 39 H 3.945343 1.900181 1.626390 0
M  V30 40 H 3.910994 2.241465 -0.117491 0
M  V30 41 H 1.895855 2.897049 1.945143 0
M  V30 42 H 2.043337 3.488875 0.219676 0
M  V30 43 H -2.417089 2.293703 -0.511840 0
M  V30 44 H -5.715492 -1.582358 -3.340606 0
M  V30 45 H -6.887707 -1.558619 -1.948216 0
M  V30 46 H -6.304550 0.003284 -2.697909 0
M  V30 47 H -5.950265 -3.360925 -1.814466 0
M  V30 48 H -5.150409 -5.359373 -0.760986 0
M  V30 49 H -3.224631 -5.381933 0.668706 0
M  V30 50 H -2.011991 -3.346742 1.095546 0
M  V30 51 H -1.130235 -1.804891 2.603254 0
M  V30 52 H -0.007328 -2.143563 1.139355 0
M  V30 53 H 0.115652 -0.731361 2.112741 0
M  V30 54 H 1.493725 1.913931 -1.517305 0
M  V30 55 H 0.170670 0.749745 -1.260482 0
M  V30 56 H 1.663233 -0.919163 -0.522450 0
M  V30 57 H 2.691151 -0.034433 -1.658459 0
M  V30 END ATOM
M  V30 BEGIN BOND
M  V30 1 1 1 2
M  V30 2 2 2 3
M  V30 3 1 3 4
M  V30 4 2 4 5
M  V30 5 1 5 6
M  V30 6 1 5 7
M  V30 7 2 7 8
M  V30 8 1 8 9
M  V30 9 1 9 10
M  V30 10 1 10 11
M  V30 11 1 11 12
M  V30 12 1 12 13
M  V30 13 2 13 14
M  V30 14 1 13 15
M  V30 15 2 15 16
M  V30 16 1 16 17
M  V30 17 1 17 18
M  V30 18 2 18 19
M  V30 19 1 18 20
M  V30 20 1 20 21
M  V30 21 1 20 22
M  V30 22 2 22 23
M  V30 23 1 23 24
M  V30 24 2 24 25
M  V30 25 1 25 26
M  V30 26 2 26 27
M  V30 27 1 27 28
M  V30 28 1 28 29
M  V30 29 1 29 30
M  V30 30 1 12 31
M  V30 31 1 31 32
M  V30 32 1 8 2
M  V30 33 1 32 9
M  V30 34 1 29 15
M  V30 35 2 28 17
M  V30 36 1 27 22
M  V30 37 1 1 33
M  V30 38 1 1 34
M  V30 39 1 1 35
M  V30 40 1 3 36
M  V30 41 1 4 37
M  V30 42 1 7 38
M  V30 43 1 10 39
M  V30 44 1 10 40
M  V30 45 1 11 41
M  V30 46 1 11 42
M  V30 47 1 16 43
M  V30 48 1 21 44
M  V30 49 1 21 45
M  V30 50 1 21 46
M  V30 51 1 23 47
M  V30 52 1 24 48
M  V30 53 1 25 49
M  V30 54 1 26 50
M  V30 55 1 30 51
M  V30 56 1 30 52
M  V30 57 1 30 53
M  V30 58 1 31 54
M  V30 59 1 31 55
M  V30 60 1 32 56
M  V30 61 1 32 57
M  V30 END BOND
M  V30 END CTAB
M  END
>  <Dataset>  (474) 
ChEMBL_Kinases

>  <Ligand_Instance>  (474) 
nan

>  <PDB_ID>  (474) 
nan

>  <Standardized_SMILES>  (474) 
Cc1ccc(Cl)cc1N1CCN(C(=O)c2cc3c(=O)n(C)c4ccccc4c3n2C)CC1

>  <Name>  (474) 
nan

>  <Pocket>  (474) 
nan

>  <ATP_Site>  (474) 
nan

>  <Peripheral>  (474) 
nan

>  <Num_H_Atoms_ProtBoundConf>  (474) 
nan

>  <Num_Resolved_Atoms>  (474) 
nan

>  <Num_Not_Resolved_Atoms>  (474) 
nan

$$$$
CHEMBL1561261
     RDKit          3D

  0  0  0  0  0  0  0  0  0  0999 V3000
M  V30 BEGIN CTAB
M  V30 COUNTS 39 41 0 0 0
M  V30 BEGIN ATOM
M  V30 1 C -0.531245 -6.227197 2.607845 0
M  V30 2 O -1.272676 -5.086905 2.244666 0
M  V30 3 C -0.708306 -3.970117 1.657671 0
M  V30 4 C 0.633333 -3.847229 1.366211 0
M  V30 5 C 1.231397 -2.753437 0.782248 0
M  V30 6 N 2.561308 -2.708446 0.533106 0
M  V30 7 C 3.093299 -1.613025 -0.033835 0
M  V30 8 N 2.267881 -0.614005 -0.324347 0
M  V30 9 C 0.951506 -0.563454 -0.118976 0
M  V30 10 N 0.225053 0.564676 -0.505196 0
M  V30 11 C 0.330996 1.860681 -1.083854 0
M  V30 12 C 1.040909 2.881182 -0.306769 0
M  V30 13 C 0.156560 3.643017 0.480224 0
M  V30 14 C 0.605317 4.635311 1.328073 0
M  V30 15 C 1.943160 4.937232 1.452745 0
M  V30 16 C 2.828677 4.208707 0.694265 0
M  V30 17 C 2.361232 3.225549 -0.143655 0
M  V30 18 Cl 3.463066 2.324846 -1.155529 0
M  V30 19 C 0.422078 -1.694372 0.463209 0
M  V30 20 C -0.927095 -1.756685 0.729716 0
M  V30 21 C -1.473830 -2.875214 1.315439 0
M  V30 22 O -2.849158 -2.985696 1.607319 0
M  V30 23 C -3.663630 -1.879109 1.270172 0
M  V30 24 H 0.324060 -6.426176 1.928539 0
M  V30 25 H -0.098482 -6.158638 3.637030 0
M  V30 26 H -1.228289 -7.087871 2.557612 0
M  V30 27 H 1.302687 -4.662264 1.604148 0
M  V30 28 H 4.165381 -1.546508 -0.248625 0
M  V30 29 H -0.787980 0.443570 -0.297225 0
M  V30 30 H 0.903284 1.750705 -2.089038 0
M  V30 31 H -0.653940 2.229153 -1.422823 0
M  V30 32 H -0.937790 3.531424 0.501631 0
M  V30 33 H -0.057003 5.232433 1.943325 0
M  V30 34 H 2.321345 5.704655 2.107237 0
M  V30 35 H 3.902643 4.353616 0.705767 0
M  V30 36 H -1.634846 -0.996521 0.523281 0
M  V30 37 H -3.266676 -0.954473 1.748531 0
M  V30 38 H -4.706382 -2.092269 1.520070 0
M  V30 39 H -3.650881 -1.667953 0.165903 0
M  V30 END ATOM
M  V30 BEGIN BOND
M  V30 1 1 1 2
M  V30 2 1 2 3
M  V30 3 2 3 4
M  V30 4 1 4 5
M  V30 5 2 5 6
M  V30 6 1 6 7
M  V30 7 2 7 8
M  V30 8 1 8 9
M  V30 9 1 9 10
M  V30 10 1 10 11
M  V30 11 1 11 12
M  V30 12 2 12 13
M  V30 13 1 13 14
M  V30 14 2 14 15
M  V30 15 1 15 16
M  V30 16 2 16 17
M  V30 17 1 17 18
M  V30 18 2 9 19
M  V30 19 1 19 20
M  V30 20 2 20 21
M  V30 21 1 21 22
M  V30 22 1 22 23
M  V30 23 1 21 3
M  V30 24 1 19 5
M  V30 25 1 17 12
M  V30 26 1 1 24
M  V30 27 1 1 25
M  V30 28 1 1 26
M  V30 29 1 4 27
M  V30 30 1 7 28
M  V30 31 1 10 29
M  V30 32 1 11 30
M  V30 33 1 11 31
M  V30 34 1 13 32
M  V30 35 1 14 33
M  V30 36 1 15 34
M  V30 37 1 16 35
M  V30 38 1 20 36
M  V30 39 1 23 37
M  V30 40 1 23 38
M  V30 41 1 23 39
M  V30 END BOND
M  V30 END CTAB
M  END
>  <Dataset>  (475) 
ChEMBL_Kinases

>  <Ligand_Instance>  (475) 
nan

>  <PDB_ID>  (475) 
nan

>  <Standardized_SMILES>  (475) 
COc1cc2ncnc(NCc3ccccc3Cl)c2cc1OC

>  <Name>  (475) 
nan

>  <Pocket>  (475) 
nan

>  <ATP_Site>  (475) 
nan

>  <Peripheral>  (475) 
nan

>  <Num_H_Atoms_ProtBoundConf>  (475) 
nan

>  <Num_Resolved_Atoms>  (475) 
nan

>  <Num_Not_Resolved_Atoms>  (475) 
nan

$$$$
CHEMBL1561281
     RDKit          3D

  0  0  0  0  0  0  0  0  0  0999 V3000
M  V30 BEGIN CTAB
M  V30 COUNTS 52 56 0 0 0
M  V30 BEGIN ATOM
M  V30 1 C -2.713546 -6.765069 3.899415 0
M  V30 2 C -2.268481 -5.637149 3.026724 0
M  V30 3 C -2.789007 -4.365726 3.152607 0
M  V30 4 C -2.323581 -3.380510 2.306476 0
M  V30 5 C -1.349795 -3.587336 1.320200 0
M  V30 6 C -1.013119 -2.390362 0.570967 0
M  V30 7 N -0.720084 -1.302876 1.346749 0
M  V30 8 N -0.393524 -0.125433 0.839947 0
M  V30 9 C -0.312728 0.136564 -0.477838 0
M  V30 10 N 0.039883 1.404959 -1.016818 0
M  V30 11 C 1.141479 1.839047 -1.887700 0
M  V30 12 C 1.963354 2.894599 -1.194178 0
M  V30 13 N 1.482644 3.121108 0.173832 0
M  V30 14 C 2.271627 2.930271 1.330221 0
M  V30 15 C 1.893632 3.121682 2.644838 0
M  V30 16 C 2.755544 2.901637 3.693066 0
M  V30 17 C 4.055176 2.472794 3.459339 0
M  V30 18 C 4.383571 2.296795 2.135784 0
M  V30 19 N 3.531068 2.515437 1.117669 0
M  V30 20 C 0.103331 3.559344 0.119511 0
M  V30 21 C -0.716614 2.626555 -0.768819 0
M  V30 22 C -0.602050 -0.935021 -1.297902 0
M  V30 23 C -0.573078 -0.826360 -2.652567 0
M  V30 24 C -0.880930 -1.927797 -3.456444 0
M  V30 25 C -1.227047 -3.170290 -2.916691 0
M  V30 26 C -1.254387 -3.274236 -1.551477 0
M  V30 27 C -0.944760 -2.170105 -0.788495 0
M  V30 28 C -0.863751 -4.865844 1.235364 0
M  V30 29 C -1.307986 -5.872927 2.065517 0
M  V30 30 H -2.950095 -6.325430 4.886458 0
M  V30 31 H -3.647847 -7.150912 3.469990 0
M  V30 32 H -1.922482 -7.518056 4.034847 0
M  V30 33 H -3.542053 -4.171427 3.903414 0
M  V30 34 H -2.791324 -2.398727 2.475178 0
M  V30 35 H 1.812187 0.989576 -2.125106 0
M  V30 36 H 0.782297 2.220867 -2.852549 0
M  V30 37 H 1.836449 3.854842 -1.730243 0
M  V30 38 H 3.033300 2.608133 -1.150754 0
M  V30 39 H 0.878126 3.454934 2.792616 0
M  V30 40 H 2.405633 3.068062 4.708869 0
M  V30 41 H 4.756414 2.291836 4.276160 0
M  V30 42 H 5.384578 1.964078 1.910603 0
M  V30 43 H -0.302299 3.601615 1.137694 0
M  V30 44 H 0.029990 4.602449 -0.282181 0
M  V30 45 H -1.051820 3.131735 -1.678569 0
M  V30 46 H -1.634244 2.349671 -0.182096 0
M  V30 47 H -0.314531 0.102693 -3.113316 0
M  V30 48 H -0.838026 -1.770870 -4.536857 0
M  V30 49 H -1.439682 -3.928996 -3.639621 0
M  V30 50 H -1.532672 -4.228097 -1.143348 0
M  V30 51 H -0.105406 -5.022619 0.489899 0
M  V30 52 H -0.848993 -6.845653 1.903304 0
M  V30 END ATOM
M  V30 BEGIN BOND
M  V30 1 1 1 2
M  V30 2 2 2 3
M  V30 3 1 3 4
M  V30 4 2 4 5
M  V30 5 1 5 6
M  V30 6 2 6 7
M  V30 7 1 7 8
M  V30 8 2 8 9
M  V30 9 1 9 10
M  V30 10 1 10 11
M  V30 11 1 11 12
M  V30 12 1 12 13
M  V30 13 1 13 14
M  V30 14 2 14 15
M  V30 15 1 15 16
M  V30 16 2 16 17
M  V30 17 1 17 18
M  V30 18 2 18 19
M  V30 19 1 13 20
M  V30 20 1 20 21
M  V30 21 1 9 22
M  V30 22 2 22 23
M  V30 23 1 23 24
M  V30 24 2 24 25
M  V30 25 1 25 26
M  V30 26 2 26 27
M  V30 27 1 5 28
M  V30 28 2 28 29
M  V30 29 1 29 2
M  V30 30 1 27 6
M  V30 31 1 21 10
M  V30 32 1 27 22
M  V30 33 1 19 14
M  V30 34 1 1 30
M  V30 35 1 1 31
M  V30 36 1 1 32
M  V30 37 1 3 33
M  V30 38 1 4 34
M  V30 39 1 11 35
M  V30 40 1 11 36
M  V30 41 1 12 37
M  V30 42 1 12 38
M  V30 43 1 15 39
M  V30 44 1 16 40
M  V30 45 1 17 41
M  V30 46 1 18 42
M  V30 47 1 20 43
M  V30 48 1 20 44
M  V30 49 1 21 45
M  V30 50 1 21 46
M  V30 51 1 23 47
M  V30 52 1 24 48
M  V30 53 1 25 49
M  V30 54 1 26 50
M  V30 55 1 28 51
M  V30 56 1 29 52
M  V30 END BOND
M  V30 END CTAB
M  END
>  <Dataset>  (476) 
ChEMBL_Kinases

>  <Ligand_Instance>  (476) 
nan

>  <PDB_ID>  (476) 
nan

>  <Standardized_SMILES>  (476) 
Cc1ccc(-c2nnc(N3CCN(c4ccccn4)CC3)c3ccccc23)cc1

>  <Name>  (476) 
nan

>  <Pocket>  (476) 
nan

>  <ATP_Site>  (476) 
nan

>  <Peripheral>  (476) 
nan

>  <Num_H_Atoms_ProtBoundConf>  (476) 
nan

>  <Num_Resolved_Atoms>  (476) 
nan

>  <Num_Not_Resolved_Atoms>  (476) 
nan

$$$$
CHEMBL1561366
     RDKit          3D

  0  0  0  0  0  0  0  0  0  0999 V3000
M  V30 BEGIN CTAB
M  V30 COUNTS 41 44 0 0 0
M  V30 BEGIN ATOM
M  V30 1 C 0.705953 -5.845730 0.328025 0
M  V30 2 C 1.576034 -4.680136 0.616469 0
M  V30 3 C 2.462377 -4.811729 1.664390 0
M  V30 4 C 3.294795 -3.756010 1.974311 0
M  V30 5 C 3.196786 -2.599228 1.205390 0
M  V30 6 C 2.304330 -2.451069 0.141290 0
M  V30 7 C 2.298959 -1.168699 -0.597771 0
M  V30 8 N 1.396434 -0.189932 -0.071127 0
M  V30 9 C 1.301142 1.083627 -0.695687 0
M  V30 10 N 2.029841 1.362132 -1.776178 0
M  V30 11 C 1.912133 2.564753 -2.362338 0
M  V30 12 N 1.062357 3.494611 -1.867320 0
M  V30 13 C 0.311374 3.224977 -0.763866 0
M  V30 14 C 0.416492 1.978663 -0.134727 0
M  V30 15 C -0.416966 1.807280 1.046161 0
M  V30 16 C -0.089923 1.371112 2.310385 0
M  V30 17 C -1.072955 1.280557 3.274083 0
M  V30 18 C -2.386262 1.601650 3.060291 0
M  V30 19 C -2.728178 2.038845 1.803843 0
M  V30 20 C -1.759288 2.135229 0.829148 0
M  V30 21 O -4.091670 2.290969 1.858497 0
M  V30 22 C -4.640003 1.643605 2.997851 0
M  V30 23 O -3.521492 1.588445 3.862870 0
M  V30 24 C 1.488515 -3.528805 -0.137824 0
M  V30 25 H 0.075127 -6.108824 1.220729 0
M  V30 26 H 0.012284 -5.663529 -0.517867 0
M  V30 27 H 1.348344 -6.747227 0.138094 0
M  V30 28 H 2.510568 -5.734609 2.244916 0
M  V30 29 H 4.008702 -3.806854 2.786830 0
M  V30 30 H 3.864638 -1.793063 1.477388 0
M  V30 31 H 3.330501 -0.746939 -0.692257 0
M  V30 32 H 1.990715 -1.356296 -1.666907 0
M  V30 33 H 0.858894 -0.510822 0.758859 0
M  V30 34 H 2.464916 2.862084 -3.234440 0
M  V30 35 H -0.355270 3.995808 -0.400797 0
M  V30 36 H 0.938447 1.138461 2.439826 0
M  V30 37 H -0.736073 0.929780 4.240450 0
M  V30 38 H -2.141134 2.491695 -0.126423 0
M  V30 39 H -5.388026 2.298374 3.528080 0
M  V30 40 H -5.065284 0.648606 2.760374 0
M  V30 41 H 0.784700 -3.427816 -0.967939 0
M  V30 END ATOM
M  V30 BEGIN BOND
M  V30 1 1 1 2
M  V30 2 2 2 3
M  V30 3 1 3 4
M  V30 4 2 4 5
M  V30 5 1 5 6
M  V30 6 1 6 7
M  V30 7 1 7 8
M  V30 8 1 8 9
M  V30 9 2 9 10
M  V30 10 1 10 11
M  V30 11 2 11 12
M  V30 12 1 12 13
M  V30 13 2 13 14
M  V30 14 1 14 15
M  V30 15 2 15 16
M  V30 16 1 16 17
M  V30 17 2 17 18
M  V30 18 1 18 19
M  V30 19 2 19 20
M  V30 20 1 19 21
M  V30 21 1 21 22
M  V30 22 1 22 23
M  V30 23 2 6 24
M  V30 24 1 24 2
M  V30 25 1 14 9
M  V30 26 1 20 15
M  V30 27 1 23 18
M  V30 28 1 1 25
M  V30 29 1 1 26
M  V30 30 1 1 27
M  V30 31 1 3 28
M  V30 32 1 4 29
M  V30 33 1 5 30
M  V30 34 1 7 31
M  V30 35 1 7 32
M  V30 36 1 8 33
M  V30 37 1 11 34
M  V30 38 1 13 35
M  V30 39 1 16 36
M  V30 40 1 17 37
M  V30 41 1 20 38
M  V30 42 1 22 39
M  V30 43 1 22 40
M  V30 44 1 24 41
M  V30 END BOND
M  V30 END CTAB
M  END
>  <Dataset>  (477) 
ChEMBL_Kinases

>  <Ligand_Instance>  (477) 
nan

>  <PDB_ID>  (477) 
nan

>  <Standardized_SMILES>  (477) 
Cc1cccc(CNc2ncncc2-c2ccc3c(c2)OCO3)c1

>  <Name>  (477) 
nan

>  <Pocket>  (477) 
nan

>  <ATP_Site>  (477) 
nan

>  <Peripheral>  (477) 
nan

>  <Num_H_Atoms_ProtBoundConf>  (477) 
nan

>  <Num_Resolved_Atoms>  (477) 
nan

>  <Num_Not_Resolved_Atoms>  (477) 
nan

$$$$
CHEMBL1561411
     RDKit          3D

  0  0  0  0  0  0  0  0  0  0999 V3000
M  V30 BEGIN CTAB
M  V30 COUNTS 50 53 0 0 0
M  V30 BEGIN ATOM
M  V30 1 C 4.409835 -5.223933 3.989506 0
M  V30 2 O 3.073813 -5.493214 3.540532 0
M  V30 3 C 2.434088 -4.552459 2.746847 0
M  V30 4 C 2.960855 -3.347958 2.329662 0
M  V30 5 C 2.227575 -2.494206 1.541410 0
M  V30 6 C 0.944034 -2.777010 1.123133 0
M  V30 7 C 0.118346 -1.914671 0.289104 0
M  V30 8 C 0.536188 -0.690309 -0.187320 0
M  V30 9 C -0.198551 0.169474 -0.979294 0
M  V30 10 C 0.250179 1.465187 -1.468630 0 CFG=2
M  V30 11 O 1.653413 1.367258 -1.650545 0
M  V30 12 C 0.062014 2.617541 -0.492228 0 CFG=2
M  V30 13 C 0.945033 2.522400 0.705968 0
M  V30 14 C 0.333844 2.008854 1.960334 0
M  V30 15 C -1.160857 2.003065 1.973089 0
M  V30 16 C -1.666152 3.145014 1.117770 0
M  V30 17 N -1.330838 2.775730 -0.243440 0
M  V30 18 C -1.457590 -0.305613 -1.283227 0
M  V30 19 C -2.348915 0.373008 -2.054376 0
M  V30 20 C -3.619639 -0.057130 -2.393232 0
M  V30 21 C -4.030145 -1.300817 -1.901873 0
M  V30 22 C -3.159645 -2.039799 -1.107892 0
M  V30 23 C -1.924292 -1.541227 -0.822335 0
M  V30 24 N -1.123272 -2.300528 -0.054726 0
M  V30 25 C 0.444707 -3.983266 1.553485 0
M  V30 26 C 1.146034 -4.859880 2.339878 0
M  V30 27 H 4.878470 -6.108866 4.421624 0
M  V30 28 H 4.957778 -4.852577 3.082191 0
M  V30 29 H 4.391197 -4.379898 4.709298 0
M  V30 30 H 3.964478 -3.118951 2.652473 0
M  V30 31 H 2.672570 -1.572792 1.240997 0
M  V30 32 H 1.544013 -0.356407 0.078804 0
M  V30 33 H -0.110635 1.728401 -2.481232 0
M  V30 34 H 1.747596 0.753733 -2.426123 0
M  V30 35 H 0.410943 3.517388 -1.096547 0
M  V30 36 H 1.308185 3.567784 0.946422 0
M  V30 37 H 1.881322 1.971006 0.497493 0
M  V30 38 H 0.688481 2.584492 2.867182 0
M  V30 39 H 0.679678 0.970584 2.173295 0
M  V30 40 H -1.605198 1.053256 1.623911 0
M  V30 41 H -1.516453 2.177682 3.008422 0
M  V30 42 H -1.218926 4.080875 1.455223 0
M  V30 43 H -2.769756 3.175595 1.183139 0
M  V30 44 H -1.743507 3.472744 -0.870656 0
M  V30 45 H -2.089859 1.321123 -2.460613 0
M  V30 46 H -4.288673 0.527603 -3.012837 0
M  V30 47 H -5.014794 -1.675683 -2.141605 0
M  V30 48 H -3.499646 -2.995330 -0.741597 0
M  V30 49 H -0.559135 -4.258263 1.255488 0
M  V30 50 H 0.673333 -5.790447 2.632914 0
M  V30 END ATOM
M  V30 BEGIN BOND
M  V30 1 1 1 2
M  V30 2 1 2 3
M  V30 3 2 3 4
M  V30 4 1 4 5
M  V30 5 2 5 6
M  V30 6 1 6 7
M  V30 7 2 7 8
M  V30 8 1 8 9
M  V30 9 1 9 10
M  V30 10 1 10 11
M  V30 11 1 10 12
M  V30 12 1 12 13
M  V30 13 1 13 14
M  V30 14 1 14 15
M  V30 15 1 15 16
M  V30 16 1 16 17
M  V30 17 2 9 18
M  V30 18 1 18 19
M  V30 19 2 19 20
M  V30 20 1 20 21
M  V30 21 2 21 22
M  V30 22 1 22 23
M  V30 23 2 23 24
M  V30 24 1 6 25
M  V30 25 2 25 26
M  V30 26 1 26 3
M  V30 27 1 24 7
M  V30 28 1 17 12
M  V30 29 1 23 18
M  V30 30 1 1 27
M  V30 31 1 1 28
M  V30 32 1 1 29
M  V30 33 1 4 30
M  V30 34 1 5 31
M  V30 35 1 8 32
M  V30 36 1 10 33 CFG=3
M  V30 37 1 11 34
M  V30 38 1 12 35 CFG=3
M  V30 39 1 13 36
M  V30 40 1 13 37
M  V30 41 1 14 38
M  V30 42 1 14 39
M  V30 43 1 15 40
M  V30 44 1 15 41
M  V30 45 1 16 42
M  V30 46 1 16 43
M  V30 47 1 17 44
M  V30 48 1 19 45
M  V30 49 1 20 46
M  V30 50 1 21 47
M  V30 51 1 22 48
M  V30 52 1 25 49
M  V30 53 1 26 50
M  V30 END BOND
M  V30 END CTAB
M  END
>  <Dataset>  (478) 
ChEMBL_Kinases

>  <Ligand_Instance>  (478) 
nan

>  <PDB_ID>  (478) 
nan

>  <Standardized_SMILES>  (478) 
COc1ccc(-c2cc([C@H](O)[C@@H]3CCCCN3)c3ccccc3n2)cc1

>  <Name>  (478) 
nan

>  <Pocket>  (478) 
nan

>  <ATP_Site>  (478) 
nan

>  <Peripheral>  (478) 
nan

>  <Num_H_Atoms_ProtBoundConf>  (478) 
nan

>  <Num_Resolved_Atoms>  (478) 
nan

>  <Num_Not_Resolved_Atoms>  (478) 
nan

$$$$
CHEMBL1561528
     RDKit          3D

  0  0  0  0  0  0  0  0  0  0999 V3000
M  V30 BEGIN CTAB
M  V30 COUNTS 25 25 0 0 0
M  V30 BEGIN ATOM
M  V30 1 C 1.386699 1.746201 3.521917 0
M  V30 2 C 0.990145 0.645435 2.594959 0
M  V30 3 C 1.787412 -0.451066 2.341460 0
M  V30 4 C 1.416848 -1.464635 1.482585 0
M  V30 5 C 2.292601 -2.638923 1.224870 0
M  V30 6 N 0.202051 -1.344343 0.874648 0
M  V30 7 C -0.595910 -0.285366 1.103748 0
M  V30 8 N -1.844214 -0.251979 0.416692 0
M  V30 9 C -1.670538 0.484076 -0.827677 0
M  V30 10 C -0.613148 -0.164416 -1.713257 0
M  V30 11 O -0.908024 -1.454628 -2.070009 0
M  V30 12 N -0.209511 0.693387 1.949361 0
M  V30 13 H 1.761268 1.385315 4.491196 0
M  V30 14 H 2.055596 2.453017 2.994870 0
M  V30 15 H 0.457138 2.353267 3.729466 0
M  V30 16 H 2.751515 -0.504905 2.848836 0
M  V30 17 H 2.149877 -3.413600 1.987761 0
M  V30 18 H 3.354745 -2.331314 1.069146 0
M  V30 19 H 2.001360 -3.131503 0.252635 0
M  V30 20 H -2.805682 -0.643136 0.640031 0
M  V30 21 H -1.273765 1.486570 -0.567236 0
M  V30 22 H -2.626493 0.607730 -1.375186 0
M  V30 23 H 0.362052 -0.122146 -1.186311 0
M  V30 24 H -0.503303 0.501749 -2.594825 0
M  V30 25 H -1.833272 -1.559422 -2.359717 0
M  V30 END ATOM
M  V30 BEGIN BOND
M  V30 1 1 1 2
M  V30 2 2 2 3
M  V30 3 1 3 4
M  V30 4 1 4 5
M  V30 5 2 4 6
M  V30 6 1 6 7
M  V30 7 1 7 8
M  V30 8 1 8 9
M  V30 9 1 9 10
M  V30 10 1 10 11
M  V30 11 2 7 12
M  V30 12 1 12 2
M  V30 13 1 1 13
M  V30 14 1 1 14
M  V30 15 1 1 15
M  V30 16 1 3 16
M  V30 17 1 5 17
M  V30 18 1 5 18
M  V30 19 1 5 19
M  V30 20 1 8 20
M  V30 21 1 9 21
M  V30 22 1 9 22
M  V30 23 1 10 23
M  V30 24 1 10 24
M  V30 25 1 11 25
M  V30 END BOND
M  V30 END CTAB
M  END
>  <Dataset>  (479) 
ChEMBL_Kinases

>  <Ligand_Instance>  (479) 
nan

>  <PDB_ID>  (479) 
nan

>  <Standardized_SMILES>  (479) 
Cc1cc(C)nc(NCCO)n1

>  <Name>  (479) 
nan

>  <Pocket>  (479) 
nan

>  <ATP_Site>  (479) 
nan

>  <Peripheral>  (479) 
nan

>  <Num_H_Atoms_ProtBoundConf>  (479) 
nan

>  <Num_Resolved_Atoms>  (479) 
nan

>  <Num_Not_Resolved_Atoms>  (479) 
nan

$$$$
CHEMBL1561544
     RDKit          3D

  0  0  0  0  0  0  0  0  0  0999 V3000
M  V30 BEGIN CTAB
M  V30 COUNTS 42 42 0 0 0
M  V30 BEGIN ATOM
M  V30 1 C -2.361394 -1.492245 3.236922 0
M  V30 2 C -1.603284 -2.239310 2.189212 0
M  V30 3 C -0.751625 -3.364513 2.709176 0
M  V30 4 C -1.573607 -2.051300 0.857827 0
M  V30 5 C -0.913658 -2.656971 -0.319404 0
M  V30 6 C -0.044663 -1.669268 -1.070137 0
M  V30 7 C 1.057681 -1.120413 -0.169117 0 CFG=2
M  V30 8 C 1.900121 -2.239598 0.303230 0
M  V30 9 O 0.404697 -0.586635 0.940582 0
M  V30 10 C 1.773941 -0.046280 -0.921239 0
M  V30 11 C 0.859642 1.091887 -1.317825 0
M  V30 12 C 0.257535 1.687123 -0.114429 0
M  V30 13 C 1.183525 2.047337 0.763615 0
M  V30 14 C 0.675742 2.665529 2.026744 0
M  V30 15 C 2.634076 1.848241 0.508452 0
M  V30 16 C 2.937810 0.552619 -0.217744 0
M  V30 17 H -1.634756 -1.199942 4.023849 0
M  V30 18 H -2.804118 -0.558451 2.847537 0
M  V30 19 H -3.119604 -2.168692 3.703412 0
M  V30 20 H -1.481465 -4.090138 3.160794 0
M  V30 21 H -0.200455 -2.929146 3.574585 0
M  V30 22 H -0.109252 -3.808640 1.946805 0
M  V30 23 H -2.229757 -1.210711 0.612632 0
M  V30 24 H -0.391885 -3.603792 -0.113398 0
M  V30 25 H -1.738975 -2.915285 -1.031946 0
M  V30 26 H -0.708512 -0.892632 -1.461454 0
M  V30 27 H 0.372903 -2.213147 -1.938732 0
M  V30 28 H 2.981777 -2.131880 0.104854 0
M  V30 29 H 1.791738 -2.449305 1.398673 0
M  V30 30 H 1.611877 -3.190977 -0.190603 0
M  V30 31 H 1.004137 -0.686645 1.728876 0
M  V30 32 H 2.140205 -0.462071 -1.903682 0
M  V30 33 H 1.558933 1.881883 -1.726892 0
M  V30 34 H 0.142060 0.829448 -2.120852 0
M  V30 35 H -0.822943 1.817729 0.039464 0
M  V30 36 H 1.397758 2.371505 2.829249 0
M  V30 37 H 0.683924 3.768853 1.976683 0
M  V30 38 H -0.355440 2.329642 2.259486 0
M  V30 39 H 3.189092 1.891213 1.487533 0
M  V30 40 H 2.974468 2.747223 -0.051342 0
M  V30 41 H 3.476274 -0.169612 0.448533 0
M  V30 42 H 3.700368 0.824825 -0.978215 0
M  V30 END ATOM
M  V30 BEGIN BOND
M  V30 1 1 1 2
M  V30 2 1 2 3
M  V30 3 2 2 4 CFG=2
M  V30 4 1 4 5
M  V30 5 1 5 6
M  V30 6 1 6 7
M  V30 7 1 7 8
M  V30 8 1 7 9 CFG=1
M  V30 9 1 7 10
M  V30 10 1 10 11
M  V30 11 1 11 12
M  V30 12 2 12 13
M  V30 13 1 13 14
M  V30 14 1 13 15
M  V30 15 1 15 16
M  V30 16 1 16 10
M  V30 17 1 1 17
M  V30 18 1 1 18
M  V30 19 1 1 19
M  V30 20 1 3 20
M  V30 21 1 3 21
M  V30 22 1 3 22
M  V30 23 1 4 23
M  V30 24 1 5 24
M  V30 25 1 5 25
M  V30 26 1 6 26
M  V30 27 1 6 27
M  V30 28 1 8 28
M  V30 29 1 8 29
M  V30 30 1 8 30
M  V30 31 1 9 31
M  V30 32 1 10 32
M  V30 33 1 11 33
M  V30 34 1 11 34
M  V30 35 1 12 35
M  V30 36 1 14 36
M  V30 37 1 14 37
M  V30 38 1 14 38
M  V30 39 1 15 39
M  V30 40 1 15 40
M  V30 41 1 16 41
M  V30 42 1 16 42
M  V30 END BOND
M  V30 END CTAB
M  END
>  <Dataset>  (480) 
ChEMBL_Kinases

>  <Ligand_Instance>  (480) 
nan

>  <PDB_ID>  (480) 
nan

>  <Standardized_SMILES>  (480) 
CC(C)=CCC[C@](C)(O)C1CC=C(C)CC1

>  <Name>  (480) 
BISABOLOL

>  <Pocket>  (480) 
nan

>  <ATP_Site>  (480) 
nan

>  <Peripheral>  (480) 
nan

>  <Num_H_Atoms_ProtBoundConf>  (480) 
nan

>  <Num_Resolved_Atoms>  (480) 
nan

>  <Num_Not_Resolved_Atoms>  (480) 
nan

$$$$
CHEMBL1562581
     RDKit          3D

  0  0  0  0  0  0  0  0  0  0999 V3000
M  V30 BEGIN CTAB
M  V30 COUNTS 60 64 0 0 0
M  V30 BEGIN ATOM
M  V30 1 O 3.973231 -3.273542 1.494123 0
M  V30 2 C 4.176938 -2.016317 1.630439 0
M  V30 3 C 5.416250 -1.591076 2.261638 0
M  V30 4 C 6.075367 -0.391568 2.126218 0
M  V30 5 C 7.239459 -0.025921 2.759430 0
M  V30 6 N 7.786287 -0.951191 3.602657 0
M  V30 7 C 7.213173 -2.144150 3.794746 0
M  V30 8 C 6.037138 -2.493299 3.144327 0
M  V30 9 C 3.109264 -1.153470 1.121308 0
M  V30 10 C 2.864073 0.132500 1.550797 0
M  V30 11 C 1.860938 0.931766 1.050446 0
M  V30 12 C 1.032908 0.453899 0.061765 0
M  V30 13 N -0.023215 1.214841 -0.507048 0
M  V30 14 C -0.349961 2.598124 -0.230862 0
M  V30 15 C -1.644701 2.556736 0.557704 0
M  V30 16 N -2.653153 1.904448 -0.214049 0
M  V30 17 C -3.645260 1.215969 0.498908 0
M  V30 18 C -4.802523 0.646352 -0.215386 0
M  V30 19 C -5.063084 -0.645406 0.421194 0
M  V30 20 O -6.226560 -1.176888 0.484293 0
M  V30 21 N -3.830895 -1.149397 0.920581 0
M  V30 22 C -3.625201 -2.568483 1.168547 0
M  V30 23 C -3.066202 -3.236967 -0.039504 0
M  V30 24 C -3.909504 -3.788677 -1.006869 0
M  V30 25 C -3.418844 -4.419436 -2.150593 0
M  V30 26 C -2.055063 -4.502997 -2.336009 0
M  V30 27 C -1.217118 -3.963206 -1.389244 0
M  V30 28 C -1.693376 -3.341515 -0.262557 0
M  V30 29 C -2.985497 -0.016688 1.078293 0
M  V30 30 O -1.873334 -0.268091 1.661782 0
M  V30 31 C -2.227873 1.480292 -1.479590 0
M  V30 32 C -0.946937 0.676784 -1.471250 0
M  V30 33 C 1.247704 -0.827797 -0.393042 0
M  V30 34 C 2.256113 -1.625816 0.112452 0
M  V30 35 H 5.632506 0.311976 1.453398 0
M  V30 36 H 7.669899 0.953650 2.573658 0
M  V30 37 H 7.690382 -2.846878 4.479118 0
M  V30 38 H 5.659229 -3.477520 3.368435 0
M  V30 39 H 3.467213 0.543666 2.316695 0
M  V30 40 H 1.735432 1.920799 1.440167 0
M  V30 41 H 0.473205 3.038448 0.359364 0
M  V30 42 H -0.494810 3.172546 -1.189940 0
M  V30 43 H -1.477794 2.001422 1.495366 0
M  V30 44 H -2.014662 3.561993 0.848043 0
M  V30 45 H -4.013917 1.805072 1.383054 0
M  V30 46 H -4.776719 0.616727 -1.309152 0
M  V30 47 H -5.693278 1.303918 0.023194 0
M  V30 48 H -2.980346 -2.719500 2.033643 0
M  V30 49 H -4.600676 -3.052945 1.431871 0
M  V30 50 H -4.969572 -3.748167 -0.907239 0
M  V30 51 H -4.038379 -4.847586 -2.903520 0
M  V30 52 H -1.544714 -4.957707 -3.164370 0
M  V30 53 H -0.150715 -3.991361 -1.465621 0
M  V30 54 H -1.099287 -2.898257 0.516497 0
M  V30 55 H -2.104915 2.401873 -2.136472 0
M  V30 56 H -2.965568 0.816768 -1.982829 0
M  V30 57 H -1.136411 -0.406815 -1.338974 0
M  V30 58 H -0.459967 0.869326 -2.475279 0
M  V30 59 H 0.672079 -1.324647 -1.166560 0
M  V30 60 H 2.447915 -2.631579 -0.223326 0
M  V30 END ATOM
M  V30 BEGIN BOND
M  V30 1 2 1 2
M  V30 2 1 2 3
M  V30 3 2 3 4
M  V30 4 1 4 5
M  V30 5 2 5 6
M  V30 6 1 6 7
M  V30 7 2 7 8
M  V30 8 1 2 9
M  V30 9 2 9 10
M  V30 10 1 10 11
M  V30 11 2 11 12
M  V30 12 1 12 13
M  V30 13 1 13 14
M  V30 14 1 14 15
M  V30 15 1 15 16
M  V30 16 1 16 17
M  V30 17 1 17 18
M  V30 18 1 18 19
M  V30 19 2 19 20
M  V30 20 1 19 21
M  V30 21 1 21 22
M  V30 22 1 22 23
M  V30 23 2 23 24
M  V30 24 1 24 25
M  V30 25 2 25 26
M  V30 26 1 26 27
M  V30 27 2 27 28
M  V30 28 1 21 29
M  V30 29 2 29 30
M  V30 30 1 16 31
M  V30 31 1 31 32
M  V30 32 1 12 33
M  V30 33 2 33 34
M  V30 34 1 8 3
M  V30 35 1 34 9
M  V30 36 1 32 13
M  V30 37 1 29 17
M  V30 38 1 28 23
M  V30 39 1 4 35
M  V30 40 1 5 36
M  V30 41 1 7 37
M  V30 42 1 8 38
M  V30 43 1 10 39
M  V30 44 1 11 40
M  V30 45 1 14 41
M  V30 46 1 14 42
M  V30 47 1 15 43
M  V30 48 1 15 44
M  V30 49 1 17 45
M  V30 50 1 18 46
M  V30 51 1 18 47
M  V30 52 1 22 48
M  V30 53 1 22 49
M  V30 54 1 24 50
M  V30 55 1 25 51
M  V30 56 1 26 52
M  V30 57 1 27 53
M  V30 58 1 28 54
M  V30 59 1 31 55
M  V30 60 1 31 56
M  V30 61 1 32 57
M  V30 62 1 32 58
M  V30 63 1 33 59
M  V30 64 1 34 60
M  V30 END BOND
M  V30 END CTAB
M  END
>  <Dataset>  (481) 
ChEMBL_Kinases

>  <Ligand_Instance>  (481) 
nan

>  <PDB_ID>  (481) 
nan

>  <Standardized_SMILES>  (481) 
O=C(c1ccncc1)c1ccc(N2CCN(C3CC(=O)N(Cc4ccccc4)C3=O)CC2)cc1

>  <Name>  (481) 
nan

>  <Pocket>  (481) 
nan

>  <ATP_Site>  (481) 
nan

>  <Peripheral>  (481) 
nan

>  <Num_H_Atoms_ProtBoundConf>  (481) 
nan

>  <Num_Resolved_Atoms>  (481) 
nan

>  <Num_Not_Resolved_Atoms>  (481) 
nan

$$$$
CHEMBL1561829
     RDKit          3D

  0  0  0  0  0  0  0  0  0  0999 V3000
M  V30 BEGIN CTAB
M  V30 COUNTS 52 56 0 0 0
M  V30 BEGIN ATOM
M  V30 1 C -1.187528 3.760382 -1.496131 0
M  V30 2 O -1.552580 2.527289 -0.945198 0
M  V30 3 C -0.658446 1.480978 -0.800676 0
M  V30 4 O 0.532703 1.704247 -1.203093 0
M  V30 5 C -1.035501 0.139628 -0.205772 0 CFG=2
M  V30 6 C -1.512660 0.452891 1.198334 0 CFG=1
M  V30 7 O -2.857429 0.136506 1.366227 0
M  V30 8 C -0.636225 -0.354287 2.150955 0 CFG=2
M  V30 9 O -1.318141 -0.796566 3.246250 0
M  V30 10 C 0.653510 0.316417 2.438533 0
M  V30 11 C 0.951800 1.630657 2.787294 0
M  V30 12 C 2.291632 1.940661 2.991890 0
M  V30 13 C 3.281713 1.000348 2.858316 0
M  V30 14 C 2.946067 -0.288504 2.512352 0
M  V30 15 C 1.612524 -0.663037 2.292403 0
M  V30 16 O 1.030133 -1.870883 1.942240 0
M  V30 17 C -0.157589 -1.507729 1.230163 0 CFG=1
M  V30 18 C -1.186710 -2.495281 1.274327 0
M  V30 19 C -2.164189 -2.996640 0.487266 0
M  V30 20 C -3.055954 -3.988245 0.767969 0
M  V30 21 C -2.973064 -4.568279 1.997733 0
M  V30 22 C -2.020768 -4.153981 2.901929 0
M  V30 23 C -1.147709 -3.133420 2.534660 0
M  V30 24 C 0.146235 -0.698208 0.045252 0 CFG=1
M  V30 25 C 0.869746 -1.300987 -1.058613 0
M  V30 26 C 2.247608 -1.038040 -1.180284 0
M  V30 27 C 3.067159 -1.546626 -2.200062 0
M  V30 28 C 2.522102 -2.355768 -3.155834 0
M  V30 29 C 1.190802 -2.656869 -3.104272 0
M  V30 30 C 0.452176 -2.125230 -2.081782 0
M  V30 31 H -0.662871 3.567625 -2.459062 0
M  V30 32 H -2.087379 4.350714 -1.752564 0
M  V30 33 H -0.535904 4.371486 -0.818997 0
M  V30 34 H -1.874681 -0.278833 -0.753822 0
M  V30 35 H -1.315507 1.508199 1.465914 0
M  V30 36 H -3.106907 0.508639 2.264192 0
M  V30 37 H -1.221506 -0.150594 3.983897 0
M  V30 38 H 0.207068 2.403209 2.904061 0
M  V30 39 H 2.642058 2.947526 3.271454 0
M  V30 40 H 4.325428 1.240348 3.016971 0
M  V30 41 H 3.727148 -1.020452 2.407984 0
M  V30 42 H -2.216204 -2.532986 -0.458381 0
M  V30 43 H -3.777709 -4.275124 0.032567 0
M  V30 44 H -3.675213 -5.357892 2.235367 0
M  V30 45 H -2.039203 -4.676605 3.846468 0
M  V30 46 H -0.463659 -2.946196 3.381791 0
M  V30 47 H 0.918753 0.075033 0.466517 0
M  V30 48 H 2.818448 -0.415492 -0.497895 0
M  V30 49 H 4.119584 -1.333029 -2.277161 0
M  V30 50 H 3.115129 -2.757160 -3.941413 0
M  V30 51 H 0.731908 -3.294750 -3.846965 0
M  V30 52 H -0.595858 -2.381632 -2.079612 0
M  V30 END ATOM
M  V30 BEGIN BOND
M  V30 1 1 1 2
M  V30 2 1 2 3
M  V30 3 2 3 4
M  V30 4 1 3 5
M  V30 5 1 5 6
M  V30 6 1 6 7
M  V30 7 1 6 8
M  V30 8 1 8 9 CFG=1
M  V30 9 1 8 10
M  V30 10 2 10 11
M  V30 11 1 11 12
M  V30 12 2 12 13
M  V30 13 1 13 14
M  V30 14 2 14 15
M  V30 15 1 15 16
M  V30 16 1 16 17
M  V30 17 1 17 18 CFG=3
M  V30 18 2 18 19
M  V30 19 1 19 20
M  V30 20 2 20 21
M  V30 21 1 21 22
M  V30 22 2 22 23
M  V30 23 1 17 24
M  V30 24 1 24 25
M  V30 25 2 25 26
M  V30 26 1 26 27
M  V30 27 2 27 28
M  V30 28 1 28 29
M  V30 29 2 29 30
M  V30 30 1 24 5
M  V30 31 1 30 25
M  V30 32 1 17 8
M  V30 33 1 23 18
M  V30 34 1 15 10
M  V30 35 1 1 31
M  V30 36 1 1 32
M  V30 37 1 1 33
M  V30 38 1 5 34 CFG=3
M  V30 39 1 6 35 CFG=1
M  V30 40 1 7 36
M  V30 41 1 9 37
M  V30 42 1 11 38
M  V30 43 1 12 39
M  V30 44 1 13 40
M  V30 45 1 14 41
M  V30 46 1 19 42
M  V30 47 1 20 43
M  V30 48 1 21 44
M  V30 49 1 22 45
M  V30 50 1 23 46
M  V30 51 1 24 47 CFG=1
M  V30 52 1 26 48
M  V30 53 1 27 49
M  V30 54 1 28 50
M  V30 55 1 29 51
M  V30 56 1 30 52
M  V30 END BOND
M  V30 END CTAB
M  END
>  <Dataset>  (482) 
ChEMBL_Kinases

>  <Ligand_Instance>  (482) 
nan

>  <PDB_ID>  (482) 
nan

>  <Standardized_SMILES>  (482) 
COC(=O)[C@@H]1[C@@H](O)[C@]2(O)c3ccccc3O[C@]2(c2ccccc2)[C@H]1c1ccccc1

>  <Name>  (482) 
nan

>  <Pocket>  (482) 
nan

>  <ATP_Site>  (482) 
nan

>  <Peripheral>  (482) 
nan

>  <Num_H_Atoms_ProtBoundConf>  (482) 
nan

>  <Num_Resolved_Atoms>  (482) 
nan

>  <Num_Not_Resolved_Atoms>  (482) 
nan

$$$$
CHEMBL1561833
     RDKit          3D

  0  0  0  0  0  0  0  0  0  0999 V3000
M  V30 BEGIN CTAB
M  V30 COUNTS 44 47 0 0 0
M  V30 BEGIN ATOM
M  V30 1 C 0.637441 -5.544306 2.086619 0
M  V30 2 N 0.328136 -4.329551 1.386752 0
M  V30 3 C 0.813466 -3.041071 1.741494 0
M  V30 4 O 1.525962 -2.752402 2.740574 0
M  V30 5 C 0.386286 -1.956238 0.767326 0
M  V30 6 O -0.328752 -1.057390 1.549704 0
M  V30 7 C 1.572184 -1.386955 0.077470 0
M  V30 8 C 1.226280 -0.342111 -0.871401 0
M  V30 9 O 1.063069 -0.683758 -2.093154 0
M  V30 10 C 1.038348 1.070191 -0.604755 0
M  V30 11 C 0.701914 1.916319 -1.640690 0
M  V30 12 C 0.513343 3.286929 -1.426941 0
M  V30 13 C 0.655398 3.849407 -0.175079 0
M  V30 14 C 0.991810 3.008452 0.864660 0
M  V30 15 N 1.132788 3.607483 2.146879 0
M  V30 16 C 2.016372 4.365928 2.792587 0
M  V30 17 C 1.545990 4.620869 4.072574 0
M  V30 18 C 0.321368 3.979944 4.188986 0
M  V30 19 C 0.081655 3.352345 2.973678 0
M  V30 20 C 1.176688 1.647795 0.640199 0
M  V30 21 C -0.501338 -2.742479 -0.113822 0
M  V30 22 C -1.311718 -2.454457 -1.191625 0
M  V30 23 C -2.056660 -3.411061 -1.891839 0
M  V30 24 C -1.980993 -4.722762 -1.484446 0
M  V30 25 C -1.192999 -5.086734 -0.414155 0
M  V30 26 C -0.478912 -4.073304 0.235125 0
M  V30 27 H 0.618505 -6.356466 1.321578 0
M  V30 28 H 1.668800 -5.492614 2.470262 0
M  V30 29 H -0.107589 -5.807891 2.858180 0
M  V30 30 H 0.175955 -0.939645 2.392300 0
M  V30 31 H 2.222622 -0.928066 0.853498 0
M  V30 32 H 2.086124 -2.226139 -0.442001 0
M  V30 33 H 0.565588 1.577509 -2.667432 0
M  V30 34 H 0.246894 3.925261 -2.274070 0
M  V30 35 H 0.491267 4.915357 -0.103357 0
M  V30 36 H 2.905597 4.655339 2.274093 0
M  V30 37 H 2.144992 5.237126 4.762118 0
M  V30 38 H -0.226600 4.051819 5.124887 0
M  V30 39 H -0.862192 2.802881 2.925196 0
M  V30 40 H 1.440858 1.030411 1.485969 0
M  V30 41 H -1.444962 -1.463461 -1.574288 0
M  V30 42 H -2.684946 -3.149792 -2.736986 0
M  V30 43 H -2.546665 -5.497198 -2.006705 0
M  V30 44 H -1.173490 -6.126335 -0.142373 0
M  V30 END ATOM
M  V30 BEGIN BOND
M  V30 1 1 1 2
M  V30 2 1 2 3
M  V30 3 2 3 4
M  V30 4 1 3 5
M  V30 5 1 5 6
M  V30 6 1 5 7
M  V30 7 1 7 8
M  V30 8 2 8 9
M  V30 9 1 8 10
M  V30 10 2 10 11
M  V30 11 1 11 12
M  V30 12 2 12 13
M  V30 13 1 13 14
M  V30 14 1 14 15
M  V30 15 1 15 16
M  V30 16 2 16 17
M  V30 17 1 17 18
M  V30 18 2 18 19
M  V30 19 2 14 20
M  V30 20 1 5 21
M  V30 21 2 21 22
M  V30 22 1 22 23
M  V30 23 2 23 24
M  V30 24 1 24 25
M  V30 25 2 25 26
M  V30 26 1 26 2
M  V30 27 1 20 10
M  V30 28 1 26 21
M  V30 29 1 19 15
M  V30 30 1 1 27
M  V30 31 1 1 28
M  V30 32 1 1 29
M  V30 33 1 6 30
M  V30 34 1 7 31
M  V30 35 1 7 32
M  V30 36 1 11 33
M  V30 37 1 12 34
M  V30 38 1 13 35
M  V30 39 1 16 36
M  V30 40 1 17 37
M  V30 41 1 18 38
M  V30 42 1 19 39
M  V30 43 1 20 40
M  V30 44 1 22 41
M  V30 45 1 23 42
M  V30 46 1 24 43
M  V30 47 1 25 44
M  V30 END BOND
M  V30 END CTAB
M  END
>  <Dataset>  (483) 
ChEMBL_Kinases

>  <Ligand_Instance>  (483) 
nan

>  <PDB_ID>  (483) 
nan

>  <Standardized_SMILES>  (483) 
CN1C(=O)C(O)(CC(=O)c2cccc(-n3cccc3)c2)c2ccccc21

>  <Name>  (483) 
nan

>  <Pocket>  (483) 
nan

>  <ATP_Site>  (483) 
nan

>  <Peripheral>  (483) 
nan

>  <Num_H_Atoms_ProtBoundConf>  (483) 
nan

>  <Num_Resolved_Atoms>  (483) 
nan

>  <Num_Not_Resolved_Atoms>  (483) 
nan

$$$$
CHEMBL1561837
     RDKit          3D

  0  0  0  0  0  0  0  0  0  0999 V3000
M  V30 BEGIN CTAB
M  V30 COUNTS 35 36 0 0 0
M  V30 BEGIN ATOM
M  V30 1 C -0.824865 -2.930770 4.987551 0
M  V30 2 C -0.261019 -3.649837 3.779705 0
M  V30 3 O -0.071765 -2.759373 2.690555 0
M  V30 4 C 0.434227 -3.160879 1.459366 0
M  V30 5 O 0.752743 -4.361743 1.257099 0
M  V30 6 C 0.523772 -2.038500 0.520570 0
M  V30 7 C 1.014018 -2.266220 -0.769637 0
M  V30 8 C 1.002702 -1.068550 -1.460123 0
M  V30 9 C 1.408216 -0.741087 -2.838804 0
M  V30 10 N 0.519397 -0.142647 -0.611871 0
M  V30 11 C 0.272109 1.254341 -0.735492 0
M  V30 12 C -0.950913 1.567576 -1.304660 0
M  V30 13 C -1.350835 2.891988 -1.498599 0
M  V30 14 C -0.433986 3.834409 -1.079448 0
M  V30 15 Cl -0.914584 5.521263 -1.313131 0
M  V30 16 C 0.794701 3.573683 -0.507989 0
M  V30 17 C 1.143054 2.249517 -0.337968 0
M  V30 18 C 0.217228 -0.681150 0.593428 0
M  V30 19 C -0.323054 -0.148269 1.845097 0
M  V30 20 H -0.374258 -1.903954 5.025661 0
M  V30 21 H -1.924451 -2.794743 4.847448 0
M  V30 22 H -0.566933 -3.524782 5.876573 0
M  V30 23 H -0.889940 -4.511254 3.495460 0
M  V30 24 H 0.711922 -4.101646 4.110144 0
M  V30 25 H 1.374268 -3.145462 -1.287717 0
M  V30 26 H 1.119424 -1.606626 -3.480999 0
M  V30 27 H 2.501033 -0.585320 -2.960300 0
M  V30 28 H 0.883462 0.134004 -3.219668 0
M  V30 29 H -1.666769 0.802191 -1.631714 0
M  V30 30 H -2.296205 3.174002 -1.938821 0
M  V30 31 H 1.459225 4.371455 -0.204924 0
M  V30 32 H 2.083833 1.948617 0.100228 0
M  V30 33 H -1.192967 -0.767276 2.147146 0
M  V30 34 H 0.388298 -0.200662 2.695038 0
M  V30 35 H -0.666924 0.896248 1.780088 0
M  V30 END ATOM
M  V30 BEGIN BOND
M  V30 1 1 1 2
M  V30 2 1 2 3
M  V30 3 1 3 4
M  V30 4 2 4 5
M  V30 5 1 4 6
M  V30 6 1 6 7
M  V30 7 2 7 8
M  V30 8 1 8 9
M  V30 9 1 8 10
M  V30 10 1 10 11
M  V30 11 2 11 12
M  V30 12 1 12 13
M  V30 13 2 13 14
M  V30 14 1 14 15
M  V30 15 1 14 16
M  V30 16 2 16 17
M  V30 17 1 10 18
M  V30 18 1 18 19
M  V30 19 2 18 6
M  V30 20 1 17 11
M  V30 21 1 1 20
M  V30 22 1 1 21
M  V30 23 1 1 22
M  V30 24 1 2 23
M  V30 25 1 2 24
M  V30 26 1 7 25
M  V30 27 1 9 26
M  V30 28 1 9 27
M  V30 29 1 9 28
M  V30 30 1 12 29
M  V30 31 1 13 30
M  V30 32 1 16 31
M  V30 33 1 17 32
M  V30 34 1 19 33
M  V30 35 1 19 34
M  V30 36 1 19 35
M  V30 END BOND
M  V30 END CTAB
M  END
>  <Dataset>  (484) 
ChEMBL_Kinases

>  <Ligand_Instance>  (484) 
nan

>  <PDB_ID>  (484) 
nan

>  <Standardized_SMILES>  (484) 
CCOC(=O)c1cc(C)n(-c2ccc(Cl)cc2)c1C

>  <Name>  (484) 
nan

>  <Pocket>  (484) 
nan

>  <ATP_Site>  (484) 
nan

>  <Peripheral>  (484) 
nan

>  <Num_H_Atoms_ProtBoundConf>  (484) 
nan

>  <Num_Resolved_Atoms>  (484) 
nan

>  <Num_Not_Resolved_Atoms>  (484) 
nan

$$$$
CHEMBL1561850
     RDKit          3D

  0  0  0  0  0  0  0  0  0  0999 V3000
M  V30 BEGIN CTAB
M  V30 COUNTS 42 45 0 0 0
M  V30 BEGIN ATOM
M  V30 1 C 1.522615 -5.117286 3.830639 0
M  V30 2 O 1.864443 -5.294376 2.470903 0
M  V30 3 C 1.853065 -4.175608 1.641728 0
M  V30 4 C 1.507380 -2.943963 2.189780 0
M  V30 5 C 1.498380 -1.829153 1.353301 0
M  V30 6 C 1.828515 -1.969148 0.015686 0
M  V30 7 C 1.789285 -0.742197 -0.776369 0
M  V30 8 N 2.620302 0.093366 -1.423499 0
M  V30 9 O 1.947794 1.046455 -1.958131 0
M  V30 10 C 0.642883 0.927120 -1.716716 0
M  V30 11 C -0.184230 2.006026 -2.314923 0
M  V30 12 O -0.329767 3.140847 -1.512818 0
M  V30 13 C -0.927384 3.121987 -0.283115 0
M  V30 14 C -0.883512 4.425978 0.234234 0
M  V30 15 C -1.414326 4.749989 1.483824 0
M  V30 16 C -2.009359 3.767538 2.257022 0
M  V30 17 C -2.044862 2.493867 1.735999 0
M  V30 18 C -1.525166 2.172142 0.509996 0
M  V30 19 O -2.675530 1.687996 2.665456 0
M  V30 20 C -2.764320 2.416831 3.897278 0
M  V30 21 O -2.615936 3.746529 3.502790 0
M  V30 22 N 0.595262 -0.194123 -0.982416 0
M  V30 23 C 2.167999 -3.201629 -0.504526 0
M  V30 24 C 2.184167 -4.321869 0.304793 0
M  V30 25 O 2.519039 -5.583319 -0.172433 0
M  V30 26 C 2.847524 -5.654054 -1.557263 0
M  V30 27 H 1.528945 -6.096036 4.354221 0
M  V30 28 H 2.208307 -4.422423 4.354694 0
M  V30 29 H 0.512972 -4.624263 3.861891 0
M  V30 30 H 1.245895 -2.820469 3.239337 0
M  V30 31 H 1.223063 -0.867745 1.805133 0
M  V30 32 H -1.240571 1.621987 -2.503365 0
M  V30 33 H 0.162193 2.268710 -3.338238 0
M  V30 34 H -0.462408 5.330969 -0.215140 0
M  V30 35 H -1.411283 5.730364 1.934495 0
M  V30 36 H -1.518595 1.211742 0.028188 0
M  V30 37 H -3.724447 2.159233 4.360533 0
M  V30 38 H -1.911229 2.090081 4.548643 0
M  V30 39 H 2.420671 -3.279666 -1.551155 0
M  V30 40 H 3.682443 -4.924114 -1.733924 0
M  V30 41 H 3.153280 -6.665298 -1.858734 0
M  V30 42 H 1.981397 -5.275568 -2.146087 0
M  V30 END ATOM
M  V30 BEGIN BOND
M  V30 1 1 1 2
M  V30 2 1 2 3
M  V30 3 2 3 4
M  V30 4 1 4 5
M  V30 5 2 5 6
M  V30 6 1 6 7
M  V30 7 2 7 8
M  V30 8 1 8 9
M  V30 9 1 9 10
M  V30 10 1 10 11
M  V30 11 1 11 12
M  V30 12 1 12 13
M  V30 13 2 13 14
M  V30 14 1 14 15
M  V30 15 2 15 16
M  V30 16 1 16 17
M  V30 17 2 17 18
M  V30 18 1 17 19
M  V30 19 1 19 20
M  V30 20 1 20 21
M  V30 21 2 10 22
M  V30 22 1 6 23
M  V30 23 2 23 24
M  V30 24 1 24 25
M  V30 25 1 25 26
M  V30 26 1 24 3
M  V30 27 1 22 7
M  V30 28 1 18 13
M  V30 29 1 21 16
M  V30 30 1 1 27
M  V30 31 1 1 28
M  V30 32 1 1 29
M  V30 33 1 4 30
M  V30 34 1 5 31
M  V30 35 1 11 32
M  V30 36 1 11 33
M  V30 37 1 14 34
M  V30 38 1 15 35
M  V30 39 1 18 36
M  V30 40 1 20 37
M  V30 41 1 20 38
M  V30 42 1 23 39
M  V30 43 1 26 40
M  V30 44 1 26 41
M  V30 45 1 26 42
M  V30 END BOND
M  V30 END CTAB
M  END
>  <Dataset>  (485) 
ChEMBL_Kinases

>  <Ligand_Instance>  (485) 
nan

>  <PDB_ID>  (485) 
nan

>  <Standardized_SMILES>  (485) 
COc1ccc(-c2noc(COc3ccc4c(c3)OCO4)n2)cc1OC

>  <Name>  (485) 
nan

>  <Pocket>  (485) 
nan

>  <ATP_Site>  (485) 
nan

>  <Peripheral>  (485) 
nan

>  <Num_H_Atoms_ProtBoundConf>  (485) 
nan

>  <Num_Resolved_Atoms>  (485) 
nan

>  <Num_Not_Resolved_Atoms>  (485) 
nan

$$$$
CHEMBL1562031
     RDKit          3D

  0  0  0  0  0  0  0  0  0  0999 V3000
M  V30 BEGIN CTAB
M  V30 COUNTS 58 61 0 0 0
M  V30 BEGIN ATOM
M  V30 1 O 1.901139 0.647451 2.259769 0
M  V30 2 C 0.943716 0.053682 2.816629 0
M  V30 3 N 0.901063 -0.624596 4.057619 0
M  V30 4 C 2.043659 -0.745567 4.940927 0
M  V30 5 C 3.188321 -0.059204 4.320224 0
M  V30 6 C 4.009856 -0.793789 3.492755 0
M  V30 7 C 5.100266 -0.196369 2.883879 0
M  V30 8 C 5.336543 1.134932 3.126018 0
M  V30 9 C 4.497886 1.844515 3.958187 0
M  V30 10 C 3.402076 1.289996 4.584352 0
M  V30 11 C -0.318506 0.078119 2.044634 0
M  V30 12 C -0.414483 0.677632 0.870744 0
M  V30 13 C -1.524963 0.842416 -0.075257 0 CFG=1
M  V30 14 C -1.077061 0.564003 -1.492317 0
M  V30 15 C -0.101178 -0.435405 -1.638730 0
M  V30 16 S 0.167786 -0.465011 -3.473162 0
M  V30 17 C -0.988419 0.790416 -3.820990 0
M  V30 18 C -1.337362 1.321962 -5.040418 0
M  V30 19 C -2.283641 2.322597 -5.129747 0
M  V30 20 C -2.802864 2.697677 -3.909018 0
M  V30 21 C -2.471498 2.182738 -2.676785 0
M  V30 22 C -1.523061 1.184591 -2.622042 0
M  V30 23 C -2.678816 -0.007134 0.338829 0
M  V30 24 C -2.343707 -1.027295 1.371036 0 CFG=1
M  V30 25 O -1.640525 -2.073131 0.764131 0
M  V30 26 C -2.329546 -3.275876 0.928108 0
M  V30 27 C -1.547865 -4.371955 0.273697 0
M  V30 28 C -1.354718 -4.140245 -1.197673 0
M  V30 29 C -0.551746 -5.286041 -1.832087 0
M  V30 30 O 0.702021 -5.383729 -1.236177 0
M  V30 31 O -1.535169 -0.466743 2.361756 0
M  V30 32 H 0.028031 -1.072256 4.390427 0
M  V30 33 H 1.773520 -0.276766 5.908966 0
M  V30 34 H 2.223171 -1.852030 5.065981 0
M  V30 35 H 3.808872 -1.836116 3.314838 0
M  V30 36 H 5.714332 -0.810762 2.245041 0
M  V30 37 H 6.198090 1.590272 2.639746 0
M  V30 38 H 4.718813 2.896146 4.124476 0
M  V30 39 H 2.734015 1.828069 5.238796 0
M  V30 40 H 0.468715 1.182208 0.440260 0
M  V30 41 H -1.826089 1.928360 -0.058355 0
M  V30 42 H 0.392173 -1.047867 -0.930200 0
M  V30 43 H -0.861608 0.946385 -5.926025 0
M  V30 44 H -2.595586 2.775506 -6.057286 0
M  V30 45 H -3.562858 3.496279 -3.943808 0
M  V30 46 H -2.991692 2.606459 -1.803625 0
M  V30 47 H -3.482914 0.672720 0.730931 0
M  V30 48 H -3.149535 -0.546392 -0.517731 0
M  V30 49 H -3.291578 -1.411853 1.832633 0
M  V30 50 H -3.297274 -3.185249 0.408020 0
M  V30 51 H -2.422633 -3.442270 2.000367 0
M  V30 52 H -2.069817 -5.323778 0.463336 0
M  V30 53 H -0.533272 -4.490732 0.710150 0
M  V30 54 H -2.314654 -4.003337 -1.713966 0
M  V30 55 H -0.753109 -3.234873 -1.410607 0
M  V30 56 H -0.418147 -5.020348 -2.886549 0
M  V30 57 H -1.157729 -6.201996 -1.662956 0
M  V30 58 H 1.044165 -4.484263 -0.964483 0
M  V30 END ATOM
M  V30 BEGIN BOND
M  V30 1 2 1 2
M  V30 2 1 2 3
M  V30 3 1 3 4
M  V30 4 1 4 5
M  V30 5 2 5 6
M  V30 6 1 6 7
M  V30 7 2 7 8
M  V30 8 1 8 9
M  V30 9 2 9 10
M  V30 10 1 2 11
M  V30 11 2 11 12
M  V30 12 1 12 13
M  V30 13 1 13 14
M  V30 14 2 14 15
M  V30 15 1 15 16
M  V30 16 1 16 17
M  V30 17 2 17 18
M  V30 18 1 18 19
M  V30 19 2 19 20
M  V30 20 1 20 21
M  V30 21 2 21 22
M  V30 22 1 13 23
M  V30 23 1 23 24
M  V30 24 1 24 25
M  V30 25 1 25 26
M  V30 26 1 26 27
M  V30 27 1 27 28
M  V30 28 1 28 29
M  V30 29 1 29 30
M  V30 30 1 24 31
M  V30 31 1 10 5
M  V30 32 1 31 11
M  V30 33 1 22 14
M  V30 34 1 22 17
M  V30 35 1 3 32
M  V30 36 1 4 33
M  V30 37 1 4 34
M  V30 38 1 6 35
M  V30 39 1 7 36
M  V30 40 1 8 37
M  V30 41 1 9 38
M  V30 42 1 10 39
M  V30 43 1 12 40
M  V30 44 1 13 41 CFG=3
M  V30 45 1 15 42
M  V30 46 1 18 43
M  V30 47 1 19 44
M  V30 48 1 20 45
M  V30 49 1 21 46
M  V30 50 1 23 47
M  V30 51 1 23 48
M  V30 52 1 24 49 CFG=1
M  V30 53 1 26 50
M  V30 54 1 26 51
M  V30 55 1 27 52
M  V30 56 1 27 53
M  V30 57 1 28 54
M  V30 58 1 28 55
M  V30 59 1 29 56
M  V30 60 1 29 57
M  V30 61 1 30 58
M  V30 END BOND
M  V30 END CTAB
M  END
>  <Dataset>  (486) 
ChEMBL_Kinases

>  <Ligand_Instance>  (486) 
nan

>  <PDB_ID>  (486) 
nan

>  <Standardized_SMILES>  (486) 
O=C(NCc1ccccc1)C1=C[C@@H](c2csc3ccccc23)C[C@@H](OCCCCO)O1

>  <Name>  (486) 
nan

>  <Pocket>  (486) 
nan

>  <ATP_Site>  (486) 
nan

>  <Peripheral>  (486) 
nan

>  <Num_H_Atoms_ProtBoundConf>  (486) 
nan

>  <Num_Resolved_Atoms>  (486) 
nan

>  <Num_Not_Resolved_Atoms>  (486) 
nan

$$$$
CHEMBL1562088
     RDKit          3D

  0  0  0  0  0  0  0  0  0  0999 V3000
M  V30 BEGIN CTAB
M  V30 COUNTS 58 62 0 0 0
M  V30 BEGIN ATOM
M  V30 1 C 0.015147 -1.697071 4.050113 0
M  V30 2 C 1.298244 -1.261946 3.434364 0
M  V30 3 C 2.431848 -2.006044 4.019829 0
M  V30 4 C 1.266555 -0.335646 2.499143 0
M  V30 5 C 2.528513 0.101954 1.886805 0
M  V30 6 O 3.761059 -0.205290 1.960329 0
M  V30 7 C 2.299628 1.180846 0.940374 0
M  V30 8 C 3.112564 2.008109 0.060226 0
M  V30 9 C 4.119860 1.328438 -0.631863 0
M  V30 10 C 4.998721 1.955959 -1.509505 0
M  V30 11 C 4.815397 3.313902 -1.660148 0
M  V30 12 C 3.823564 4.036709 -0.990566 0
M  V30 13 C 2.977411 3.366386 -0.131174 0
M  V30 14 C 0.996413 1.419263 0.937114 0
M  V30 15 C -0.248832 2.135709 0.489967 0
M  V30 16 N -1.196917 1.040179 0.219910 0
M  V30 17 C -2.448332 0.671047 -0.333536 0
M  V30 18 O -2.976499 1.481103 -1.166254 0
M  V30 19 N -2.805915 -0.616408 0.240390 0
M  V30 20 C -4.086872 -1.088909 -0.245525 0
M  V30 21 C -4.038766 -1.941318 -1.473353 0
M  V30 22 C -3.297933 -3.202283 -1.326570 0
M  V30 23 C -1.975682 -3.496939 -1.568931 0
M  V30 24 C -1.453857 -4.754731 -1.368955 0
M  V30 25 C -2.226614 -5.825776 -0.906027 0
M  V30 26 C -3.557145 -5.566261 -0.653274 0
M  V30 27 C -4.040440 -4.296394 -0.865598 0
M  V30 28 C -1.724058 -0.983138 1.138041 0
M  V30 29 O -2.289720 -1.873439 1.874102 0
M  V30 30 C -0.564040 -0.181141 0.770347 0 CFG=1
M  V30 31 C 0.219281 -0.746834 -0.389162 0
M  V30 32 C 0.241730 0.449377 1.840130 0 CFG=1
M  V30 33 H -0.277174 -2.674160 3.597102 0
M  V30 34 H 0.126571 -1.862919 5.152271 0
M  V30 35 H -0.743066 -0.930143 3.882149 0
M  V30 36 H 2.431904 -3.044712 3.601607 0
M  V30 37 H 3.401365 -1.534511 3.798307 0
M  V30 38 H 2.313074 -2.159662 5.118314 0
M  V30 39 H 4.283406 0.247200 -0.527144 0
M  V30 40 H 5.767375 1.427890 -2.036044 0
M  V30 41 H 5.491128 3.827361 -2.341561 0
M  V30 42 H 3.686787 5.101517 -1.115334 0
M  V30 43 H 2.162547 3.828803 0.446955 0
M  V30 44 H -0.105664 2.645506 -0.467411 0
M  V30 45 H -0.588685 2.740460 1.327712 0
M  V30 46 H -4.463512 -1.770505 0.579189 0
M  V30 47 H -4.857600 -0.298969 -0.300353 0
M  V30 48 H -5.103250 -2.184685 -1.730213 0
M  V30 49 H -3.688659 -1.356783 -2.373397 0
M  V30 50 H -1.399497 -2.662640 -1.933076 0
M  V30 51 H -0.384708 -4.896464 -1.590406 0
M  V30 52 H -1.815986 -6.791579 -0.756533 0
M  V30 53 H -4.153662 -6.387010 -0.298198 0
M  V30 54 H -5.093520 -4.195963 -0.638987 0
M  V30 55 H 1.086222 -0.110368 -0.652000 0
M  V30 56 H -0.463455 -0.634488 -1.278802 0
M  V30 57 H 0.593952 -1.763470 -0.240126 0
M  V30 58 H -0.435598 0.993032 2.522501 0
M  V30 END ATOM
M  V30 BEGIN BOND
M  V30 1 1 1 2
M  V30 2 1 2 3
M  V30 3 2 2 4 CFG=2
M  V30 4 1 4 5
M  V30 5 2 5 6
M  V30 6 1 5 7
M  V30 7 1 7 8
M  V30 8 2 8 9
M  V30 9 1 9 10
M  V30 10 2 10 11
M  V30 11 1 11 12
M  V30 12 2 12 13
M  V30 13 2 7 14
M  V30 14 1 14 15
M  V30 15 1 15 16
M  V30 16 1 16 17
M  V30 17 2 17 18
M  V30 18 1 17 19
M  V30 19 1 19 20
M  V30 20 1 20 21
M  V30 21 1 21 22
M  V30 22 2 22 23
M  V30 23 1 23 24
M  V30 24 2 24 25
M  V30 25 1 25 26
M  V30 26 2 26 27
M  V30 27 1 19 28
M  V30 28 2 28 29
M  V30 29 1 28 30
M  V30 30 1 30 31 CFG=3
M  V30 31 1 30 32
M  V30 32 1 32 4
M  V30 33 1 13 8
M  V30 34 1 32 14
M  V30 35 1 30 16
M  V30 36 1 27 22
M  V30 37 1 1 33
M  V30 38 1 1 34
M  V30 39 1 1 35
M  V30 40 1 3 36
M  V30 41 1 3 37
M  V30 42 1 3 38
M  V30 43 1 9 39
M  V30 44 1 10 40
M  V30 45 1 11 41
M  V30 46 1 12 42
M  V30 47 1 13 43
M  V30 48 1 15 44
M  V30 49 1 15 45
M  V30 50 1 20 46
M  V30 51 1 20 47
M  V30 52 1 21 48
M  V30 53 1 21 49
M  V30 54 1 23 50
M  V30 55 1 24 51
M  V30 56 1 25 52
M  V30 57 1 26 53
M  V30 58 1 27 54
M  V30 59 1 31 55
M  V30 60 1 31 56
M  V30 61 1 31 57
M  V30 62 1 32 58 CFG=1
M  V30 END BOND
M  V30 END CTAB
M  END
>  <Dataset>  (487) 
ChEMBL_Kinases

>  <Ligand_Instance>  (487) 
nan

>  <PDB_ID>  (487) 
nan

>  <Standardized_SMILES>  (487) 
CC(C)=C1C(=O)C(c2ccccc2)=C2CN3C(=O)N(CCc4ccccc4)C(=O)[C@]3(C)[C@H]21

>  <Name>  (487) 
nan

>  <Pocket>  (487) 
nan

>  <ATP_Site>  (487) 
nan

>  <Peripheral>  (487) 
nan

>  <Num_H_Atoms_ProtBoundConf>  (487) 
nan

>  <Num_Resolved_Atoms>  (487) 
nan

>  <Num_Not_Resolved_Atoms>  (487) 
nan

$$$$
CHEMBL1562136
     RDKit          3D

  0  0  0  0  0  0  0  0  0  0999 V3000
M  V30 BEGIN CTAB
M  V30 COUNTS 54 57 0 0 0
M  V30 BEGIN ATOM
M  V30 1 C 0.950902 0.576044 -0.508694 0
M  V30 2 C 1.211103 -0.389685 0.651175 0
M  V30 3 C 2.655998 -0.605548 0.712078 0
M  V30 4 C 3.592695 -0.040686 -0.132406 0
M  V30 5 C 4.953138 -0.260248 -0.057545 0
M  V30 6 C 5.388398 -1.108260 0.939860 0
M  V30 7 N 6.795170 -1.320765 0.999067 0 CHG=1 VAL=4
M  V30 8 O 7.337486 -2.070519 1.857418 0
M  V30 9 O 7.705150 -0.730436 0.126769 0 CHG=-1 VAL=1
M  V30 10 C 4.506943 -1.713681 1.826968 0
M  V30 11 C 3.156818 -1.439340 1.681910 0
M  V30 12 C 0.729614 0.152694 1.959115 0
M  V30 13 C -0.727274 0.520032 1.994851 0
M  V30 14 C -0.961906 1.994732 1.871733 0
M  V30 15 C -1.270345 0.115463 3.364653 0
M  V30 16 N -1.467557 -0.278751 1.038219 0
M  V30 17 C -2.734629 0.182378 0.617640 0
M  V30 18 O -3.276656 1.241785 1.044651 0
M  V30 19 C -3.751689 -0.272514 -0.302166 0
M  V30 20 C -5.069541 -0.583705 -0.042514 0
M  V30 21 C -5.895437 -1.011474 -1.086841 0
M  V30 22 C -5.399923 -1.123331 -2.371437 0
M  V30 23 C -4.076474 -0.812643 -2.641568 0
M  V30 24 C -3.260252 -0.385836 -1.588276 0
M  V30 25 C -0.918984 -1.508224 0.528458 0
M  V30 26 C -1.819550 -2.539473 0.276424 0
M  V30 27 C -1.270844 -3.713942 -0.208573 0
M  V30 28 C 0.079401 -3.845101 -0.424920 0
M  V30 29 C 0.942794 -2.804410 -0.165091 0
M  V30 30 C 0.441542 -1.613293 0.319795 0
M  V30 31 H 1.352473 0.055320 -1.404086 0
M  V30 32 H 1.489616 1.507243 -0.259750 0
M  V30 33 H -0.113971 0.778447 -0.664169 0
M  V30 34 H 3.238722 0.622794 -0.909100 0
M  V30 35 H 5.602858 0.233525 -0.770640 0
M  V30 36 H 4.916269 -2.373210 2.592385 0
M  V30 37 H 2.508054 -1.937270 2.399661 0
M  V30 38 H 0.908628 -0.638372 2.714486 0
M  V30 39 H 1.318060 1.025939 2.309070 0
M  V30 40 H -1.821034 2.346383 2.487553 0
M  V30 41 H -1.209118 2.287251 0.831367 0
M  V30 42 H -0.096091 2.591223 2.266148 0
M  V30 43 H -1.597637 -0.936731 3.386945 0
M  V30 44 H -2.111955 0.792643 3.660990 0
M  V30 45 H -0.486378 0.262124 4.148875 0
M  V30 46 H -5.359325 -0.463668 0.993238 0
M  V30 47 H -6.917308 -1.240042 -0.820898 0
M  V30 48 H -6.039253 -1.453549 -3.174835 0
M  V30 49 H -3.750899 -0.920744 -3.665776 0
M  V30 50 H -2.257622 -0.176176 -1.926965 0
M  V30 51 H -2.891711 -2.416631 0.454048 0
M  V30 52 H -1.908301 -4.555497 -0.426372 0
M  V30 53 H 0.546162 -4.750861 -0.803681 0
M  V30 54 H 2.024630 -2.774855 -0.290550 0
M  V30 END ATOM
M  V30 BEGIN BOND
M  V30 1 1 1 2
M  V30 2 1 2 3
M  V30 3 2 3 4
M  V30 4 1 4 5
M  V30 5 2 5 6
M  V30 6 1 6 7
M  V30 7 2 7 8
M  V30 8 1 7 9
M  V30 9 1 6 10
M  V30 10 2 10 11
M  V30 11 1 2 12
M  V30 12 1 12 13
M  V30 13 1 13 14
M  V30 14 1 13 15
M  V30 15 1 13 16
M  V30 16 1 16 17
M  V30 17 2 17 18
M  V30 18 1 17 19
M  V30 19 2 19 20
M  V30 20 1 20 21
M  V30 21 2 21 22
M  V30 22 1 22 23
M  V30 23 2 23 24
M  V30 24 1 16 25
M  V30 25 2 25 26
M  V30 26 1 26 27
M  V30 27 2 27 28
M  V30 28 1 28 29
M  V30 29 2 29 30
M  V30 30 1 30 2
M  V30 31 1 11 3
M  V30 32 1 24 19
M  V30 33 1 30 25
M  V30 34 1 1 31
M  V30 35 1 1 32
M  V30 36 1 1 33
M  V30 37 1 4 34
M  V30 38 1 5 35
M  V30 39 1 10 36
M  V30 40 1 11 37
M  V30 41 1 12 38
M  V30 42 1 12 39
M  V30 43 1 14 40
M  V30 44 1 14 41
M  V30 45 1 14 42
M  V30 46 1 15 43
M  V30 47 1 15 44
M  V30 48 1 15 45
M  V30 49 1 20 46
M  V30 50 1 21 47
M  V30 51 1 22 48
M  V30 52 1 23 49
M  V30 53 1 24 50
M  V30 54 1 26 51
M  V30 55 1 27 52
M  V30 56 1 28 53
M  V30 57 1 29 54
M  V30 END BOND
M  V30 END CTAB
M  END
>  <Dataset>  (488) 
ChEMBL_Kinases

>  <Ligand_Instance>  (488) 
nan

>  <PDB_ID>  (488) 
nan

>  <Standardized_SMILES>  (488) 
CC1(c2ccc([N+](=O)[O-])cc2)CC(C)(C)N(C(=O)c2ccccc2)c2ccccc21

>  <Name>  (488) 
nan

>  <Pocket>  (488) 
nan

>  <ATP_Site>  (488) 
nan

>  <Peripheral>  (488) 
nan

>  <Num_H_Atoms_ProtBoundConf>  (488) 
nan

>  <Num_Resolved_Atoms>  (488) 
nan

>  <Num_Not_Resolved_Atoms>  (488) 
nan

$$$$
CHEMBL1562235
     RDKit          3D

  0  0  0  0  0  0  0  0  0  0999 V3000
M  V30 BEGIN CTAB
M  V30 COUNTS 51 54 0 0 0
M  V30 BEGIN ATOM
M  V30 1 C 0.525711 -3.938807 1.198846 0
M  V30 2 C 0.699789 -4.293533 -0.264091 0
M  V30 3 C 0.655329 -3.089683 -1.161308 0
M  V30 4 C 1.946460 -2.894405 -1.928822 0
M  V30 5 N 3.027983 -2.877830 -1.013486 0
M  V30 6 C 3.163438 -1.741640 -0.169033 0
M  V30 7 C 3.534730 -0.454107 -0.858901 0
M  V30 8 C 3.659100 0.702290 0.125854 0
M  V30 9 N 2.419532 0.939804 0.835954 0
M  V30 10 C 1.258644 1.272714 0.083473 0
M  V30 11 O 1.244745 1.373691 -1.164363 0
M  V30 12 C 0.050520 1.498363 0.833794 0
M  V30 13 C -0.255496 1.467725 2.130754 0
M  V30 14 C -1.532885 1.734317 2.551164 0
M  V30 15 C -2.062960 1.757486 3.822886 0
M  V30 16 Cl -1.079520 1.414210 5.245563 0
M  V30 17 N -3.337425 2.041527 4.005461 0
M  V30 18 C -4.258530 2.330020 3.090534 0
M  V30 19 C -5.583805 2.621533 3.326776 0
M  V30 20 C -6.426624 2.903353 2.262714 0
M  V30 21 C -5.914862 2.885428 0.983882 0
M  V30 22 C -4.586958 2.597077 0.701550 0
M  V30 23 C -3.792391 2.324008 1.793426 0
M  V30 24 C -2.456220 2.028218 1.576002 0
M  V30 25 S -1.499712 1.925215 0.039973 0
M  V30 26 C 3.172995 -4.109246 -0.314612 0
M  V30 27 C 2.001870 -5.023831 -0.487152 0
M  V30 28 H 1.348371 -4.354811 1.805433 0
M  V30 29 H 0.407921 -2.844982 1.349503 0
M  V30 30 H -0.423063 -4.379000 1.603859 0
M  V30 31 H -0.106153 -5.012461 -0.578762 0
M  V30 32 H -0.188230 -3.189027 -1.897473 0
M  V30 33 H 0.481036 -2.207544 -0.492564 0
M  V30 34 H 1.805651 -1.945831 -2.487800 0
M  V30 35 H 2.068645 -3.765340 -2.593519 0
M  V30 36 H 2.215578 -1.595171 0.390606 0
M  V30 37 H 3.915644 -2.004503 0.609040 0
M  V30 38 H 2.893469 -0.228143 -1.721441 0
M  V30 39 H 4.563495 -0.593866 -1.253068 0
M  V30 40 H 4.417047 0.396844 0.874723 0
M  V30 41 H 4.022155 1.571656 -0.429049 0
M  V30 42 H 2.369381 0.868253 1.896943 0
M  V30 43 H 0.561502 1.222662 2.804885 0
M  V30 44 H -5.900431 2.612547 4.370841 0
M  V30 45 H -7.464692 3.130564 2.462419 0
M  V30 46 H -6.587804 3.106658 0.179009 0
M  V30 47 H -4.198555 2.585953 -0.300598 0
M  V30 48 H 3.336622 -3.866179 0.775698 0
M  V30 49 H 4.092642 -4.668615 -0.605846 0
M  V30 50 H 2.054627 -5.886170 0.215877 0
M  V30 51 H 1.989385 -5.474099 -1.500893 0
M  V30 END ATOM
M  V30 BEGIN BOND
M  V30 1 1 1 2
M  V30 2 1 2 3
M  V30 3 1 3 4
M  V30 4 1 4 5
M  V30 5 1 5 6
M  V30 6 1 6 7
M  V30 7 1 7 8
M  V30 8 1 8 9
M  V30 9 1 9 10
M  V30 10 2 10 11
M  V30 11 1 10 12
M  V30 12 2 12 13
M  V30 13 1 13 14
M  V30 14 2 14 15
M  V30 15 1 15 16
M  V30 16 1 15 17
M  V30 17 2 17 18
M  V30 18 1 18 19
M  V30 19 2 19 20
M  V30 20 1 20 21
M  V30 21 2 21 22
M  V30 22 1 22 23
M  V30 23 2 23 24
M  V30 24 1 24 25
M  V30 25 1 5 26
M  V30 26 1 26 27
M  V30 27 1 27 2
M  V30 28 1 25 12
M  V30 29 1 24 14
M  V30 30 1 23 18
M  V30 31 1 1 28
M  V30 32 1 1 29
M  V30 33 1 1 30
M  V30 34 1 2 31
M  V30 35 1 3 32
M  V30 36 1 3 33
M  V30 37 1 4 34
M  V30 38 1 4 35
M  V30 39 1 6 36
M  V30 40 1 6 37
M  V30 41 1 7 38
M  V30 42 1 7 39
M  V30 43 1 8 40
M  V30 44 1 8 41
M  V30 45 1 9 42
M  V30 46 1 13 43
M  V30 47 1 19 44
M  V30 48 1 20 45
M  V30 49 1 21 46
M  V30 50 1 22 47
M  V30 51 1 26 48
M  V30 52 1 26 49
M  V30 53 1 27 50
M  V30 54 1 27 51
M  V30 END BOND
M  V30 END CTAB
M  END
>  <Dataset>  (489) 
ChEMBL_Kinases

>  <Ligand_Instance>  (489) 
nan

>  <PDB_ID>  (489) 
nan

>  <Standardized_SMILES>  (489) 
CC1CCN(CCCNC(=O)c2cc3c(Cl)nc4ccccc4c3s2)CC1

>  <Name>  (489) 
nan

>  <Pocket>  (489) 
nan

>  <ATP_Site>  (489) 
nan

>  <Peripheral>  (489) 
nan

>  <Num_H_Atoms_ProtBoundConf>  (489) 
nan

>  <Num_Resolved_Atoms>  (489) 
nan

>  <Num_Not_Resolved_Atoms>  (489) 
nan

$$$$
CHEMBL156172
     RDKit          3D

  0  0  0  0  0  0  0  0  0  0999 V3000
M  V30 BEGIN CTAB
M  V30 COUNTS 57 62 0 0 0
M  V30 BEGIN ATOM
M  V30 1 C 2.951452 -2.978308 2.784817 0
M  V30 2 N 2.986150 -1.685572 3.300576 0
M  V30 3 C 3.860790 -1.612412 4.452324 0
M  V30 4 C 3.066481 -0.529719 2.549452 0
M  V30 5 C 1.993010 0.016592 1.720176 0
M  V30 6 O 0.811933 0.360870 2.331857 0
M  V30 7 C 1.821915 -0.703659 0.382656 0
M  V30 8 N 0.800523 -0.128357 -0.403314 0
M  V30 9 C 1.163742 0.960688 -1.165985 0
M  V30 10 C 2.407737 1.620060 -1.320319 0
M  V30 11 C 2.684697 2.708465 -2.103968 0
M  V30 12 C 1.617280 3.190324 -2.805407 0
M  V30 13 C 0.399325 2.576671 -2.679767 0
M  V30 14 C 0.114497 1.488896 -1.898611 0
M  V30 15 C -0.953393 0.692918 -1.579437 0
M  V30 16 C -2.251262 0.765070 -2.012879 0
M  V30 17 C -3.154331 -0.156864 -1.536951 0
M  V30 18 C -2.703277 -1.105702 -0.650878 0
M  V30 19 C -3.399519 -2.120294 -0.065302 0
M  V30 20 C -4.662872 -2.625830 -0.036027 0
M  V30 21 C -5.090431 -3.712470 0.684090 0
M  V30 22 C -4.188394 -4.394075 1.471864 0
M  V30 23 C -2.915154 -3.886126 1.443394 0
M  V30 24 C -2.474184 -2.782627 0.714040 0
M  V30 25 N -1.257700 -2.190630 0.605129 0
M  V30 26 C -0.180060 -2.790586 1.333795 0
M  V30 27 C -1.391228 -1.161544 -0.228286 0
M  V30 28 C -0.492588 -0.260955 -0.682979 0
M  V30 29 C -4.433787 0.150322 -2.150207 0
M  V30 30 O -5.564113 -0.368359 -2.061233 0
M  V30 31 N -4.329201 1.276912 -3.019446 0
M  V30 32 C -2.958934 1.646487 -2.920191 0
M  V30 33 O -2.621537 2.630540 -3.608667 0
M  V30 34 H 3.702334 -3.599216 3.391168 0
M  V30 35 H 2.024805 -3.573429 2.905841 0
M  V30 36 H 3.402533 -3.076036 1.751586 0
M  V30 37 H 4.919734 -1.854700 4.142019 0
M  V30 38 H 3.921583 -0.601628 4.891047 0
M  V30 39 H 3.633848 -2.396779 5.222190 0
M  V30 40 H 4.012990 -0.507346 1.887186 0
M  V30 41 H 3.355803 0.308979 3.289828 0
M  V30 42 H 2.394555 1.046378 1.367122 0
M  V30 43 H 1.027390 0.951443 3.072978 0
M  V30 44 H 1.931977 -1.744550 0.530318 0
M  V30 45 H 2.828541 -0.511659 -0.189693 0
M  V30 46 H 3.334185 1.301672 -0.793179 0
M  V30 47 H 3.650633 3.171237 -2.184597 0
M  V30 48 H 1.758021 4.051998 -3.449304 0
M  V30 49 H -0.360329 3.028764 -3.266644 0
M  V30 50 H -5.440420 -2.182002 -0.603695 0
M  V30 51 H -6.115799 -4.056145 0.656634 0
M  V30 52 H -4.514382 -5.248006 2.040555 0
M  V30 53 H -2.271676 -4.492622 2.099472 0
M  V30 54 H 0.263429 -2.167667 2.108446 0
M  V30 55 H 0.551315 -3.287771 0.641659 0
M  V30 56 H -0.505508 -3.694318 1.938271 0
M  V30 57 H -5.101117 1.728920 -3.602435 0
M  V30 END ATOM
M  V30 BEGIN BOND
M  V30 1 1 1 2
M  V30 2 1 2 3
M  V30 3 1 2 4
M  V30 4 1 4 5
M  V30 5 1 5 6
M  V30 6 1 5 7
M  V30 7 1 7 8
M  V30 8 1 8 9
M  V30 9 2 9 10
M  V30 10 1 10 11
M  V30 11 2 11 12
M  V30 12 1 12 13
M  V30 13 2 13 14
M  V30 14 1 14 15
M  V30 15 2 15 16
M  V30 16 1 16 17
M  V30 17 2 17 18
M  V30 18 1 18 19
M  V30 19 2 19 20
M  V30 20 1 20 21
M  V30 21 2 21 22
M  V30 22 1 22 23
M  V30 23 2 23 24
M  V30 24 1 24 25
M  V30 25 1 25 26
M  V30 26 1 25 27
M  V30 27 2 27 28
M  V30 28 1 17 29
M  V30 29 2 29 30
M  V30 30 1 29 31
M  V30 31 1 31 32
M  V30 32 2 32 33
M  V30 33 1 28 8
M  V30 34 1 14 9
M  V30 35 1 28 15
M  V30 36 1 32 16
M  V30 37 1 27 18
M  V30 38 1 24 19
M  V30 39 1 1 34
M  V30 40 1 1 35
M  V30 41 1 1 36
M  V30 42 1 3 37
M  V30 43 1 3 38
M  V30 44 1 3 39
M  V30 45 1 4 40
M  V30 46 1 4 41
M  V30 47 1 5 42
M  V30 48 1 6 43
M  V30 49 1 7 44
M  V30 50 1 7 45
M  V30 51 1 10 46
M  V30 52 1 11 47
M  V30 53 1 12 48
M  V30 54 1 13 49
M  V30 55 1 20 50
M  V30 56 1 21 51
M  V30 57 1 22 52
M  V30 58 1 23 53
M  V30 59 1 26 54
M  V30 60 1 26 55
M  V30 61 1 26 56
M  V30 62 1 31 57
M  V30 END BOND
M  V30 END CTAB
M  END
>  <Dataset>  (490) 
ChEMBL_Kinases

>  <Ligand_Instance>  (490) 
nan

>  <PDB_ID>  (490) 
nan

>  <Standardized_SMILES>  (490) 
CN(C)CC(O)Cn1c2ccccc2c2c3c(c4c5ccccc5n(C)c4c21)C(=O)NC3=O

>  <Name>  (490) 
nan

>  <Pocket>  (490) 
nan

>  <ATP_Site>  (490) 
nan

>  <Peripheral>  (490) 
nan

>  <Num_H_Atoms_ProtBoundConf>  (490) 
nan

>  <Num_Resolved_Atoms>  (490) 
nan

>  <Num_Not_Resolved_Atoms>  (490) 
nan

$$$$
CHEMBL1527084
     RDKit          3D

  0  0  0  0  0  0  0  0  0  0999 V3000
M  V30 BEGIN CTAB
M  V30 COUNTS 55 58 0 0 0
M  V30 BEGIN ATOM
M  V30 1 C 1.900425 1.793610 6.463642 0
M  V30 2 C 1.726288 0.294625 6.354661 0
M  V30 3 C 0.666967 -0.090003 7.397053 0
M  V30 4 C 1.251923 -0.046483 4.988220 0
M  V30 5 C 1.861657 -0.944589 4.135399 0
M  V30 6 C 1.332118 -1.193927 2.871295 0
M  V30 7 C 0.187494 -0.545590 2.451314 0
M  V30 8 N -0.187535 -0.939547 1.138758 0
M  V30 9 C 0.307930 -0.232956 0.012220 0
M  V30 10 O 1.074797 0.722177 0.330796 0
M  V30 11 C 0.122283 -0.372444 -1.450749 0
M  V30 12 C -0.580665 0.864381 -1.968081 0
M  V30 13 C -0.950935 0.680818 -3.291871 0
M  V30 14 C -1.623130 1.663406 -4.026341 0
M  V30 15 C -1.936974 2.870070 -3.420954 0
M  V30 16 C -1.558765 3.022794 -2.112589 0
M  V30 17 C -0.900237 2.065020 -1.386454 0
M  V30 18 N -0.690677 -1.497089 -1.842774 0
M  V30 19 C -2.101550 -1.571638 -1.464799 0
M  V30 20 C -2.408199 -2.985052 -1.146282 0
M  V30 21 O -3.130602 -3.178976 -0.114974 0
M  V30 22 N -1.961095 -4.101760 -1.895305 0
M  V30 23 C -0.775309 -3.859456 -2.673408 0
M  V30 24 C -0.267971 -4.879604 -3.431839 0
M  V30 25 C 0.858136 -4.691649 -4.188224 0
M  V30 26 C 1.443002 -3.444681 -4.146837 0
M  V30 27 C 0.899477 -2.446826 -3.370317 0
M  V30 28 C -0.220506 -2.599580 -2.604511 0
M  V30 29 C -0.432569 0.355490 3.294089 0
M  V30 30 C 0.094070 0.600672 4.545812 0
M  V30 31 H 2.482587 2.188438 5.608012 0
M  V30 32 H 0.880515 2.235554 6.542588 0
M  V30 33 H 2.391039 2.034209 7.446430 0
M  V30 34 H 2.648602 -0.266152 6.601629 0
M  V30 35 H 0.942479 0.256823 8.392289 0
M  V30 36 H -0.344453 0.244375 7.062607 0
M  V30 37 H 0.631485 -1.206679 7.401363 0
M  V30 38 H 2.760839 -1.439420 4.492307 0
M  V30 39 H 1.905527 -1.919537 2.300805 0
M  V30 40 H -0.812447 -1.726963 0.863142 0
M  V30 41 H 1.109179 -0.420814 -1.944549 0
M  V30 42 H -0.798286 -0.190002 -3.944051 0
M  V30 43 H -1.939626 1.588085 -5.053659 0
M  V30 44 H -2.452548 3.699961 -3.889243 0
M  V30 45 H -1.767599 3.929320 -1.578898 0
M  V30 46 H -0.577268 2.113323 -0.360095 0
M  V30 47 H -2.713237 -1.343816 -2.390252 0
M  V30 48 H -2.396928 -0.876328 -0.688793 0
M  V30 49 H -2.473443 -5.012194 -1.862767 0
M  V30 50 H -0.787946 -5.845255 -3.414298 0
M  V30 51 H 1.191193 -5.545303 -4.755215 0
M  V30 52 H 2.339283 -3.330702 -4.762128 0
M  V30 53 H 1.459642 -1.529447 -3.442909 0
M  V30 54 H -1.314113 0.805223 2.873802 0
M  V30 55 H -0.419239 1.305156 5.162179 0
M  V30 END ATOM
M  V30 BEGIN BOND
M  V30 1 1 1 2
M  V30 2 1 2 3
M  V30 3 1 2 4
M  V30 4 2 4 5
M  V30 5 1 5 6
M  V30 6 2 6 7
M  V30 7 1 7 8
M  V30 8 1 8 9
M  V30 9 2 9 10
M  V30 10 1 9 11
M  V30 11 1 11 12
M  V30 12 2 12 13
M  V30 13 1 13 14
M  V30 14 2 14 15
M  V30 15 1 15 16
M  V30 16 2 16 17
M  V30 17 1 11 18
M  V30 18 1 18 19
M  V30 19 1 19 20
M  V30 20 2 20 21
M  V30 21 1 20 22
M  V30 22 1 22 23
M  V30 23 2 23 24
M  V30 24 1 24 25
M  V30 25 2 25 26
M  V30 26 1 26 27
M  V30 27 2 27 28
M  V30 28 1 7 29
M  V30 29 2 29 30
M  V30 30 1 30 4
M  V30 31 1 17 12
M  V30 32 1 28 18
M  V30 33 1 28 23
M  V30 34 1 1 31
M  V30 35 1 1 32
M  V30 36 1 1 33
M  V30 37 1 2 34
M  V30 38 1 3 35
M  V30 39 1 3 36
M  V30 40 1 3 37
M  V30 41 1 5 38
M  V30 42 1 6 39
M  V30 43 1 8 40
M  V30 44 1 11 41
M  V30 45 1 13 42
M  V30 46 1 14 43
M  V30 47 1 15 44
M  V30 48 1 16 45
M  V30 49 1 17 46
M  V30 50 1 19 47
M  V30 51 1 19 48
M  V30 52 1 22 49
M  V30 53 1 24 50
M  V30 54 1 25 51
M  V30 55 1 26 52
M  V30 56 1 27 53
M  V30 57 1 29 54
M  V30 58 1 30 55
M  V30 END BOND
M  V30 END CTAB
M  END
>  <Dataset>  (491) 
ChEMBL_Kinases

>  <Ligand_Instance>  (491) 
nan

>  <PDB_ID>  (491) 
nan

>  <Standardized_SMILES>  (491) 
CC(C)c1ccc(NC(=O)C(c2ccccc2)N2CC(=O)Nc3ccccc32)cc1

>  <Name>  (491) 
nan

>  <Pocket>  (491) 
nan

>  <ATP_Site>  (491) 
nan

>  <Peripheral>  (491) 
nan

>  <Num_H_Atoms_ProtBoundConf>  (491) 
nan

>  <Num_Resolved_Atoms>  (491) 
nan

>  <Num_Not_Resolved_Atoms>  (491) 
nan

$$$$
CHEMBL1527083
     RDKit          3D

  0  0  0  0  0  0  0  0  0  0999 V3000
M  V30 BEGIN CTAB
M  V30 COUNTS 32 33 0 0 0
M  V30 BEGIN ATOM
M  V30 1 O -0.611191 -2.915374 4.881922 0
M  V30 2 C -1.362000 -3.384179 3.953860 0
M  V30 3 O -2.162335 -3.886574 4.953455 0
M  V30 4 C -0.751693 -2.997445 2.678738 0
M  V30 5 C -0.364472 -1.538561 2.787598 0
M  V30 6 C 0.312733 -1.019863 1.529548 0
M  V30 7 C -0.618566 -1.203412 0.390133 0
M  V30 8 C -0.143074 -0.752049 -0.951953 0
M  V30 9 S 1.388148 -1.604554 -1.487358 0
M  V30 10 C 2.269245 -0.081259 -2.069202 0
M  V30 11 C 1.681486 0.872236 -1.111687 0
M  V30 12 N 1.671988 2.272545 -1.479362 0
M  V30 13 C 0.587275 2.790631 -0.665283 0
M  V30 14 O 0.162463 3.918276 -0.227961 0
M  V30 15 N -0.222900 1.655885 -0.249027 0
M  V30 16 C 0.190327 0.633160 -1.188875 0
M  V30 17 H -2.958297 -3.372611 5.370261 0
M  V30 18 H 0.153530 -3.600341 2.436214 0
M  V30 19 H -1.515647 -3.140730 1.891087 0
M  V30 20 H 0.267936 -1.346666 3.661158 0
M  V30 21 H -1.329638 -0.985988 2.968546 0
M  V30 22 H 1.237352 -1.651174 1.417281 0
M  V30 23 H 0.669354 0.016354 1.661223 0
M  V30 24 H -0.771473 -2.327743 0.266260 0
M  V30 25 H -1.635017 -0.830339 0.595662 0
M  V30 26 H -0.917105 -1.065260 -1.732971 0
M  V30 27 H 2.034223 0.129364 -3.112019 0
M  V30 28 H 3.357808 -0.199085 -1.871443 0
M  V30 29 H 2.092177 0.796033 -0.095997 0
M  V30 30 H 2.065395 3.071903 -2.050086 0
M  V30 31 H -0.929995 1.411270 0.456003 0
M  V30 32 H -0.150150 0.991251 -2.198351 0
M  V30 END ATOM
M  V30 BEGIN BOND
M  V30 1 2 1 2
M  V30 2 1 2 3
M  V30 3 1 2 4
M  V30 4 1 4 5
M  V30 5 1 5 6
M  V30 6 1 6 7
M  V30 7 1 7 8
M  V30 8 1 8 9
M  V30 9 1 9 10
M  V30 10 1 10 11
M  V30 11 1 11 12
M  V30 12 1 12 13
M  V30 13 2 13 14
M  V30 14 1 13 15
M  V30 15 1 15 16
M  V30 16 1 16 8
M  V30 17 1 16 11
M  V30 18 1 3 17
M  V30 19 1 4 18
M  V30 20 1 4 19
M  V30 21 1 5 20
M  V30 22 1 5 21
M  V30 23 1 6 22
M  V30 24 1 6 23
M  V30 25 1 7 24
M  V30 26 1 7 25
M  V30 27 1 8 26
M  V30 28 1 10 27
M  V30 29 1 10 28
M  V30 30 1 11 29
M  V30 31 1 12 30
M  V30 32 1 15 31
M  V30 33 1 16 32
M  V30 END BOND
M  V30 END CTAB
M  END
>  <Dataset>  (492) 
ChEMBL_Kinases

>  <Ligand_Instance>  (492) 
nan

>  <PDB_ID>  (492) 
nan

>  <Standardized_SMILES>  (492) 
O=C(O)CCCCC1SCC2NC(=O)NC21

>  <Name>  (492) 
nan

>  <Pocket>  (492) 
nan

>  <ATP_Site>  (492) 
nan

>  <Peripheral>  (492) 
nan

>  <Num_H_Atoms_ProtBoundConf>  (492) 
nan

>  <Num_Resolved_Atoms>  (492) 
nan

>  <Num_Not_Resolved_Atoms>  (492) 
nan

$$$$
CHEMBL1527065
     RDKit          3D

  0  0  0  0  0  0  0  0  0  0999 V3000
M  V30 BEGIN CTAB
M  V30 COUNTS 40 42 0 0 0
M  V30 BEGIN ATOM
M  V30 1 C 0.120150 -6.080462 0.924081 0
M  V30 2 C 0.151719 -5.107849 2.079597 0
M  V30 3 C -0.959948 -4.092333 1.910347 0
M  V30 4 N -0.770470 -3.374195 0.665263 0
M  V30 5 C -0.039726 -2.239459 0.630537 0
M  V30 6 C -0.043103 -1.793139 -0.686090 0
M  V30 7 N 0.531893 -0.668691 -1.388504 0
M  V30 8 C -0.297679 0.486604 -1.439242 0
M  V30 9 O -1.439041 0.403062 -0.868090 0
M  V30 10 C 0.271075 1.656440 -2.156094 0
M  V30 11 C 1.289704 2.284257 -1.203666 0
M  V30 12 C 0.319348 2.805548 -0.174836 0
M  V30 13 C 0.687407 2.949194 1.233699 0
M  V30 14 C 1.952568 2.617625 1.726349 0
M  V30 15 C 2.242168 2.774976 3.068191 0
M  V30 16 C 1.253493 3.264246 3.896007 0
M  V30 17 C -0.010374 3.607347 3.466408 0
M  V30 18 Br -1.295622 4.273942 4.703519 0
M  V30 19 C -0.242258 3.430509 2.124066 0
M  V30 20 N -0.785930 3.060236 -0.789673 0
M  V30 21 O -0.651753 2.758380 -2.142716 0
M  V30 22 C -0.795902 -2.697234 -1.422737 0
M  V30 23 N -1.214159 -3.636726 -0.557211 0
M  V30 24 H -0.905870 -6.271906 0.571924 0
M  V30 25 H 0.583851 -7.051416 1.212307 0
M  V30 26 H 0.723165 -5.674602 0.071594 0
M  V30 27 H 1.123985 -4.582976 2.130852 0
M  V30 28 H -0.079266 -5.688732 2.997667 0
M  V30 29 H -1.058176 -3.431962 2.774162 0
M  V30 30 H -1.903006 -4.684180 1.782011 0
M  V30 31 H 0.491233 -1.672404 1.356041 0
M  V30 32 H 1.486765 -0.683490 -1.833917 0
M  V30 33 H 0.676724 1.441733 -3.141200 0
M  V30 34 H 1.727413 3.182035 -1.683462 0
M  V30 35 H 2.011401 1.581529 -0.804100 0
M  V30 36 H 2.698292 2.232905 1.019307 0
M  V30 37 H 3.231344 2.507824 3.411665 0
M  V30 38 H 1.466398 3.395368 4.963773 0
M  V30 39 H -1.233792 3.691853 1.745819 0
M  V30 40 H -1.110543 -2.822302 -2.467817 0
M  V30 END ATOM
M  V30 BEGIN BOND
M  V30 1 1 1 2
M  V30 2 1 2 3
M  V30 3 1 3 4
M  V30 4 1 4 5
M  V30 5 2 5 6
M  V30 6 1 6 7
M  V30 7 1 7 8
M  V30 8 2 8 9
M  V30 9 1 8 10
M  V30 10 1 10 11
M  V30 11 1 11 12
M  V30 12 1 12 13
M  V30 13 2 13 14
M  V30 14 1 14 15
M  V30 15 2 15 16
M  V30 16 1 16 17
M  V30 17 1 17 18
M  V30 18 2 17 19
M  V30 19 2 12 20
M  V30 20 1 20 21
M  V30 21 1 6 22
M  V30 22 2 22 23
M  V30 23 1 23 4
M  V30 24 1 21 10
M  V30 25 1 19 13
M  V30 26 1 1 24
M  V30 27 1 1 25
M  V30 28 1 1 26
M  V30 29 1 2 27
M  V30 30 1 2 28
M  V30 31 1 3 29
M  V30 32 1 3 30
M  V30 33 1 5 31
M  V30 34 1 7 32
M  V30 35 1 10 33
M  V30 36 1 11 34
M  V30 37 1 11 35
M  V30 38 1 14 36
M  V30 39 1 15 37
M  V30 40 1 16 38
M  V30 41 1 19 39
M  V30 42 1 22 40
M  V30 END BOND
M  V30 END CTAB
M  END
>  <Dataset>  (493) 
ChEMBL_Kinases

>  <Ligand_Instance>  (493) 
nan

>  <PDB_ID>  (493) 
nan

>  <Standardized_SMILES>  (493) 
CCCn1cc(NC(=O)C2CC(c3cccc(Br)c3)=NO2)cn1

>  <Name>  (493) 
nan

>  <Pocket>  (493) 
nan

>  <ATP_Site>  (493) 
nan

>  <Peripheral>  (493) 
nan

>  <Num_H_Atoms_ProtBoundConf>  (493) 
nan

>  <Num_Resolved_Atoms>  (493) 
nan

>  <Num_Not_Resolved_Atoms>  (493) 
nan

$$$$
CHEMBL1526964
     RDKit          3D

  0  0  0  0  0  0  0  0  0  0999 V3000
M  V30 BEGIN CTAB
M  V30 COUNTS 55 61 0 0 0
M  V30 BEGIN ATOM
M  V30 1 N -4.902631 -0.512511 0.424720 0
M  V30 2 C -3.580745 -0.049117 0.178867 0
M  V30 3 C -2.514364 -0.669561 0.797563 0
M  V30 4 C -1.207025 -0.254868 0.590251 0
M  V30 5 C -0.971796 0.811088 -0.261668 0
M  V30 6 N 0.297317 1.214680 -0.463771 0
M  V30 7 C 1.359698 0.629355 0.125646 0
M  V30 8 C 2.644754 1.092357 -0.123649 0
M  V30 9 C 2.826809 2.158290 -0.980973 0
M  V30 10 C 4.128537 2.581258 -1.195664 0
M  V30 11 C 5.157663 1.933066 -0.557973 0
M  V30 12 C 4.994895 0.866934 0.301483 0
M  V30 13 C 3.678733 0.445577 0.513374 0
M  V30 14 C 3.434530 -0.624221 1.367536 0
M  V30 15 N 4.562028 -1.231546 1.981679 0
M  V30 16 C 2.157371 -1.084510 1.615409 0
M  V30 17 C 1.114483 -0.439122 0.978620 0
M  V30 18 N -0.149365 -0.848612 1.186108 0 CHG=1 VAL=4
M  V30 19 C -0.470652 -1.924138 2.037091 0
M  V30 20 C -0.728799 -1.902316 3.384108 0
M  V30 21 C -1.032028 -3.043982 4.092517 0
M  V30 22 C -1.090619 -4.288673 3.462744 0
M  V30 23 C -0.830587 -4.313505 2.103734 0
M  V30 24 C -0.891865 -5.552963 1.491731 0
M  V30 25 C -0.642268 -5.643913 0.137037 0
M  V30 26 C -0.335750 -4.524230 -0.604774 0
M  V30 27 C -0.284983 -3.312220 0.040865 0
M  V30 28 C -0.523230 -3.156218 1.385753 0
M  V30 29 C -2.024124 1.445749 -0.890613 0
M  V30 30 C -1.705353 2.504745 -1.728293 0
M  V30 31 C -2.760489 3.135366 -2.354208 0
M  V30 32 C -4.050708 2.701198 -2.129137 0
M  V30 33 C -4.359889 1.645914 -1.293530 0
M  V30 34 C -3.309485 1.009441 -0.663296 0
M  V30 35 H -5.547276 -1.097476 -0.171726 0
M  V30 36 H -5.128185 -0.137668 1.372443 0
M  V30 37 H -2.662615 -1.503848 1.468015 0
M  V30 38 H 1.940570 2.587670 -1.424246 0
M  V30 39 H 4.267463 3.417652 -1.868789 0
M  V30 40 H 6.156243 2.284335 -0.744677 0
M  V30 41 H 5.813823 0.367484 0.795494 0
M  V30 42 H 5.137994 -1.195333 2.849087 0
M  V30 43 H 4.637523 -0.725315 2.896830 0
M  V30 44 H 1.957863 -1.901809 2.266650 0
M  V30 45 H -0.675505 -0.926080 3.840157 0
M  V30 46 H -1.229516 -2.984992 5.154769 0
M  V30 47 H -1.325819 -5.195396 3.996435 0
M  V30 48 H -1.125444 -6.474567 2.005819 0
M  V30 49 H -0.661301 -6.563040 -0.452902 0
M  V30 50 H -0.133671 -4.551906 -1.667174 0
M  V30 51 H -0.045952 -2.427222 -0.528720 0
M  V30 52 H -0.674537 2.803541 -1.868589 0
M  V30 53 H -2.501788 3.959111 -3.004742 0
M  V30 54 H -4.870017 3.214283 -2.634368 0
M  V30 55 H -5.374833 1.310852 -1.121805 0
M  V30 END ATOM
M  V30 BEGIN BOND
M  V30 1 1 1 2
M  V30 2 2 2 3
M  V30 3 1 3 4
M  V30 4 2 4 5
M  V30 5 1 5 6
M  V30 6 2 6 7
M  V30 7 1 7 8
M  V30 8 2 8 9
M  V30 9 1 9 10
M  V30 10 2 10 11
M  V30 11 1 11 12
M  V30 12 2 12 13
M  V30 13 1 13 14
M  V30 14 1 14 15
M  V30 15 2 14 16
M  V30 16 1 16 17
M  V30 17 2 17 18
M  V30 18 1 18 19
M  V30 19 2 19 20
M  V30 20 1 20 21
M  V30 21 2 21 22
M  V30 22 1 22 23
M  V30 23 2 23 24
M  V30 24 1 24 25
M  V30 25 2 25 26
M  V30 26 1 26 27
M  V30 27 2 27 28
M  V30 28 1 5 29
M  V30 29 2 29 30
M  V30 30 1 30 31
M  V30 31 2 31 32
M  V30 32 1 32 33
M  V30 33 2 33 34
M  V30 34 1 34 2
M  V30 35 1 18 4
M  V30 36 1 28 19
M  V30 37 1 34 29
M  V30 38 1 17 7
M  V30 39 1 28 23
M  V30 40 1 13 8
M  V30 41 1 1 35
M  V30 42 1 1 36
M  V30 43 1 3 37
M  V30 44 1 9 38
M  V30 45 1 10 39
M  V30 46 1 11 40
M  V30 47 1 12 41
M  V30 48 1 15 42
M  V30 49 1 15 43
M  V30 50 1 16 44
M  V30 51 1 20 45
M  V30 52 1 21 46
M  V30 53 1 22 47
M  V30 54 1 24 48
M  V30 55 1 25 49
M  V30 56 1 26 50
M  V30 57 1 27 51
M  V30 58 1 30 52
M  V30 59 1 31 53
M  V30 60 1 32 54
M  V30 61 1 33 55
M  V30 END BOND
M  V30 END CTAB
M  END
>  <Dataset>  (494) 
ChEMBL_Kinases

>  <Ligand_Instance>  (494) 
nan

>  <PDB_ID>  (494) 
nan

>  <Standardized_SMILES>  (494) 
Nc1cc2c(nc3c4ccccc4c(N)cc3[n+]2-c2cccc3ccccc23)c2ccccc12

>  <Name>  (494) 
nan

>  <Pocket>  (494) 
nan

>  <ATP_Site>  (494) 
nan

>  <Peripheral>  (494) 
nan

>  <Num_H_Atoms_ProtBoundConf>  (494) 
nan

>  <Num_Resolved_Atoms>  (494) 
nan

>  <Num_Not_Resolved_Atoms>  (494) 
nan

$$$$
CHEMBL1526962
     RDKit          3D

  0  0  0  0  0  0  0  0  0  0999 V3000
M  V30 BEGIN CTAB
M  V30 COUNTS 44 47 0 0 0
M  V30 BEGIN ATOM
M  V30 1 C 2.173333 -5.796940 -0.687408 0
M  V30 2 C 1.663985 -4.603675 -1.405462 0
M  V30 3 C 0.696528 -4.725901 -2.359189 0
M  V30 4 C 0.202024 -3.632099 -3.045209 0
M  V30 5 C 0.733360 -2.397768 -2.721825 0
M  V30 6 C 1.715789 -2.213211 -1.763719 0
M  V30 7 C 2.210764 -0.863781 -1.496765 0
M  V30 8 N 1.422867 -0.235670 -0.453528 0
M  V30 9 C 1.814562 1.093394 -0.103768 0
M  V30 10 N 2.824597 1.737938 -0.673989 0
M  V30 11 C 3.230835 2.969461 -0.388884 0
M  V30 12 N 2.590634 3.680942 0.565164 0
M  V30 13 C 1.534783 3.118182 1.219988 0
M  V30 14 C 0.882840 3.836351 2.188132 0
M  V30 15 C -0.195038 3.273316 2.862649 0
M  V30 16 C -0.598125 1.974611 2.539147 0
M  V30 17 C -1.728298 1.370578 3.239062 0
M  V30 18 C -1.473894 0.060261 3.631196 0
M  V30 19 C -2.424231 -0.666927 4.303054 0
M  V30 20 C -3.647089 -0.109564 4.600110 0
M  V30 21 C -3.876397 1.192591 4.200634 0
M  V30 22 C -2.936237 1.936516 3.526651 0
M  V30 23 Cl -3.148524 3.582416 2.989455 0
M  V30 24 C 0.111134 1.322008 1.553987 0
M  V30 25 C 1.180119 1.842412 0.864939 0
M  V30 26 C 2.152177 -3.359653 -1.127210 0
M  V30 27 H 2.874759 -6.310319 -1.403849 0
M  V30 28 H 2.726851 -5.502737 0.222651 0
M  V30 29 H 1.346491 -6.461597 -0.386229 0
M  V30 30 H 0.280556 -5.703732 -2.610388 0
M  V30 31 H -0.562055 -3.699138 -3.803525 0
M  V30 32 H 0.354594 -1.540692 -3.250605 0
M  V30 33 H 3.282665 -0.855198 -1.205596 0
M  V30 34 H 2.164165 -0.237639 -2.421076 0
M  V30 35 H 0.658249 -0.764266 -0.043284 0
M  V30 36 H 4.070625 3.346655 -0.946978 0
M  V30 37 H 1.203023 4.854143 2.437804 0
M  V30 38 H -0.690065 3.859928 3.619631 0
M  V30 39 H -0.552646 -0.478117 3.452436 0
M  V30 40 H -2.290266 -1.687570 4.635210 0
M  V30 41 H -4.429347 -0.632272 5.124306 0
M  V30 42 H -4.825091 1.687788 4.407208 0
M  V30 43 H -0.253785 0.327178 1.356837 0
M  V30 44 H 2.926662 -3.259024 -0.364182 0
M  V30 END ATOM
M  V30 BEGIN BOND
M  V30 1 1 1 2
M  V30 2 2 2 3
M  V30 3 1 3 4
M  V30 4 2 4 5
M  V30 5 1 5 6
M  V30 6 1 6 7
M  V30 7 1 7 8
M  V30 8 1 8 9
M  V30 9 2 9 10
M  V30 10 1 10 11
M  V30 11 2 11 12
M  V30 12 1 12 13
M  V30 13 2 13 14
M  V30 14 1 14 15
M  V30 15 2 15 16
M  V30 16 1 16 17
M  V30 17 2 17 18
M  V30 18 1 18 19
M  V30 19 2 19 20
M  V30 20 1 20 21
M  V30 21 2 21 22
M  V30 22 1 22 23
M  V30 23 1 16 24
M  V30 24 2 24 25
M  V30 25 2 6 26
M  V30 26 1 26 2
M  V30 27 1 25 9
M  V30 28 1 25 13
M  V30 29 1 22 17
M  V30 30 1 1 27
M  V30 31 1 1 28
M  V30 32 1 1 29
M  V30 33 1 3 30
M  V30 34 1 4 31
M  V30 35 1 5 32
M  V30 36 1 7 33
M  V30 37 1 7 34
M  V30 38 1 8 35
M  V30 39 1 11 36
M  V30 40 1 14 37
M  V30 41 1 15 38
M  V30 42 1 18 39
M  V30 43 1 19 40
M  V30 44 1 20 41
M  V30 45 1 21 42
M  V30 46 1 24 43
M  V30 47 1 26 44
M  V30 END BOND
M  V30 END CTAB
M  END
>  <Dataset>  (495) 
ChEMBL_Kinases

>  <Ligand_Instance>  (495) 
nan

>  <PDB_ID>  (495) 
nan

>  <Standardized_SMILES>  (495) 
Cc1cccc(CNc2ncnc3ccc(-c4ccccc4Cl)cc23)c1

>  <Name>  (495) 
nan

>  <Pocket>  (495) 
nan

>  <ATP_Site>  (495) 
nan

>  <Peripheral>  (495) 
nan

>  <Num_H_Atoms_ProtBoundConf>  (495) 
nan

>  <Num_Resolved_Atoms>  (495) 
nan

>  <Num_Not_Resolved_Atoms>  (495) 
nan

$$$$
CHEMBL1526928
     RDKit          3D

  0  0  0  0  0  0  0  0  0  0999 V3000
M  V30 BEGIN CTAB
M  V30 COUNTS 41 44 0 0 0
M  V30 BEGIN ATOM
M  V30 1 C 2.613571 -5.424072 2.875151 0
M  V30 2 C 3.232885 -4.232699 3.169390 0
M  V30 3 C 3.215903 -3.155348 2.308194 0
M  V30 4 C 2.551801 -3.268835 1.098030 0
M  V30 5 O 2.546966 -2.172708 0.246127 0
M  V30 6 C 1.543826 -1.207274 0.313798 0
M  V30 7 C 1.574036 -0.134515 -0.548524 0
M  V30 8 C 0.624984 0.865099 -0.551831 0
M  V30 9 C 0.659457 2.001355 -1.467212 0
M  V30 10 C 1.624152 2.218781 -2.426957 0
M  V30 11 C 1.607096 3.311503 -3.266147 0
M  V30 12 C 0.584088 4.228509 -3.144373 0
M  V30 13 C -0.408446 4.061195 -2.200957 0
M  V30 14 C -0.341666 2.945226 -1.384334 0
M  V30 15 N -0.358679 0.733481 0.356441 0
M  V30 16 C -0.435528 -0.287108 1.216222 0
M  V30 17 C -1.542520 -0.343582 2.166786 0
M  V30 18 C -1.653148 -1.383837 3.069615 0
M  V30 19 C -2.694653 -1.438821 3.965387 0
M  V30 20 C -3.636219 -0.415059 3.937029 0
M  V30 21 C -3.498572 0.602590 3.029727 0
M  V30 22 C -2.471293 0.690874 2.119603 0
M  V30 23 N 0.508763 -1.254393 1.198187 0
M  V30 24 C 1.926482 -4.460044 0.791937 0
M  V30 25 C 1.955471 -5.522475 1.665120 0
M  V30 26 H 2.676266 -6.212145 3.603317 0
M  V30 27 H 3.764436 -4.102787 4.107981 0
M  V30 28 H 3.709404 -2.231631 2.562355 0
M  V30 29 H 2.395327 -0.096738 -1.250568 0
M  V30 30 H 2.422062 1.495156 -2.515377 0
M  V30 31 H 2.427736 3.385548 -3.995975 0
M  V30 32 H 0.611063 5.072111 -3.825114 0
M  V30 33 H -1.202798 4.768834 -2.102965 0
M  V30 34 H -1.140882 2.851535 -0.656709 0
M  V30 35 H -0.893335 -2.168864 3.060403 0
M  V30 36 H -2.746489 -2.270625 4.657316 0
M  V30 37 H -4.430121 -0.503137 4.655890 0
M  V30 38 H -4.257763 1.391816 3.035155 0
M  V30 39 H -2.402026 1.512031 1.421716 0
M  V30 40 H 1.433126 -4.488448 -0.150044 0
M  V30 41 H 1.458071 -6.456547 1.411294 0
M  V30 END ATOM
M  V30 BEGIN BOND
M  V30 1 2 1 2
M  V30 2 1 2 3
M  V30 3 2 3 4
M  V30 4 1 4 5
M  V30 5 1 5 6
M  V30 6 2 6 7
M  V30 7 1 7 8
M  V30 8 1 8 9
M  V30 9 2 9 10
M  V30 10 1 10 11
M  V30 11 2 11 12
M  V30 12 1 12 13
M  V30 13 2 13 14
M  V30 14 2 8 15
M  V30 15 1 15 16
M  V30 16 1 16 17
M  V30 17 2 17 18
M  V30 18 1 18 19
M  V30 19 2 19 20
M  V30 20 1 20 21
M  V30 21 2 21 22
M  V30 22 2 16 23
M  V30 23 1 4 24
M  V30 24 2 24 25
M  V30 25 1 25 1
M  V30 26 1 23 6
M  V30 27 1 14 9
M  V30 28 1 22 17
M  V30 29 1 1 26
M  V30 30 1 2 27
M  V30 31 1 3 28
M  V30 32 1 7 29
M  V30 33 1 10 30
M  V30 34 1 11 31
M  V30 35 1 12 32
M  V30 36 1 13 33
M  V30 37 1 14 34
M  V30 38 1 18 35
M  V30 39 1 19 36
M  V30 40 1 20 37
M  V30 41 1 21 38
M  V30 42 1 22 39
M  V30 43 1 24 40
M  V30 44 1 25 41
M  V30 END BOND
M  V30 END CTAB
M  END
>  <Dataset>  (496) 
ChEMBL_Kinases

>  <Ligand_Instance>  (496) 
nan

>  <PDB_ID>  (496) 
nan

>  <Standardized_SMILES>  (496) 
c1ccc(Oc2cc(-c3ccccc3)nc(-c3ccccc3)n2)cc1

>  <Name>  (496) 
nan

>  <Pocket>  (496) 
nan

>  <ATP_Site>  (496) 
nan

>  <Peripheral>  (496) 
nan

>  <Num_H_Atoms_ProtBoundConf>  (496) 
nan

>  <Num_Resolved_Atoms>  (496) 
nan

>  <Num_Not_Resolved_Atoms>  (496) 
nan

$$$$
CHEMBL1526780
     RDKit          3D

  0  0  0  0  0  0  0  0  0  0999 V3000
M  V30 BEGIN CTAB
M  V30 COUNTS 46 47 0 0 0
M  V30 BEGIN ATOM
M  V30 1 C 1.862071 -7.118502 0.496499 0
M  V30 2 C 2.854222 -6.003139 0.613254 0
M  V30 3 C 2.367044 -4.732671 -0.078383 0
M  V30 4 S 3.643346 -3.534016 0.150024 0
M  V30 5 O 3.889594 -3.381661 1.614196 0
M  V30 6 O 4.897250 -4.090461 -0.479657 0
M  V30 7 N 3.301026 -2.010319 -0.557598 0
M  V30 8 C 2.126240 -1.376911 -0.004921 0
M  V30 9 C 1.864329 -0.032207 -0.665212 0
M  V30 10 C 0.632169 0.615653 -0.105423 0
M  V30 11 C 0.575065 1.651035 0.800790 0
M  V30 12 C -0.675104 2.095279 1.178629 0
M  V30 13 C -0.753800 3.128755 2.085992 0
M  V30 14 O 0.412228 3.674756 2.575873 0
M  V30 15 C 0.295769 4.743129 3.516036 0
M  V30 16 C -2.008935 3.562743 2.456714 0
M  V30 17 C -3.162372 2.975858 1.931245 0
M  V30 18 C -3.066919 1.933961 1.016967 0
M  V30 19 O -4.206013 1.351945 0.495758 0
M  V30 20 C -5.511082 1.752564 0.836544 0
M  V30 21 C -1.800783 1.487713 0.636078 0
M  V30 22 N -1.720568 0.478413 -0.246935 0
M  V30 23 C -0.498934 0.009532 -0.645937 0
M  V30 24 O -0.547595 -1.020702 -1.548032 0
M  V30 25 H 1.228090 -7.173249 1.429812 0
M  V30 26 H 2.384560 -8.114482 0.492721 0
M  V30 27 H 1.223536 -6.952620 -0.384906 0
M  V30 28 H 3.833516 -6.301245 0.199960 0
M  V30 29 H 3.056987 -5.755130 1.684650 0
M  V30 30 H 2.199154 -5.019880 -1.136137 0
M  V30 31 H 1.410820 -4.461809 0.380097 0
M  V30 32 H 3.275403 -2.047090 -1.600730 0
M  V30 33 H 1.252172 -2.015981 -0.234574 0
M  V30 34 H 2.216421 -1.273626 1.088572 0
M  V30 35 H 1.812403 -0.109326 -1.755342 0
M  V30 36 H 2.759535 0.612779 -0.440150 0
M  V30 37 H 1.515677 2.026863 1.138831 0
M  V30 38 H 1.271026 5.192155 3.777535 0
M  V30 39 H -0.227350 4.299177 4.396346 0
M  V30 40 H -0.408919 5.498969 3.118958 0
M  V30 41 H -2.112347 4.377466 3.172265 0
M  V30 42 H -4.163472 3.286047 2.195253 0
M  V30 43 H -5.638888 2.811408 0.582320 0
M  V30 44 H -5.642356 1.642212 1.912881 0
M  V30 45 H -6.226191 1.095733 0.277366 0
M  V30 46 H -0.899729 -0.825584 -2.480330 0
M  V30 END ATOM
M  V30 BEGIN BOND
M  V30 1 1 1 2
M  V30 2 1 2 3
M  V30 3 1 3 4
M  V30 4 2 4 5
M  V30 5 2 4 6
M  V30 6 1 4 7
M  V30 7 1 7 8
M  V30 8 1 8 9
M  V30 9 1 9 10
M  V30 10 2 10 11
M  V30 11 1 11 12
M  V30 12 2 12 13
M  V30 13 1 13 14
M  V30 14 1 14 15
M  V30 15 1 13 16
M  V30 16 2 16 17
M  V30 17 1 17 18
M  V30 18 1 18 19
M  V30 19 1 19 20
M  V30 20 2 18 21
M  V30 21 1 21 22
M  V30 22 2 22 23
M  V30 23 1 23 24
M  V30 24 1 23 10
M  V30 25 1 21 12
M  V30 26 1 1 25
M  V30 27 1 1 26
M  V30 28 1 1 27
M  V30 29 1 2 28
M  V30 30 1 2 29
M  V30 31 1 3 30
M  V30 32 1 3 31
M  V30 33 1 7 32
M  V30 34 1 8 33
M  V30 35 1 8 34
M  V30 36 1 9 35
M  V30 37 1 9 36
M  V30 38 1 11 37
M  V30 39 1 15 38
M  V30 40 1 15 39
M  V30 41 1 15 40
M  V30 42 1 16 41
M  V30 43 1 17 42
M  V30 44 1 20 43
M  V30 45 1 20 44
M  V30 46 1 20 45
M  V30 47 1 24 46
M  V30 END BOND
M  V30 END CTAB
M  END
>  <Dataset>  (497) 
ChEMBL_Kinases

>  <Ligand_Instance>  (497) 
nan

>  <PDB_ID>  (497) 
nan

>  <Standardized_SMILES>  (497) 
CCCS(=O)(=O)NCCc1cc2c(OC)ccc(OC)c2nc1O

>  <Name>  (497) 
nan

>  <Pocket>  (497) 
nan

>  <ATP_Site>  (497) 
nan

>  <Peripheral>  (497) 
nan

>  <Num_H_Atoms_ProtBoundConf>  (497) 
nan

>  <Num_Resolved_Atoms>  (497) 
nan

>  <Num_Not_Resolved_Atoms>  (497) 
nan

$$$$
CHEMBL1526703
     RDKit          3D

  0  0  0  0  0  0  0  0  0  0999 V3000
M  V30 BEGIN CTAB
M  V30 COUNTS 62 65 0 0 0
M  V30 BEGIN ATOM
M  V30 1 C 6.211967 -2.837542 3.117731 0
M  V30 2 C 5.190472 -2.899792 4.238866 0
M  V30 3 O 4.182911 -1.953821 4.015386 0
M  V30 4 C 4.355385 -0.587994 3.911877 0
M  V30 5 O 5.498842 -0.077708 4.018577 0
M  V30 6 N 3.263386 0.291876 3.683125 0
M  V30 7 C 3.424909 1.700381 3.572603 0
M  V30 8 C 2.299885 2.431397 2.930904 0
M  V30 9 N 1.515415 1.648382 2.008006 0
M  V30 10 C 0.753214 2.439103 1.106550 0
M  V30 11 O 1.030176 3.640703 1.427821 0
M  V30 12 C -0.159539 2.080802 0.031847 0
M  V30 13 C -1.372514 1.289802 0.422195 0
M  V30 14 C -1.547061 0.044219 -0.401537 0
M  V30 15 C -1.371354 0.241058 -1.857310 0
M  V30 16 C -1.470245 -1.099064 -2.596039 0
M  V30 17 N -2.737325 -1.753381 -2.412065 0
M  V30 18 C -3.721710 -1.414592 -3.296566 0
M  V30 19 S -3.420091 -0.301488 -4.480587 0
M  V30 20 N -4.966806 -1.907631 -3.313518 0
M  V30 21 C -5.322226 -2.810725 -2.407089 0
M  V30 22 C -6.596492 -3.345043 -2.388649 0
M  V30 23 C -6.873420 -4.280935 -1.404806 0
M  V30 24 C -5.947552 -4.684642 -0.471512 0
M  V30 25 C -4.679276 -4.141340 -0.503680 0
M  V30 26 C -4.378642 -3.208270 -1.472707 0
M  V30 27 C -3.116118 -2.668399 -1.503452 0
M  V30 28 O -2.229181 -3.000158 -0.677977 0
M  V30 29 C -0.136972 0.979872 -2.240389 0
M  V30 30 C 0.647169 1.351929 -1.036355 0
M  V30 31 C 1.580705 0.201017 2.085780 0
M  V30 32 C 1.887285 -0.146329 3.539694 0
M  V30 33 H 5.734275 -3.109774 2.169491 0
M  V30 34 H 6.688436 -1.838090 3.045120 0
M  V30 35 H 6.980747 -3.611521 3.334652 0
M  V30 36 H 4.717032 -3.898107 4.152768 0
M  V30 37 H 5.667835 -2.840235 5.232374 0
M  V30 38 H 3.581655 2.117528 4.589378 0
M  V30 39 H 4.401864 1.895770 3.038777 0
M  V30 40 H 1.612258 2.875168 3.681773 0
M  V30 41 H 2.750604 3.285300 2.381539 0
M  V30 42 H -0.495973 3.026180 -0.435281 0
M  V30 43 H -1.275197 0.982236 1.479086 0
M  V30 44 H -2.281079 1.914436 0.346316 0
M  V30 45 H -2.567888 -0.336627 -0.199682 0
M  V30 46 H -0.841970 -0.743822 -0.068483 0
M  V30 47 H -2.266862 0.812542 -2.269068 0
M  V30 48 H -1.308972 -0.964026 -3.684918 0
M  V30 49 H -0.642560 -1.774911 -2.227508 0
M  V30 50 H -5.680205 -1.630900 -3.991974 0
M  V30 51 H -7.340623 -3.040056 -3.115643 0
M  V30 52 H -7.875488 -4.724396 -1.362354 0
M  V30 53 H -6.126221 -5.408030 0.306200 0
M  V30 54 H -3.925609 -4.437366 0.216700 0
M  V30 55 H -0.423371 1.900785 -2.791462 0
M  V30 56 H 0.527476 0.332323 -2.866201 0
M  V30 57 H 1.102404 0.431973 -0.593021 0
M  V30 58 H 1.512659 1.959330 -1.367179 0
M  V30 59 H 2.444446 -0.083081 1.441342 0
M  V30 60 H 0.717656 -0.326309 1.701739 0
M  V30 61 H 1.798879 -1.246473 3.689186 0
M  V30 62 H 1.217416 0.436229 4.203315 0
M  V30 END ATOM
M  V30 BEGIN BOND
M  V30 1 1 1 2
M  V30 2 1 2 3
M  V30 3 1 3 4
M  V30 4 2 4 5
M  V30 5 1 4 6
M  V30 6 1 6 7
M  V30 7 1 7 8
M  V30 8 1 8 9
M  V30 9 1 9 10
M  V30 10 2 10 11
M  V30 11 1 10 12
M  V30 12 1 12 13
M  V30 13 1 13 14
M  V30 14 1 14 15
M  V30 15 1 15 16
M  V30 16 1 16 17
M  V30 17 1 17 18
M  V30 18 2 18 19
M  V30 19 1 18 20
M  V30 20 1 20 21
M  V30 21 2 21 22
M  V30 22 1 22 23
M  V30 23 2 23 24
M  V30 24 1 24 25
M  V30 25 2 25 26
M  V30 26 1 26 27
M  V30 27 2 27 28
M  V30 28 1 15 29
M  V30 29 1 29 30
M  V30 30 1 9 31
M  V30 31 1 31 32
M  V30 32 1 32 6
M  V30 33 1 30 12
M  V30 34 1 27 17
M  V30 35 1 26 21
M  V30 36 1 1 33
M  V30 37 1 1 34
M  V30 38 1 1 35
M  V30 39 1 2 36
M  V30 40 1 2 37
M  V30 41 1 7 38
M  V30 42 1 7 39
M  V30 43 1 8 40
M  V30 44 1 8 41
M  V30 45 1 12 42
M  V30 46 1 13 43
M  V30 47 1 13 44
M  V30 48 1 14 45
M  V30 49 1 14 46
M  V30 50 1 15 47
M  V30 51 1 16 48
M  V30 52 1 16 49
M  V30 53 1 20 50
M  V30 54 1 22 51
M  V30 55 1 23 52
M  V30 56 1 24 53
M  V30 57 1 25 54
M  V30 58 1 29 55
M  V30 59 1 29 56
M  V30 60 1 30 57
M  V30 61 1 30 58
M  V30 62 1 31 59
M  V30 63 1 31 60
M  V30 64 1 32 61
M  V30 65 1 32 62
M  V30 END BOND
M  V30 END CTAB
M  END
>  <Dataset>  (498) 
ChEMBL_Kinases

>  <Ligand_Instance>  (498) 
nan

>  <PDB_ID>  (498) 
nan

>  <Standardized_SMILES>  (498) 
CCOC(=O)N1CCN(C(=O)C2CCC(Cn3c(=S)[nH]c4ccccc4c3=O)CC2)CC1

>  <Name>  (498) 
nan

>  <Pocket>  (498) 
nan

>  <ATP_Site>  (498) 
nan

>  <Peripheral>  (498) 
nan

>  <Num_H_Atoms_ProtBoundConf>  (498) 
nan

>  <Num_Resolved_Atoms>  (498) 
nan

>  <Num_Not_Resolved_Atoms>  (498) 
nan

$$$$
CHEMBL1526697
     RDKit          3D

  0  0  0  0  0  0  0  0  0  0999 V3000
M  V30 BEGIN CTAB
M  V30 COUNTS 46 49 0 0 0
M  V30 BEGIN ATOM
M  V30 1 C -0.564997 -4.484586 4.088177 0
M  V30 2 O -0.788522 -4.208267 2.707217 0
M  V30 3 C 0.153539 -3.456387 2.006537 0
M  V30 4 C 1.305273 -2.957446 2.577455 0
M  V30 5 C 2.185713 -2.222035 1.812943 0
M  V30 6 C 1.935563 -1.967527 0.458202 0
M  V30 7 C 2.971921 -1.141475 -0.296321 0
M  V30 8 N 2.588534 0.202355 -0.495357 0
M  V30 9 C 2.284285 1.587538 -0.745202 0
M  V30 10 N 3.001453 2.498333 -1.374754 0
M  V30 11 C 2.667123 3.762053 -1.584217 0
M  V30 12 N 1.482663 4.114652 -1.097496 0
M  V30 13 C 0.660905 3.304358 -0.445282 0
M  V30 14 C -0.509411 3.874541 -0.028215 0
M  V30 15 C -1.405539 3.083198 0.657921 0
M  V30 16 C -1.089549 1.763012 0.894129 0
M  V30 17 C -1.991349 0.863567 1.613954 0
M  V30 18 C -1.544584 -0.182056 2.396092 0
M  V30 19 C -2.711866 -0.746485 2.867928 0
M  V30 20 O -3.765638 -0.103909 2.414849 0
M  V30 21 C -3.378055 0.893433 1.640136 0
M  V30 22 C 0.115709 1.282432 0.433088 0
M  V30 23 C 1.062972 2.001121 -0.257750 0
M  V30 24 C 0.778629 -2.473953 -0.096879 0
M  V30 25 O 0.630905 -2.162158 -1.443867 0
M  V30 26 C -0.492519 -2.591670 -2.195916 0
M  V30 27 C -0.106172 -3.209900 0.660316 0
M  V30 28 H 0.352127 -5.093944 4.232973 0
M  V30 29 H -1.455271 -5.004583 4.485772 0
M  V30 30 H -0.418156 -3.523118 4.654509 0
M  V30 31 H 1.481913 -3.161733 3.618893 0
M  V30 32 H 3.073392 -1.849230 2.293726 0
M  V30 33 H 3.096410 -1.666082 -1.298743 0
M  V30 34 H 3.959363 -1.313953 0.223549 0
M  V30 35 H 3.546392 0.282809 -0.969067 0
M  V30 36 H 3.369448 4.384929 -2.121030 0
M  V30 37 H -0.766259 4.904163 -0.207749 0
M  V30 38 H -2.344355 3.484911 1.008452 0
M  V30 39 H -0.576695 -0.556146 2.647309 0
M  V30 40 H -2.929174 -1.589837 3.519090 0
M  V30 41 H -4.005581 1.612146 1.113632 0
M  V30 42 H 0.339227 0.254479 0.632886 0
M  V30 43 H -1.390993 -2.305525 -1.637653 0
M  V30 44 H -0.496833 -2.010077 -3.139655 0
M  V30 45 H -0.433795 -3.651435 -2.472290 0
M  V30 46 H -0.989849 -3.566981 0.135608 0
M  V30 END ATOM
M  V30 BEGIN BOND
M  V30 1 1 1 2
M  V30 2 1 2 3
M  V30 3 2 3 4
M  V30 4 1 4 5
M  V30 5 2 5 6
M  V30 6 1 6 7
M  V30 7 1 7 8
M  V30 8 1 8 9
M  V30 9 2 9 10
M  V30 10 1 10 11
M  V30 11 2 11 12
M  V30 12 1 12 13
M  V30 13 2 13 14
M  V30 14 1 14 15
M  V30 15 2 15 16
M  V30 16 1 16 17
M  V30 17 1 17 18
M  V30 18 2 18 19
M  V30 19 1 19 20
M  V30 20 1 20 21
M  V30 21 1 16 22
M  V30 22 2 22 23
M  V30 23 1 6 24
M  V30 24 1 24 25
M  V30 25 1 25 26
M  V30 26 2 24 27
M  V30 27 1 27 3
M  V30 28 1 23 9
M  V30 29 1 23 13
M  V30 30 2 21 17
M  V30 31 1 1 28
M  V30 32 1 1 29
M  V30 33 1 1 30
M  V30 34 1 4 31
M  V30 35 1 5 32
M  V30 36 1 7 33
M  V30 37 1 7 34
M  V30 38 1 8 35
M  V30 39 1 11 36
M  V30 40 1 14 37
M  V30 41 1 15 38
M  V30 42 1 18 39
M  V30 43 1 19 40
M  V30 44 1 21 41
M  V30 45 1 22 42
M  V30 46 1 26 43
M  V30 47 1 26 44
M  V30 48 1 26 45
M  V30 49 1 27 46
M  V30 END BOND
M  V30 END CTAB
M  END
>  <Dataset>  (499) 
ChEMBL_Kinases

>  <Ligand_Instance>  (499) 
nan

>  <PDB_ID>  (499) 
nan

>  <Standardized_SMILES>  (499) 
COc1ccc(CNc2ncnc3ccc(-c4ccoc4)cc23)c(OC)c1

>  <Name>  (499) 
nan

>  <Pocket>  (499) 
nan

>  <ATP_Site>  (499) 
nan

>  <Peripheral>  (499) 
nan

>  <Num_H_Atoms_ProtBoundConf>  (499) 
nan

>  <Num_Resolved_Atoms>  (499) 
nan

>  <Num_Not_Resolved_Atoms>  (499) 
nan

$$$$
CHEMBL1526600
     RDKit          3D

  0  0  0  0  0  0  0  0  0  0999 V3000
M  V30 BEGIN CTAB
M  V30 COUNTS 48 51 0 0 0
M  V30 BEGIN ATOM
M  V30 1 C 2.420250 -3.664428 3.741154 0
M  V30 2 C 2.402532 -4.190785 2.315366 0
M  V30 3 O 2.434735 -3.128329 1.389731 0
M  V30 4 C 3.467956 -2.201389 1.304720 0
M  V30 5 O 4.452513 -2.264222 2.063744 0
M  V30 6 C 3.189327 -1.193000 0.209789 0
M  V30 7 C 4.286615 -0.209797 0.080688 0
M  V30 8 C 3.907919 1.226750 -0.017915 0
M  V30 9 C 2.614492 1.570931 0.673839 0
M  V30 10 N 1.593043 0.710631 0.162587 0
M  V30 11 C 0.400799 1.091843 -0.555579 0
M  V30 12 N 0.190939 1.842228 -1.655367 0
M  V30 13 C -1.061798 2.026957 -2.100959 0
M  V30 14 N -2.169493 1.520876 -1.541282 0
M  V30 15 C -2.057106 0.759134 -0.438593 0
M  V30 16 C -3.003406 0.126317 0.335924 0
M  V30 17 C -4.371040 -0.017083 0.347438 0
M  V30 18 O -5.080692 0.614268 -0.664289 0
M  V30 19 C -6.505001 0.472627 -0.659672 0
M  V30 20 C -4.934315 -0.779230 1.365822 0
M  V30 21 C -4.179015 -1.387212 2.348531 0
M  V30 22 C -2.787767 -1.248079 2.344407 0
M  V30 23 C -2.264088 -0.486511 1.323506 0
M  V30 24 N -0.958387 -0.250378 1.171643 0
M  V30 25 C -0.716751 0.531892 0.081608 0
M  V30 26 C 1.813093 -0.689362 0.420764 0
M  V30 27 H 3.369628 -4.034374 4.209522 0
M  V30 28 H 1.540726 -4.063594 4.319819 0
M  V30 29 H 2.392480 -2.559624 3.711812 0
M  V30 30 H 1.425927 -4.714331 2.167154 0
M  V30 31 H 3.269429 -4.849487 2.105796 0
M  V30 32 H 3.171883 -1.826359 -0.716574 0
M  V30 33 H 4.981314 -0.296083 0.977407 0
M  V30 34 H 4.933881 -0.455672 -0.810515 0
M  V30 35 H 4.733271 1.889144 0.341452 0
M  V30 36 H 3.743346 1.466311 -1.099078 0
M  V30 37 H 2.670080 1.413671 1.774657 0
M  V30 38 H 2.357927 2.621454 0.390885 0
M  V30 39 H 1.091869 2.188431 -2.016825 0
M  V30 40 H -1.067212 2.653463 -2.995067 0
M  V30 41 H -6.781153 -0.593727 -0.545826 0
M  V30 42 H -6.967775 0.877458 -1.575536 0
M  V30 43 H -6.933617 1.003018 0.218562 0
M  V30 44 H -6.016955 -0.880863 1.355625 0
M  V30 45 H -4.643277 -1.972359 3.127541 0
M  V30 46 H -2.211192 -1.729496 3.120328 0
M  V30 47 H 1.561870 -0.812282 1.520996 0
M  V30 48 H 1.036219 -1.276559 -0.135016 0
M  V30 END ATOM
M  V30 BEGIN BOND
M  V30 1 1 1 2
M  V30 2 1 2 3
M  V30 3 1 3 4
M  V30 4 2 4 5
M  V30 5 1 4 6
M  V30 6 1 6 7
M  V30 7 1 7 8
M  V30 8 1 8 9
M  V30 9 1 9 10
M  V30 10 1 10 11
M  V30 11 1 11 12
M  V30 12 1 12 13
M  V30 13 2 13 14
M  V30 14 1 14 15
M  V30 15 2 15 16
M  V30 16 1 16 17
M  V30 17 1 17 18
M  V30 18 1 18 19
M  V30 19 2 17 20
M  V30 20 1 20 21
M  V30 21 2 21 22
M  V30 22 1 22 23
M  V30 23 2 23 24
M  V30 24 1 24 25
M  V30 25 1 10 26
M  V30 26 1 26 6
M  V30 27 2 25 11
M  V30 28 1 25 15
M  V30 29 1 23 16
M  V30 30 1 1 27
M  V30 31 1 1 28
M  V30 32 1 1 29
M  V30 33 1 2 30
M  V30 34 1 2 31
M  V30 35 1 6 32
M  V30 36 1 7 33
M  V30 37 1 7 34
M  V30 38 1 8 35
M  V30 39 1 8 36
M  V30 40 1 9 37
M  V30 41 1 9 38
M  V30 42 1 12 39
M  V30 43 1 13 40
M  V30 44 1 19 41
M  V30 45 1 19 42
M  V30 46 1 19 43
M  V30 47 1 20 44
M  V30 48 1 21 45
M  V30 49 1 22 46
M  V30 50 1 26 47
M  V30 51 1 26 48
M  V30 END BOND
M  V30 END CTAB
M  END
>  <Dataset>  (500) 
ChEMBL_Kinases

>  <Ligand_Instance>  (500) 
nan

>  <PDB_ID>  (500) 
nan

>  <Standardized_SMILES>  (500) 
CCOC(=O)C1CCCN(c2[nH]cnc3c4c(OC)cccc4nc2-3)C1

>  <Name>  (500) 
nan

>  <Pocket>  (500) 
nan

>  <ATP_Site>  (500) 
nan

>  <Peripheral>  (500) 
nan

>  <Num_H_Atoms_ProtBoundConf>  (500) 
nan

>  <Num_Resolved_Atoms>  (500) 
nan

>  <Num_Not_Resolved_Atoms>  (500) 
nan

$$$$
CHEMBL1526414
     RDKit          3D

  0  0  0  0  0  0  0  0  0  0999 V3000
M  V30 BEGIN CTAB
M  V30 COUNTS 35 38 0 0 0
M  V30 BEGIN ATOM
M  V30 1 O 0.847777 -2.461423 1.730859 0
M  V30 2 C -0.292770 -2.100290 2.079982 0
M  V30 3 N -0.833391 -0.908250 1.471515 0
M  V30 4 C -0.021928 -0.229361 0.521506 0
M  V30 5 N 1.180524 -0.569231 0.143302 0
M  V30 6 C 1.878529 0.202395 -0.819305 0
M  V30 7 C 3.175619 -0.188235 -1.214269 0
M  V30 8 C 3.838224 0.576217 -2.157382 0
M  V30 9 C 3.307314 1.707522 -2.742854 0
M  V30 10 C 2.043494 2.125113 -2.386856 0
M  V30 11 C 1.419535 3.231623 -2.910341 0
M  V30 12 C 0.151443 3.589408 -2.510983 0
M  V30 13 C -0.452155 2.789341 -1.571370 0
M  V30 14 C 0.120318 1.661143 -1.004443 0
M  V30 15 C 1.385140 1.365174 -1.449037 0
M  V30 16 N -0.617265 0.924376 -0.047466 0
M  V30 17 C -1.105019 -2.807885 3.055148 0
M  V30 18 C -2.238417 -2.249630 3.662055 0
M  V30 19 C -3.022426 -2.953528 4.574287 0
M  V30 20 C -2.663399 -4.247251 4.889116 0
M  V30 21 C -1.555906 -4.888150 4.341171 0
M  V30 22 C -0.854295 -4.102311 3.452607 0
M  V30 23 H -1.783571 -0.561063 1.718645 0
M  V30 24 H 3.673978 -1.059921 -0.810304 0
M  V30 25 H 4.836776 0.288867 -2.470242 0
M  V30 26 H 3.802497 2.327027 -3.483664 0
M  V30 27 H 1.921943 3.838074 -3.645170 0
M  V30 28 H -0.310505 4.449674 -2.929119 0
M  V30 29 H -1.451049 3.094251 -1.273937 0
M  V30 30 H -1.586631 1.272999 0.203336 0
M  V30 31 H -2.545266 -1.242091 3.446187 0
M  V30 32 H -3.895600 -2.488093 5.027089 0
M  V30 33 H -3.239526 -4.850546 5.598794 0
M  V30 34 H -1.261053 -5.882549 4.573639 0
M  V30 35 H 0.041226 -4.524852 2.966796 0
M  V30 END ATOM
M  V30 BEGIN BOND
M  V30 1 2 1 2
M  V30 2 1 2 3
M  V30 3 1 3 4
M  V30 4 2 4 5
M  V30 5 1 5 6
M  V30 6 2 6 7
M  V30 7 1 7 8
M  V30 8 2 8 9
M  V30 9 1 9 10
M  V30 10 2 10 11
M  V30 11 1 11 12
M  V30 12 2 12 13
M  V30 13 1 13 14
M  V30 14 2 14 15
M  V30 15 1 14 16
M  V30 16 1 2 17
M  V30 17 2 17 18
M  V30 18 1 18 19
M  V30 19 2 19 20
M  V30 20 1 20 21
M  V30 21 2 21 22
M  V30 22 1 16 4
M  V30 23 1 22 17
M  V30 24 1 15 6
M  V30 25 1 15 10
M  V30 26 1 3 23
M  V30 27 1 7 24
M  V30 28 1 8 25
M  V30 29 1 9 26
M  V30 30 1 11 27
M  V30 31 1 12 28
M  V30 32 1 13 29
M  V30 33 1 16 30
M  V30 34 1 18 31
M  V30 35 1 19 32
M  V30 36 1 20 33
M  V30 37 1 21 34
M  V30 38 1 22 35
M  V30 END BOND
M  V30 END CTAB
M  END
>  <Dataset>  (501) 
ChEMBL_Kinases

>  <Ligand_Instance>  (501) 
nan

>  <PDB_ID>  (501) 
nan

>  <Standardized_SMILES>  (501) 
O=C(NC1=Nc2cccc3cccc(c23)N1)c1ccccc1

>  <Name>  (501) 
nan

>  <Pocket>  (501) 
nan

>  <ATP_Site>  (501) 
nan

>  <Peripheral>  (501) 
nan

>  <Num_H_Atoms_ProtBoundConf>  (501) 
nan

>  <Num_Resolved_Atoms>  (501) 
nan

>  <Num_Not_Resolved_Atoms>  (501) 
nan

$$$$
CHEMBL1526319
     RDKit          3D

  0  0  0  0  0  0  0  0  0  0999 V3000
M  V30 BEGIN CTAB
M  V30 COUNTS 55 56 0 0 0
M  V30 BEGIN ATOM
M  V30 1 C 1.864942 -2.973230 2.122506 0
M  V30 2 C 2.471512 -1.762205 1.461284 0
M  V30 3 C 3.679009 -1.299224 1.939785 0
M  V30 4 C 4.187787 -0.189324 1.298431 0
M  V30 5 O 5.400579 0.305668 1.751403 0
M  V30 6 C 3.534382 0.419886 0.247290 0
M  V30 7 C 4.107567 1.615158 -0.424459 0
M  V30 8 C 3.185170 2.066701 -1.531976 0
M  V30 9 C 5.463953 1.337654 -1.022108 0
M  V30 10 C 4.148923 2.719964 0.601136 0
M  V30 11 C 2.331443 -0.118042 -0.158737 0
M  V30 12 C 1.708754 -1.239350 0.407744 0
M  V30 13 S 0.196370 -1.913783 -0.133238 0
M  V30 14 C -1.281424 -1.328018 0.577861 0
M  V30 15 C -2.363217 -2.006743 -0.008122 0
M  V30 16 C -3.682964 -1.736548 0.374041 0
M  V30 17 C -4.910036 -2.376523 -0.160700 0
M  V30 18 C -5.776388 -1.299066 -0.771275 0
M  V30 19 C -5.630576 -3.185797 0.885946 0
M  V30 20 C -4.522827 -3.311094 -1.278996 0
M  V30 21 C -3.957491 -0.791613 1.341326 0
M  V30 22 O -5.224688 -0.451923 1.788435 0
M  V30 23 C -2.911855 -0.111767 1.931527 0
M  V30 24 C -1.629086 -0.403000 1.531506 0
M  V30 25 C -0.403794 0.250806 2.081667 0
M  V30 26 H 0.751886 -2.872732 2.125700 0
M  V30 27 H 2.181286 -3.864591 1.535770 0
M  V30 28 H 2.288503 -3.081290 3.130701 0
M  V30 29 H 4.134733 -1.826033 2.766819 0
M  V30 30 H 6.206023 -0.278813 1.603839 0
M  V30 31 H 3.575801 2.997273 -1.992989 0
M  V30 32 H 3.012110 1.283161 -2.309816 0
M  V30 33 H 2.182566 2.330707 -1.111026 0
M  V30 34 H 5.684473 2.163801 -1.731512 0
M  V30 35 H 6.267519 1.321497 -0.262736 0
M  V30 36 H 5.380698 0.410183 -1.597465 0
M  V30 37 H 4.057987 3.712094 0.114206 0
M  V30 38 H 3.277413 2.630805 1.287500 0
M  V30 39 H 5.046163 2.629113 1.254652 0
M  V30 40 H 1.777073 0.336310 -0.992960 0
M  V30 41 H -2.393369 -2.785864 -0.783701 0
M  V30 42 H -5.114106 -0.479993 -1.101791 0
M  V30 43 H -6.531390 -0.883982 -0.100591 0
M  V30 44 H -6.274708 -1.682339 -1.706457 0
M  V30 45 H -4.849246 -3.618367 1.576605 0
M  V30 46 H -6.372127 -2.590702 1.448485 0
M  V30 47 H -6.144150 -4.035868 0.389004 0
M  V30 48 H -5.481553 -3.734820 -1.686817 0
M  V30 49 H -3.921075 -4.130301 -0.834442 0
M  V30 50 H -3.958672 -2.785626 -2.084856 0
M  V30 51 H -5.472866 -0.305661 2.758627 0
M  V30 52 H -2.960606 0.657248 2.703872 0
M  V30 53 H -0.696817 0.979457 2.897460 0
M  V30 54 H 0.117505 0.855822 1.346081 0
M  V30 55 H 0.187988 -0.510010 2.612808 0
M  V30 END ATOM
M  V30 BEGIN BOND
M  V30 1 1 1 2
M  V30 2 2 2 3
M  V30 3 1 3 4
M  V30 4 1 4 5
M  V30 5 2 4 6
M  V30 6 1 6 7
M  V30 7 1 7 8
M  V30 8 1 7 9
M  V30 9 1 7 10
M  V30 10 1 6 11
M  V30 11 2 11 12
M  V30 12 1 12 13
M  V30 13 1 13 14
M  V30 14 2 14 15
M  V30 15 1 15 16
M  V30 16 1 16 17
M  V30 17 1 17 18
M  V30 18 1 17 19
M  V30 19 1 17 20
M  V30 20 2 16 21
M  V30 21 1 21 22
M  V30 22 1 21 23
M  V30 23 2 23 24
M  V30 24 1 24 25
M  V30 25 1 12 2
M  V30 26 1 24 14
M  V30 27 1 1 26
M  V30 28 1 1 27
M  V30 29 1 1 28
M  V30 30 1 3 29
M  V30 31 1 5 30
M  V30 32 1 8 31
M  V30 33 1 8 32
M  V30 34 1 8 33
M  V30 35 1 9 34
M  V30 36 1 9 35
M  V30 37 1 9 36
M  V30 38 1 10 37
M  V30 39 1 10 38
M  V30 40 1 10 39
M  V30 41 1 11 40
M  V30 42 1 15 41
M  V30 43 1 18 42
M  V30 44 1 18 43
M  V30 45 1 18 44
M  V30 46 1 19 45
M  V30 47 1 19 46
M  V30 48 1 19 47
M  V30 49 1 20 48
M  V30 50 1 20 49
M  V30 51 1 20 50
M  V30 52 1 22 51
M  V30 53 1 23 52
M  V30 54 1 25 53
M  V30 55 1 25 54
M  V30 56 1 25 55
M  V30 END BOND
M  V30 END CTAB
M  END
>  <Dataset>  (502) 
ChEMBL_Kinases

>  <Ligand_Instance>  (502) 
nan

>  <PDB_ID>  (502) 
nan

>  <Standardized_SMILES>  (502) 
Cc1cc(O)c(C(C)(C)C)cc1Sc1cc(C(C)(C)C)c(O)cc1C

>  <Name>  (502) 
nan

>  <Pocket>  (502) 
nan

>  <ATP_Site>  (502) 
nan

>  <Peripheral>  (502) 
nan

>  <Num_H_Atoms_ProtBoundConf>  (502) 
nan

>  <Num_Resolved_Atoms>  (502) 
nan

>  <Num_Not_Resolved_Atoms>  (502) 
nan

$$$$
CHEMBL1526240
     RDKit          3D

  0  0  0  0  0  0  0  0  0  0999 V3000
M  V30 BEGIN CTAB
M  V30 COUNTS 92 97 0 0 0
M  V30 BEGIN ATOM
M  V30 1 C -1.906193 5.476070 6.320906 0
M  V30 2 C -1.525375 4.058705 6.032826 0
M  V30 3 C -0.808248 3.199657 7.027582 0
M  V30 4 C -1.728579 3.336941 4.933944 0
M  V30 5 C -1.398809 1.940156 4.540298 0
M  V30 6 C -2.630355 1.136843 4.216433 0
M  V30 7 C -2.181422 -0.250952 3.820921 0
M  V30 8 C -1.404591 -0.905665 4.976004 0
M  V30 9 C -3.310318 -1.151626 3.548383 0
M  V30 10 C -3.618722 -1.883071 2.490736 0
M  V30 11 C -2.646881 -1.754963 1.412965 0
M  V30 12 C -2.840003 -2.462549 0.245524 0
M  V30 13 O -3.952043 -3.281275 0.116194 0
M  V30 14 C -1.892168 -2.307790 -0.744521 0
M  V30 15 C -0.762139 -1.517798 -0.695461 0
M  V30 16 C -0.606147 -0.817186 0.505210 0
M  V30 17 C 0.560954 0.084544 0.685057 0
M  V30 18 C 0.450823 1.357635 -0.044129 0
M  V30 19 C 0.455578 2.653954 0.232054 0
M  V30 20 C 0.598820 3.255551 1.582147 0
M  V30 21 C 0.307219 3.614437 -0.878277 0
M  V30 22 C -1.542942 -0.940779 1.542314 0
M  V30 23 O -1.328881 -0.221102 2.704270 0
M  V30 24 O 0.128467 -1.444177 -1.758826 0
M  V30 25 C -0.049941 -1.983285 -3.027075 0
M  V30 26 C -1.238655 -2.893928 -3.066882 0
M  V30 27 C -1.443406 -3.601494 -4.194265 0
M  V30 28 C -0.649652 -3.020792 -5.348510 0
M  V30 29 C -0.965590 -1.530585 -5.273621 0
M  V30 30 C -0.345637 -0.883007 -4.071784 0
M  V30 31 C 1.035892 -0.464892 -4.448505 0
M  V30 32 C 1.173830 -0.129269 -5.918752 0
M  V30 33 C 1.369634 0.840921 -3.718981 0
M  V30 34 O 1.908738 -1.467976 -4.141545 0
M  V30 35 C 1.145204 -2.564448 -3.693226 0
M  V30 36 C 2.066836 -3.379062 -2.842414 0
M  V30 37 C 2.662372 -2.637751 -1.719290 0
M  V30 38 C 3.966424 -2.488453 -1.659959 0
M  V30 39 C 4.695107 -1.756765 -0.572405 0
M  V30 40 C 4.872086 -3.025702 -2.667777 0
M  V30 41 O 6.148136 -2.928722 -2.689308 0
M  V30 42 O 5.308963 -3.682730 -3.806212 0
M  V30 43 C 0.774475 -3.313833 -4.965742 0
M  V30 44 O 0.755893 -4.673617 -4.555631 0
M  V30 45 C -2.199409 -3.065081 -1.976169 0
M  V30 46 O -3.190938 -3.808054 -2.124520 0
M  V30 47 H -1.009715 6.006242 6.721411 0
M  V30 48 H -2.735133 5.537294 7.047186 0
M  V30 49 H -2.116897 5.968660 5.347938 0
M  V30 50 H -0.602138 3.857952 7.903330 0
M  V30 51 H -1.480565 2.388276 7.405849 0
M  V30 52 H 0.123851 2.809758 6.602457 0
M  V30 53 H -2.256275 3.880074 4.130285 0
M  V30 54 H -0.605818 1.856585 3.799696 0
M  V30 55 H -0.975113 1.478652 5.483454 0
M  V30 56 H -3.206305 1.542507 3.365480 0
M  V30 57 H -3.257052 1.077323 5.130465 0
M  V30 58 H -2.026574 -0.871967 5.892066 0
M  V30 59 H -0.397698 -0.507933 5.089197 0
M  V30 60 H -1.323427 -1.978886 4.697099 0
M  V30 61 H -3.978691 -1.175121 4.420246 0
M  V30 62 H -4.498065 -2.495352 2.459503 0
M  V30 63 H -4.797196 -2.806350 -0.213671 0
M  V30 64 H 0.596524 0.383238 1.780241 0
M  V30 65 H 1.470583 -0.485571 0.535610 0
M  V30 66 H 0.342438 0.995325 -1.033571 0
M  V30 67 H 1.119120 2.537110 2.280351 0
M  V30 68 H 1.214823 4.199366 1.512788 0
M  V30 69 H -0.386208 3.471051 2.041147 0
M  V30 70 H 0.125540 3.093852 -1.832403 0
M  V30 71 H 1.230786 4.241820 -0.930542 0
M  V30 72 H -0.576991 4.289873 -0.713731 0
M  V30 73 H -2.090014 -4.452160 -4.219134 0
M  V30 74 H -0.946292 -3.410772 -6.310755 0
M  V30 75 H -2.081733 -1.472294 -5.131512 0
M  V30 76 H -0.776998 -1.021577 -6.226780 0
M  V30 77 H -0.956096 -0.077833 -3.619369 0
M  V30 78 H 1.267011 -1.001172 -6.579333 0
M  V30 79 H 2.156323 0.411034 -5.997319 0
M  V30 80 H 0.428662 0.622829 -6.253122 0
M  V30 81 H 1.924039 0.592116 -2.791266 0
M  V30 82 H 0.465362 1.440041 -3.554721 0
M  V30 83 H 2.059021 1.444249 -4.342980 0
M  V30 84 H 1.403944 -4.162875 -2.359238 0
M  V30 85 H 2.860011 -3.883110 -3.434139 0
M  V30 86 H 2.137364 -2.188602 -0.899421 0
M  V30 87 H 5.614130 -1.238111 -0.978266 0
M  V30 88 H 4.083201 -0.936942 -0.165576 0
M  V30 89 H 5.012573 -2.399520 0.246935 0
M  V30 90 H 5.040965 -4.623612 -4.079275 0
M  V30 91 H 1.507965 -3.220313 -5.768658 0
M  V30 92 H 0.146759 -4.835020 -3.819820 0
M  V30 END ATOM
M  V30 BEGIN BOND
M  V30 1 1 1 2
M  V30 2 1 2 3
M  V30 3 2 2 4 CFG=2
M  V30 4 1 4 5
M  V30 5 1 5 6
M  V30 6 1 6 7
M  V30 7 1 7 8
M  V30 8 1 7 9
M  V30 9 2 9 10
M  V30 10 1 10 11
M  V30 11 1 11 12
M  V30 12 1 12 13
M  V30 13 2 12 14
M  V30 14 1 14 15
M  V30 15 2 15 16
M  V30 16 1 16 17
M  V30 17 1 17 18
M  V30 18 2 18 19 CFG=2
M  V30 19 1 19 20
M  V30 20 1 19 21
M  V30 21 1 16 22
M  V30 22 1 22 23
M  V30 23 1 15 24
M  V30 24 1 24 25
M  V30 25 1 25 26
M  V30 26 2 26 27
M  V30 27 1 27 28
M  V30 28 1 28 29
M  V30 29 1 29 30
M  V30 30 1 30 31
M  V30 31 1 31 32
M  V30 32 1 31 33
M  V30 33 1 31 34
M  V30 34 1 34 35
M  V30 35 1 35 36
M  V30 36 1 36 37
M  V30 37 2 37 38
M  V30 38 1 38 39
M  V30 39 1 38 40
M  V30 40 2 40 41
M  V30 41 1 40 42
M  V30 42 1 35 43
M  V30 43 1 43 44
M  V30 44 1 26 45
M  V30 45 2 45 46
M  V30 46 1 23 7
M  V30 47 1 30 25
M  V30 48 2 22 11
M  V30 49 1 35 25
M  V30 50 1 45 14
M  V30 51 1 43 28
M  V30 52 1 1 47
M  V30 53 1 1 48
M  V30 54 1 1 49
M  V30 55 1 3 50
M  V30 56 1 3 51
M  V30 57 1 3 52
M  V30 58 1 4 53
M  V30 59 1 5 54
M  V30 60 1 5 55
M  V30 61 1 6 56
M  V30 62 1 6 57
M  V30 63 1 8 58
M  V30 64 1 8 59
M  V30 65 1 8 60
M  V30 66 1 9 61
M  V30 67 1 10 62
M  V30 68 1 13 63
M  V30 69 1 17 64
M  V30 70 1 17 65
M  V30 71 1 18 66
M  V30 72 1 20 67
M  V30 73 1 20 68
M  V30 74 1 20 69
M  V30 75 1 21 70
M  V30 76 1 21 71
M  V30 77 1 21 72
M  V30 78 1 27 73
M  V30 79 1 28 74
M  V30 80 1 29 75
M  V30 81 1 29 76
M  V30 82 1 30 77
M  V30 83 1 32 78
M  V30 84 1 32 79
M  V30 85 1 32 80
M  V30 86 1 33 81
M  V30 87 1 33 82
M  V30 88 1 33 83
M  V30 89 1 36 84
M  V30 90 1 36 85
M  V30 91 1 37 86
M  V30 92 1 39 87
M  V30 93 1 39 88
M  V30 94 1 39 89
M  V30 95 1 42 90
M  V30 96 1 43 91
M  V30 97 1 44 92
M  V30 END BOND
M  V30 END CTAB
M  END
>  <Dataset>  (503) 
ChEMBL_Kinases

>  <Ligand_Instance>  (503) 
nan

>  <PDB_ID>  (503) 
nan

>  <Standardized_SMILES>  (503) 
CC(C)=CCCC1(C)C=Cc2c(O)c3c(c(CC=C(C)C)c2O1)OC12C(=CC4CC1C(C)(C)OC2(C/C=C(/C)C(=O)O)C4O)C3=O

>  <Name>  (503) 
DIHYDROGAMBOGIC ACID

>  <Pocket>  (503) 
nan

>  <ATP_Site>  (503) 
nan

>  <Peripheral>  (503) 
nan

>  <Num_H_Atoms_ProtBoundConf>  (503) 
nan

>  <Num_Resolved_Atoms>  (503) 
nan

>  <Num_Not_Resolved_Atoms>  (503) 
nan

$$$$
CHEMBL1526239
     RDKit          3D

  0  0  0  0  0  0  0  0  0  0999 V3000
M  V30 BEGIN CTAB
M  V30 COUNTS 39 41 0 0 0
M  V30 BEGIN ATOM
M  V30 1 O 1.280453 -3.229663 3.858695 0
M  V30 2 C 0.882188 -4.187211 3.158562 0
M  V30 3 O -0.260339 -4.292566 3.957005 0
M  V30 4 C 1.531988 -4.822760 1.964032 0
M  V30 5 C 1.493882 -3.967369 0.739909 0
M  V30 6 C 2.189858 -2.667810 0.862691 0
M  V30 7 O 2.891260 -2.587702 1.927777 0
M  V30 8 N 2.120104 -1.589455 -0.079098 0
M  V30 9 C 1.287514 -1.799978 -1.222698 0
M  V30 10 C 0.861355 -0.480011 -1.806726 0
M  V30 11 N 0.918713 0.513747 -0.771017 0
M  V30 12 C -0.102969 1.235732 -0.119815 0
M  V30 13 N -0.268379 2.038443 0.729160 0
M  V30 14 C -1.448258 2.533961 1.105536 0
M  V30 15 C -1.634639 3.470571 2.099686 0
M  V30 16 C -2.896564 3.905028 2.399862 0
M  V30 17 C -4.048565 3.462863 1.760729 0
M  V30 18 C -3.879997 2.528452 0.767142 0
M  V30 19 C -2.595075 2.087247 0.462576 0
M  V30 20 S -1.871561 0.908569 -0.717947 0
M  V30 21 C 2.283097 0.833811 -0.324346 0
M  V30 22 C 2.919898 -0.418812 0.256470 0
M  V30 23 H -1.099628 -3.796697 3.700961 0
M  V30 24 H 2.594392 -5.006867 2.296055 0
M  V30 25 H 1.055189 -5.792592 1.758915 0
M  V30 26 H 2.010099 -4.540294 -0.090726 0
M  V30 27 H 0.442155 -3.868597 0.393455 0
M  V30 28 H 0.333843 -2.274004 -0.846166 0
M  V30 29 H 1.761804 -2.462146 -1.979924 0
M  V30 30 H 1.545940 -0.148901 -2.628527 0
M  V30 31 H -0.192341 -0.539985 -2.202576 0
M  V30 32 H -0.849653 3.936092 2.716414 0
M  V30 33 H -3.088303 4.641208 3.174500 0
M  V30 34 H -5.073168 3.749123 1.932970 0
M  V30 35 H -4.636787 2.058084 0.151330 0
M  V30 36 H 2.855785 1.123084 -1.224136 0
M  V30 37 H 2.327839 1.650777 0.393610 0
M  V30 38 H 3.007627 -0.327314 1.351825 0
M  V30 39 H 3.938203 -0.516864 -0.160050 0
M  V30 END ATOM
M  V30 BEGIN BOND
M  V30 1 2 1 2
M  V30 2 1 2 3
M  V30 3 1 2 4
M  V30 4 1 4 5
M  V30 5 1 5 6
M  V30 6 2 6 7
M  V30 7 1 6 8
M  V30 8 1 8 9
M  V30 9 1 9 10
M  V30 10 1 10 11
M  V30 11 1 11 12
M  V30 12 2 12 13
M  V30 13 1 13 14
M  V30 14 2 14 15
M  V30 15 1 15 16
M  V30 16 2 16 17
M  V30 17 1 17 18
M  V30 18 2 18 19
M  V30 19 1 19 20
M  V30 20 1 11 21
M  V30 21 1 21 22
M  V30 22 1 22 8
M  V30 23 1 20 12
M  V30 24 1 19 14
M  V30 25 1 3 23
M  V30 26 1 4 24
M  V30 27 1 4 25
M  V30 28 1 5 26
M  V30 29 1 5 27
M  V30 30 1 9 28
M  V30 31 1 9 29
M  V30 32 1 10 30
M  V30 33 1 10 31
M  V30 34 1 15 32
M  V30 35 1 16 33
M  V30 36 1 17 34
M  V30 37 1 18 35
M  V30 38 1 21 36
M  V30 39 1 21 37
M  V30 40 1 22 38
M  V30 41 1 22 39
M  V30 END BOND
M  V30 END CTAB
M  END
>  <Dataset>  (504) 
ChEMBL_Kinases

>  <Ligand_Instance>  (504) 
nan

>  <PDB_ID>  (504) 
nan

>  <Standardized_SMILES>  (504) 
O=C(O)CCC(=O)N1CCN(c2nc3ccccc3s2)CC1

>  <Name>  (504) 
nan

>  <Pocket>  (504) 
nan

>  <ATP_Site>  (504) 
nan

>  <Peripheral>  (504) 
nan

>  <Num_H_Atoms_ProtBoundConf>  (504) 
nan

>  <Num_Resolved_Atoms>  (504) 
nan

>  <Num_Not_Resolved_Atoms>  (504) 
nan

$$$$
CHEMBL1526174
     RDKit          3D

  0  0  0  0  0  0  0  0  0  0999 V3000
M  V30 BEGIN CTAB
M  V30 COUNTS 27 28 0 0 0
M  V30 BEGIN ATOM
M  V30 1 O 0.855503 -3.089570 4.411362 0
M  V30 2 N 0.507598 -3.597729 3.320493 0 CHG=1 VAL=4
M  V30 3 O 0.757469 -4.926661 2.998724 0 CHG=-1 VAL=1
M  V30 4 C -0.167339 -2.799849 2.368046 0
M  V30 5 C -0.446155 -1.476277 2.623171 0
M  V30 6 C -1.106297 -0.728328 1.670433 0
M  V30 7 C -1.522426 -1.214884 0.444706 0
M  V30 8 N -2.196288 -0.456260 -0.529889 0
M  V30 9 N -1.714373 0.491410 -1.209960 0
M  V30 10 C -0.355729 0.844665 -0.984781 0
M  V30 11 C -0.205706 1.976992 -0.176155 0
M  V30 12 Cl -1.475878 2.957325 0.551507 0
M  V30 13 C 1.057640 2.442350 0.131451 0
M  V30 14 C 2.207653 1.808405 -0.346682 0
M  V30 15 O 3.491481 2.254352 -0.053383 0
M  V30 16 C 2.029945 0.691985 -1.143394 0
M  V30 17 C 0.771714 0.228652 -1.449659 0
M  V30 18 Cl 0.518763 -1.163666 -2.444208 0
M  V30 19 C -1.204920 -2.564802 0.256849 0
M  V30 20 C -0.547766 -3.353475 1.176500 0
M  V30 21 H -0.130477 -1.076886 3.572738 0
M  V30 22 H -1.299883 0.293639 1.915488 0
M  V30 23 H 1.289955 3.305936 0.745758 0
M  V30 24 H 3.702234 2.266123 0.955495 0
M  V30 25 H 2.890689 0.148023 -1.551075 0
M  V30 26 H -1.507082 -3.009524 -0.692806 0
M  V30 27 H -0.354663 -4.396309 0.917505 0
M  V30 END ATOM
M  V30 BEGIN BOND
M  V30 1 2 1 2
M  V30 2 1 2 3
M  V30 3 1 2 4
M  V30 4 2 4 5
M  V30 5 1 5 6
M  V30 6 2 6 7
M  V30 7 1 7 8
M  V30 8 2 8 9 CFG=2
M  V30 9 1 9 10
M  V30 10 2 10 11
M  V30 11 1 11 12
M  V30 12 1 11 13
M  V30 13 2 13 14
M  V30 14 1 14 15
M  V30 15 1 14 16
M  V30 16 2 16 17
M  V30 17 1 17 18
M  V30 18 1 7 19
M  V30 19 2 19 20
M  V30 20 1 20 4
M  V30 21 1 17 10
M  V30 22 1 5 21
M  V30 23 1 6 22
M  V30 24 1 13 23
M  V30 25 1 15 24
M  V30 26 1 16 25
M  V30 27 1 19 26
M  V30 28 1 20 27
M  V30 END BOND
M  V30 END CTAB
M  END
>  <Dataset>  (505) 
ChEMBL_Kinases

>  <Ligand_Instance>  (505) 
nan

>  <PDB_ID>  (505) 
nan

>  <Standardized_SMILES>  (505) 
O=[N+]([O-])c1ccc(N=Nc2c(Cl)cc(O)cc2Cl)cc1

>  <Name>  (505) 
nan

>  <Pocket>  (505) 
nan

>  <ATP_Site>  (505) 
nan

>  <Peripheral>  (505) 
nan

>  <Num_H_Atoms_ProtBoundConf>  (505) 
nan

>  <Num_Resolved_Atoms>  (505) 
nan

>  <Num_Not_Resolved_Atoms>  (505) 
nan

$$$$
CHEMBL1545339
     RDKit          3D

  0  0  0  0  0  0  0  0  0  0999 V3000
M  V30 BEGIN CTAB
M  V30 COUNTS 51 53 0 0 0
M  V30 BEGIN ATOM
M  V30 1 O -0.164533 -2.063662 1.802868 0
M  V30 2 C -0.527480 -3.015773 2.583049 0
M  V30 3 C 0.677209 -2.265584 3.191758 0
M  V30 4 N 1.025481 -1.196348 2.254127 0
M  V30 5 C 1.936921 -1.185426 1.169442 0
M  V30 6 O 2.633224 -2.192112 0.851483 0
M  V30 7 N 1.955993 0.073694 0.511187 0
M  V30 8 C 1.261845 1.002913 1.326712 0
M  V30 9 C 0.272288 1.858729 0.595942 0
M  V30 10 C 0.825121 2.624563 -0.539367 0
M  V30 11 C 1.432811 3.945972 -0.285693 0
M  V30 12 C 1.598828 4.405024 1.103836 0
M  V30 13 C 2.998499 4.046650 1.586081 0
M  V30 14 C 3.228220 2.569368 1.559731 0
M  V30 15 C 2.153863 1.801453 2.250602 0
M  V30 16 C 0.465515 0.117892 2.251749 0
M  V30 17 O -0.556824 0.388288 2.962957 0
M  V30 18 N -1.682356 -3.944543 2.278580 0
M  V30 19 C -2.183314 -3.527542 1.005655 0
M  V30 20 O -1.983131 -2.707085 0.106070 0
M  V30 21 N -3.220022 -4.532883 1.038130 0
M  V30 22 C -4.150158 -4.630321 -0.103649 0
M  V30 23 C -3.415000 -4.991303 -1.337435 0
M  V30 24 C -2.790689 -4.423394 -2.413664 0
M  V30 25 C -2.267073 -5.402435 -3.259165 0
M  V30 26 C -2.634951 -6.583406 -2.590789 0
M  V30 27 O -3.285602 -6.282733 -1.506165 0
M  V30 28 H 1.498213 -3.005896 3.222834 0
M  V30 29 H 0.423084 -1.911018 4.189840 0
M  V30 30 H 2.428673 0.200833 -0.420275 0
M  V30 31 H -0.271646 2.466458 1.345881 0
M  V30 32 H -0.493826 1.160023 0.205136 0
M  V30 33 H 1.585625 1.947174 -1.035943 0
M  V30 34 H 0.026168 2.692035 -1.335957 0
M  V30 35 H 2.430984 4.014407 -0.812974 0
M  V30 36 H 0.826559 4.721711 -0.838744 0
M  V30 37 H 1.555757 5.534378 1.171376 0
M  V30 38 H 0.892398 4.057686 1.847023 0
M  V30 39 H 3.210185 4.454803 2.572962 0
M  V30 40 H 3.711315 4.488856 0.828474 0
M  V30 41 H 3.368125 2.154170 0.538214 0
M  V30 42 H 4.226978 2.406041 2.055513 0
M  V30 43 H 2.628070 1.076872 2.945243 0
M  V30 44 H 1.501177 2.434383 2.889833 0
M  V30 45 H -1.065587 -3.820802 2.933197 0
M  V30 46 H -3.437627 -5.264382 1.784994 0
M  V30 47 H -4.995849 -5.249040 0.148133 0
M  V30 48 H -4.508925 -3.566050 -0.281257 0
M  V30 49 H -2.806105 -3.327378 -2.429592 0
M  V30 50 H -1.742402 -5.137837 -4.159777 0
M  V30 51 H -2.348326 -7.544132 -3.033501 0
M  V30 END ATOM
M  V30 BEGIN BOND
M  V30 1 2 1 2
M  V30 2 1 2 3
M  V30 3 1 3 4
M  V30 4 1 4 5
M  V30 5 2 5 6
M  V30 6 1 5 7
M  V30 7 1 7 8
M  V30 8 1 8 9
M  V30 9 1 9 10
M  V30 10 1 10 11
M  V30 11 1 11 12
M  V30 12 1 12 13
M  V30 13 1 13 14
M  V30 14 1 14 15
M  V30 15 1 8 16
M  V30 16 2 16 17
M  V30 17 1 2 18
M  V30 18 1 18 19
M  V30 19 2 19 20
M  V30 20 1 19 21
M  V30 21 1 21 22
M  V30 22 1 22 23
M  V30 23 2 23 24
M  V30 24 1 24 25
M  V30 25 2 25 26
M  V30 26 1 26 27
M  V30 27 1 16 4
M  V30 28 1 27 23
M  V30 29 1 15 8
M  V30 30 1 3 28
M  V30 31 1 3 29
M  V30 32 1 7 30
M  V30 33 1 9 31
M  V30 34 1 9 32
M  V30 35 1 10 33
M  V30 36 1 10 34
M  V30 37 1 11 35
M  V30 38 1 11 36
M  V30 39 1 12 37
M  V30 40 1 12 38
M  V30 41 1 13 39
M  V30 42 1 13 40
M  V30 43 1 14 41
M  V30 44 1 14 42
M  V30 45 1 15 43
M  V30 46 1 15 44
M  V30 47 1 18 45
M  V30 48 1 21 46
M  V30 49 1 22 47
M  V30 50 1 22 48
M  V30 51 1 24 49
M  V30 52 1 25 50
M  V30 53 1 26 51
M  V30 END BOND
M  V30 END CTAB
M  END
>  <Dataset>  (506) 
ChEMBL_Kinases

>  <Ligand_Instance>  (506) 
nan

>  <PDB_ID>  (506) 
nan

>  <Standardized_SMILES>  (506) 
O=C(CN1C(=O)NC2(CCCCCCC2)C1=O)NC(=O)NCc1ccco1

>  <Name>  (506) 
nan

>  <Pocket>  (506) 
nan

>  <ATP_Site>  (506) 
nan

>  <Peripheral>  (506) 
nan

>  <Num_H_Atoms_ProtBoundConf>  (506) 
nan

>  <Num_Resolved_Atoms>  (506) 
nan

>  <Num_Not_Resolved_Atoms>  (506) 
nan

$$$$
CHEMBL1524448
     RDKit          3D

  0  0  0  0  0  0  0  0  0  0999 V3000
M  V30 BEGIN CTAB
M  V30 COUNTS 35 36 0 0 0
M  V30 BEGIN ATOM
M  V30 1 C -2.171274 -0.883535 3.352843 0
M  V30 2 O -1.777905 -0.865233 1.985850 0
M  V30 3 C -1.255711 -2.005318 1.370630 0
M  V30 4 O -1.069734 -3.143304 1.905497 0
M  V30 5 C -0.838615 -2.014149 -0.049686 0
M  V30 6 C 0.448611 -1.687222 -0.363333 0
M  V30 7 N 1.530177 -1.311515 0.532422 0
M  V30 8 C 1.730678 0.061152 0.865789 0
M  V30 9 O 0.871420 0.774408 0.284050 0
M  V30 10 C 2.831669 0.391867 1.770993 0
M  V30 11 C 2.911547 1.856682 2.021587 0
M  V30 12 C 3.601075 2.847578 1.343180 0
M  V30 13 C 3.534430 4.129477 1.750719 0
M  V30 14 C 2.737206 4.488861 2.908569 0
M  V30 15 S 2.063451 2.758825 3.382280 0
M  V30 16 S 0.593972 -1.794870 -2.058128 0
M  V30 17 C -1.203869 -2.314195 -2.339767 0
M  V30 18 C -1.835425 -2.602962 -3.642395 0
M  V30 19 C -1.709050 -2.340575 -1.047057 0
M  V30 20 C -3.137723 -2.719258 -0.886328 0
M  V30 21 H -1.554940 -0.212838 3.974507 0
M  V30 22 H -2.088114 -1.919029 3.762254 0
M  V30 23 H -3.226956 -0.538929 3.471594 0
M  V30 24 H 2.138356 -2.097432 0.908086 0
M  V30 25 H 3.843586 0.081476 1.406736 0
M  V30 26 H 2.747395 -0.137761 2.764092 0
M  V30 27 H 4.180448 2.540808 0.490336 0
M  V30 28 H 4.037186 4.962731 1.283629 0
M  V30 29 H 2.576753 5.402673 3.350476 0
M  V30 30 H -2.287054 -3.638088 -3.606336 0
M  V30 31 H -1.106804 -2.627294 -4.465869 0
M  V30 32 H -2.647313 -1.909756 -3.907022 0
M  V30 33 H -3.464393 -2.490850 0.147986 0
M  V30 34 H -3.317562 -3.795200 -1.088272 0
M  V30 35 H -3.791355 -2.118681 -1.550624 0
M  V30 END ATOM
M  V30 BEGIN BOND
M  V30 1 1 1 2
M  V30 2 1 2 3
M  V30 3 2 3 4
M  V30 4 1 3 5
M  V30 5 2 5 6
M  V30 6 1 6 7
M  V30 7 1 7 8
M  V30 8 2 8 9
M  V30 9 1 8 10
M  V30 10 1 10 11
M  V30 11 2 11 12
M  V30 12 1 12 13
M  V30 13 2 13 14
M  V30 14 1 14 15
M  V30 15 1 6 16
M  V30 16 1 16 17
M  V30 17 1 17 18
M  V30 18 2 17 19
M  V30 19 1 19 20
M  V30 20 1 19 5
M  V30 21 1 15 11
M  V30 22 1 1 21
M  V30 23 1 1 22
M  V30 24 1 1 23
M  V30 25 1 7 24
M  V30 26 1 10 25
M  V30 27 1 10 26
M  V30 28 1 12 27
M  V30 29 1 13 28
M  V30 30 1 14 29
M  V30 31 1 18 30
M  V30 32 1 18 31
M  V30 33 1 18 32
M  V30 34 1 20 33
M  V30 35 1 20 34
M  V30 36 1 20 35
M  V30 END BOND
M  V30 END CTAB
M  END
>  <Dataset>  (507) 
ChEMBL_Kinases

>  <Ligand_Instance>  (507) 
nan

>  <PDB_ID>  (507) 
nan

>  <Standardized_SMILES>  (507) 
COC(=O)c1c(NC(=O)Cc2cccs2)sc(C)c1C

>  <Name>  (507) 
nan

>  <Pocket>  (507) 
nan

>  <ATP_Site>  (507) 
nan

>  <Peripheral>  (507) 
nan

>  <Num_H_Atoms_ProtBoundConf>  (507) 
nan

>  <Num_Resolved_Atoms>  (507) 
nan

>  <Num_Not_Resolved_Atoms>  (507) 
nan

$$$$
CHEMBL1524562
     RDKit          3D

  0  0  0  0  0  0  0  0  0  0999 V3000
M  V30 BEGIN CTAB
M  V30 COUNTS 35 37 0 0 0
M  V30 BEGIN ATOM
M  V30 1 C 2.217891 -3.352905 4.885193 0
M  V30 2 O 2.333706 -2.633998 3.696438 0
M  V30 3 C 1.542905 -2.867964 2.576991 0
M  V30 4 C 0.562048 -3.833684 2.523202 0
M  V30 5 C -0.128434 -3.933902 1.340146 0
M  V30 6 C 0.076554 -3.163499 0.227994 0
M  V30 7 C 1.076884 -2.206760 0.338472 0
M  V30 8 C 1.369392 -1.325371 -0.817913 0
M  V30 9 N 0.589063 -0.116786 -0.805592 0
M  V30 10 C 0.999121 1.095307 -0.174243 0
M  V30 11 O 2.087385 1.262853 0.448427 0
M  V30 12 C 0.002814 2.150961 -0.326823 0
M  V30 13 C -0.036800 3.463715 0.105898 0
M  V30 14 C -1.141511 4.236901 -0.200484 0
M  V30 15 C -2.171429 3.675641 -0.928819 0
M  V30 16 C -2.147325 2.364395 -1.369068 0
M  V30 17 N -3.210836 1.818459 -2.109550 0
M  V30 18 C -1.038658 1.576709 -1.065638 0
M  V30 19 C -0.674107 0.188372 -1.355817 0
M  V30 20 O -1.382612 -0.621467 -2.003168 0
M  V30 21 C 1.834995 -2.027485 1.500594 0
M  V30 22 H 2.875794 -4.241326 4.934991 0
M  V30 23 H 1.185908 -3.688741 5.099862 0
M  V30 24 H 2.512283 -2.661775 5.717354 0
M  V30 25 H 0.381377 -4.454640 3.388728 0
M  V30 26 H -0.902424 -4.687060 1.280117 0
M  V30 27 H -0.486243 -3.267746 -0.691715 0
M  V30 28 H 2.463163 -1.133520 -0.826146 0
M  V30 29 H 1.134594 -1.866653 -1.745684 0
M  V30 30 H 0.794164 3.846287 0.669275 0
M  V30 31 H -1.185669 5.271036 0.133677 0
M  V30 32 H -3.027975 4.316272 -1.152171 0
M  V30 33 H -3.090890 0.903733 -2.603668 0
M  V30 34 H -4.117039 2.307256 -2.176070 0
M  V30 35 H 2.596074 -1.264069 1.514502 0
M  V30 END ATOM
M  V30 BEGIN BOND
M  V30 1 1 1 2
M  V30 2 1 2 3
M  V30 3 2 3 4
M  V30 4 1 4 5
M  V30 5 2 5 6
M  V30 6 1 6 7
M  V30 7 1 7 8
M  V30 8 1 8 9
M  V30 9 1 9 10
M  V30 10 2 10 11
M  V30 11 1 10 12
M  V30 12 2 12 13
M  V30 13 1 13 14
M  V30 14 2 14 15
M  V30 15 1 15 16
M  V30 16 1 16 17
M  V30 17 2 16 18
M  V30 18 1 18 19
M  V30 19 2 19 20
M  V30 20 2 7 21
M  V30 21 1 21 3
M  V30 22 1 19 9
M  V30 23 1 18 12
M  V30 24 1 1 22
M  V30 25 1 1 23
M  V30 26 1 1 24
M  V30 27 1 4 25
M  V30 28 1 5 26
M  V30 29 1 6 27
M  V30 30 1 8 28
M  V30 31 1 8 29
M  V30 32 1 13 30
M  V30 33 1 14 31
M  V30 34 1 15 32
M  V30 35 1 17 33
M  V30 36 1 17 34
M  V30 37 1 21 35
M  V30 END BOND
M  V30 END CTAB
M  END
>  <Dataset>  (508) 
ChEMBL_Kinases

>  <Ligand_Instance>  (508) 
nan

>  <PDB_ID>  (508) 
nan

>  <Standardized_SMILES>  (508) 
COc1cccc(CN2C(=O)c3cccc(N)c3C2=O)c1

>  <Name>  (508) 
nan

>  <Pocket>  (508) 
nan

>  <ATP_Site>  (508) 
nan

>  <Peripheral>  (508) 
nan

>  <Num_H_Atoms_ProtBoundConf>  (508) 
nan

>  <Num_Resolved_Atoms>  (508) 
nan

>  <Num_Not_Resolved_Atoms>  (508) 
nan

$$$$
CHEMBL1524608
     RDKit          3D

  0  0  0  0  0  0  0  0  0  0999 V3000
M  V30 BEGIN CTAB
M  V30 COUNTS 41 43 0 0 0
M  V30 BEGIN ATOM
M  V30 1 C 0.716324 -6.843276 3.643388 0
M  V30 2 C 1.398871 -5.556925 3.234754 0
M  V30 3 C 0.724088 -4.345448 3.842650 0
M  V30 4 N 1.410300 -3.102575 3.439486 0
M  V30 5 C 1.161184 -2.296285 2.321610 0
M  V30 6 O 0.251943 -2.607803 1.505830 0
M  V30 7 C 2.028099 -1.130406 2.228386 0
M  V30 8 C 1.806846 -0.024430 1.542723 0
M  V30 9 C 0.595177 0.158567 0.756493 0
M  V30 10 C 0.414247 1.280818 0.085784 0
M  V30 11 S 1.659733 2.600721 0.133095 0
M  V30 12 C 0.728160 3.692134 -0.938549 0
M  V30 13 C 1.011773 4.953563 -1.403226 0
M  V30 14 C 0.154678 5.632590 -2.232683 0
M  V30 15 C -1.003124 4.965171 -2.565294 0
M  V30 16 C -1.300682 3.712333 -2.113177 0
M  V30 17 C -0.433960 3.035375 -1.279113 0
M  V30 18 N -0.641606 1.737014 -0.749839 0
M  V30 19 C -1.784018 0.863443 -0.977161 0
M  V30 20 C -1.433940 -0.342670 -1.795999 0
M  V30 21 S 3.448313 -1.563204 3.267298 0
M  V30 22 C 2.470542 -2.670315 4.320831 0
M  V30 23 S 2.783150 -3.026580 5.864746 0
M  V30 24 H -0.273447 -6.892896 3.149754 0
M  V30 25 H 0.622989 -6.901506 4.755989 0
M  V30 26 H 1.307122 -7.700482 3.277435 0
M  V30 27 H 1.258332 -5.492256 2.122252 0
M  V30 28 H 2.450847 -5.541030 3.524036 0
M  V30 29 H 0.548523 -4.407633 4.913893 0
M  V30 30 H -0.309108 -4.340780 3.381538 0
M  V30 31 H 2.583407 0.718098 1.611385 0
M  V30 32 H -0.213437 -0.539802 0.648790 0
M  V30 33 H 1.936619 5.404619 -1.098918 0
M  V30 34 H 0.353558 6.621049 -2.611362 0
M  V30 35 H -1.685748 5.514719 -3.228947 0
M  V30 36 H -2.262233 3.316141 -2.465542 0
M  V30 37 H -2.140807 0.555952 0.048146 0
M  V30 38 H -2.635894 1.407913 -1.427693 0
M  V30 39 H -2.199227 -0.460874 -2.616604 0
M  V30 40 H -0.471386 -0.184887 -2.328956 0
M  V30 41 H -1.483373 -1.294207 -1.232147 0
M  V30 END ATOM
M  V30 BEGIN BOND
M  V30 1 1 1 2
M  V30 2 1 2 3
M  V30 3 1 3 4
M  V30 4 1 4 5
M  V30 5 2 5 6
M  V30 6 1 5 7
M  V30 7 2 7 8
M  V30 8 1 8 9
M  V30 9 2 9 10
M  V30 10 1 10 11
M  V30 11 1 11 12
M  V30 12 2 12 13
M  V30 13 1 13 14
M  V30 14 2 14 15
M  V30 15 1 15 16
M  V30 16 2 16 17
M  V30 17 1 17 18
M  V30 18 1 18 19
M  V30 19 1 19 20
M  V30 20 1 7 21
M  V30 21 1 21 22
M  V30 22 2 22 23
M  V30 23 1 22 4
M  V30 24 1 18 10
M  V30 25 1 17 12
M  V30 26 1 1 24
M  V30 27 1 1 25
M  V30 28 1 1 26
M  V30 29 1 2 27
M  V30 30 1 2 28
M  V30 31 1 3 29
M  V30 32 1 3 30
M  V30 33 1 8 31
M  V30 34 1 9 32
M  V30 35 1 13 33
M  V30 36 1 14 34
M  V30 37 1 15 35
M  V30 38 1 16 36
M  V30 39 1 19 37
M  V30 40 1 19 38
M  V30 41 1 20 39
M  V30 42 1 20 40
M  V30 43 1 20 41
M  V30 END BOND
M  V30 END CTAB
M  END
>  <Dataset>  (509) 
ChEMBL_Kinases

>  <Ligand_Instance>  (509) 
nan

>  <PDB_ID>  (509) 
nan

>  <Standardized_SMILES>  (509) 
CCCN1C(=O)/C(=C\C=C2/Sc3ccccc3N2CC)SC1=S

>  <Name>  (509) 
nan

>  <Pocket>  (509) 
nan

>  <ATP_Site>  (509) 
nan

>  <Peripheral>  (509) 
nan

>  <Num_H_Atoms_ProtBoundConf>  (509) 
nan

>  <Num_Resolved_Atoms>  (509) 
nan

>  <Num_Not_Resolved_Atoms>  (509) 
nan

$$$$
CHEMBL1524995
     RDKit          3D

  0  0  0  0  0  0  0  0  0  0999 V3000
M  V30 BEGIN CTAB
M  V30 COUNTS 51 53 0 0 0
M  V30 BEGIN ATOM
M  V30 1 C -2.515168 -7.827798 4.231520 0
M  V30 2 O -2.919126 -7.211392 3.001442 0
M  V30 3 C -2.062669 -6.287523 2.418167 0
M  V30 4 C -0.847300 -5.939902 2.969386 0
M  V30 5 C 0.042674 -5.032842 2.438155 0
M  V30 6 C -0.302425 -4.407608 1.244967 0
M  V30 7 C 0.499422 -3.422820 0.530704 0
M  V30 8 C 1.197654 -2.510858 1.138560 0
M  V30 9 S 1.339722 -2.249735 2.925807 0
M  V30 10 C 1.883899 -0.525838 2.763707 0
M  V30 11 S 1.828265 0.682899 3.860143 0
M  V30 12 N 2.398145 -0.425153 1.421422 0
M  V30 13 C 3.240242 0.709913 1.011297 0
M  V30 14 C 2.305047 1.774747 0.496375 0
M  V30 15 C 3.061734 3.004367 0.035594 0
M  V30 16 C 2.136848 4.044858 -0.459187 0
M  V30 17 O 1.131028 3.313260 -0.182500 0
M  V30 18 N 2.267235 5.323687 -1.013768 0
M  V30 19 C 0.921423 5.778994 -1.271458 0
M  V30 20 C 0.329662 5.514177 -2.488214 0
M  V30 21 C -0.964795 5.973274 -2.677397 0
M  V30 22 C -1.532406 6.651482 -1.624782 0
M  V30 23 C -0.946778 6.924656 -0.393997 0
M  V30 24 N 0.325437 6.447320 -0.269994 0
M  V30 25 C 2.025034 -1.488886 0.565472 0
M  V30 26 O 2.392070 -1.558162 -0.653897 0
M  V30 27 C -1.519174 -4.738510 0.668884 0
M  V30 28 C -2.388925 -5.658386 1.235745 0
M  V30 29 O -3.580137 -5.947365 0.622242 0
M  V30 30 C -4.023652 -5.375399 -0.577443 0
M  V30 31 H -3.285011 -8.517857 4.600307 0
M  V30 32 H -2.390654 -7.039868 5.009550 0
M  V30 33 H -1.503481 -8.276295 4.121182 0
M  V30 34 H -0.576909 -6.426953 3.897866 0
M  V30 35 H 0.981204 -4.766021 2.864509 0
M  V30 36 H 0.516534 -3.450950 -0.561858 0
M  V30 37 H 3.804722 1.085319 1.878869 0
M  V30 38 H 3.934831 0.327365 0.256588 0
M  V30 39 H 1.801201 1.322282 -0.403857 0
M  V30 40 H 1.573228 2.014240 1.284307 0
M  V30 41 H 3.576433 3.420577 0.929196 0
M  V30 42 H 3.769784 2.714740 -0.761567 0
M  V30 43 H 3.303463 5.528574 -1.059961 0
M  V30 44 H 0.862757 4.970494 -3.256373 0
M  V30 45 H -1.490676 5.806401 -3.595350 0
M  V30 46 H -2.555752 7.015506 -1.767896 0
M  V30 47 H -1.487648 7.467375 0.363071 0
M  V30 48 H -1.836757 -4.276368 -0.266036 0
M  V30 49 H -4.867498 -5.927714 -1.013166 0
M  V30 50 H -4.380285 -4.321836 -0.409458 0
M  V30 51 H -3.224769 -5.331173 -1.352217 0
M  V30 END ATOM
M  V30 BEGIN BOND
M  V30 1 1 1 2
M  V30 2 1 2 3
M  V30 3 2 3 4
M  V30 4 1 4 5
M  V30 5 2 5 6
M  V30 6 1 6 7
M  V30 7 2 7 8
M  V30 8 1 8 9
M  V30 9 1 9 10
M  V30 10 2 10 11
M  V30 11 1 10 12
M  V30 12 1 12 13
M  V30 13 1 13 14
M  V30 14 1 14 15
M  V30 15 1 15 16
M  V30 16 2 16 17
M  V30 17 1 16 18
M  V30 18 1 18 19
M  V30 19 2 19 20
M  V30 20 1 20 21
M  V30 21 2 21 22
M  V30 22 1 22 23
M  V30 23 2 23 24
M  V30 24 1 12 25
M  V30 25 2 25 26
M  V30 26 1 6 27
M  V30 27 2 27 28
M  V30 28 1 28 29
M  V30 29 1 29 30
M  V30 30 1 28 3
M  V30 31 1 25 8
M  V30 32 1 24 19
M  V30 33 1 1 31
M  V30 34 1 1 32
M  V30 35 1 1 33
M  V30 36 1 4 34
M  V30 37 1 5 35
M  V30 38 1 7 36
M  V30 39 1 13 37
M  V30 40 1 13 38
M  V30 41 1 14 39
M  V30 42 1 14 40
M  V30 43 1 15 41
M  V30 44 1 15 42
M  V30 45 1 18 43
M  V30 46 1 20 44
M  V30 47 1 21 45
M  V30 48 1 22 46
M  V30 49 1 23 47
M  V30 50 1 27 48
M  V30 51 1 30 49
M  V30 52 1 30 50
M  V30 53 1 30 51
M  V30 END BOND
M  V30 END CTAB
M  END
>  <Dataset>  (510) 
ChEMBL_Kinases

>  <Ligand_Instance>  (510) 
nan

>  <PDB_ID>  (510) 
nan

>  <Standardized_SMILES>  (510) 
COc1ccc(/C=C2\SC(=S)N(CCCC(=O)Nc3ccccn3)C2=O)cc1OC

>  <Name>  (510) 
nan

>  <Pocket>  (510) 
nan

>  <ATP_Site>  (510) 
nan

>  <Peripheral>  (510) 
nan

>  <Num_H_Atoms_ProtBoundConf>  (510) 
nan

>  <Num_Resolved_Atoms>  (510) 
nan

>  <Num_Not_Resolved_Atoms>  (510) 
nan

$$$$
CHEMBL1525020
     RDKit          3D

  0  0  0  0  0  0  0  0  0  0999 V3000
M  V30 BEGIN CTAB
M  V30 COUNTS 63 65 0 0 0
M  V30 BEGIN ATOM
M  V30 1 C -1.642779 -1.845129 5.167829 0
M  V30 2 O -1.720253 -2.642734 4.010016 0
M  V30 3 C -0.717186 -2.746918 3.072067 0
M  V30 4 C 0.481170 -2.073379 3.170427 0
M  V30 5 C 1.533462 -2.140326 2.250689 0
M  V30 6 C 2.787109 -1.396111 2.410299 0
M  V30 7 N 2.847262 -0.110671 1.784873 0
M  V30 8 C 1.834860 0.763171 2.212201 0
M  V30 9 C 1.554586 1.918037 1.291175 0
M  V30 10 C 1.446168 1.542965 -0.153372 0
M  V30 11 C 2.175000 2.624083 -0.935972 0
M  V30 12 O 1.582237 3.852629 -0.701674 0
M  V30 13 C 0.004888 1.614162 -0.664080 0
M  V30 14 C -0.914066 0.714054 0.064198 0
M  V30 15 O -2.212742 0.807347 -0.428464 0
M  V30 16 C -2.744902 0.539080 -1.636942 0
M  V30 17 C -2.289050 0.072046 -2.846983 0
M  V30 18 C -3.076604 -0.112109 -3.958942 0
M  V30 19 C -4.416964 0.182230 -3.885640 0
M  V30 20 C -4.943269 0.656492 -2.696513 0
M  V30 21 C -4.103842 0.829085 -1.588850 0
M  V30 22 C 2.061199 0.246848 -0.520181 0
M  V30 23 C 3.130908 -0.234779 0.415432 0
M  V30 24 C 1.243457 -2.978378 1.196236 0
M  V30 25 C 0.074294 -3.687366 1.021203 0
M  V30 26 O -0.173755 -4.520390 -0.058364 0
M  V30 27 C 0.690207 -4.775843 -1.119610 0
M  V30 28 C -0.911350 -3.562001 1.977846 0
M  V30 29 O -2.104177 -4.257251 1.841962 0
M  V30 30 C -3.136154 -3.564439 1.128404 0
M  V30 31 H -0.930267 -2.232631 5.923186 0
M  V30 32 H -2.615499 -1.598728 5.595934 0
M  V30 33 H -1.214451 -0.855460 4.830529 0
M  V30 34 H 0.571475 -1.455741 4.053445 0
M  V30 35 H 2.971013 -1.329275 3.520795 0
M  V30 36 H 3.600235 -2.083700 2.036292 0
M  V30 37 H 2.107943 1.149805 3.216335 0
M  V30 38 H 0.895556 0.181578 2.363326 0
M  V30 39 H 0.589199 2.371463 1.594042 0
M  V30 40 H 2.323962 2.695358 1.472819 0
M  V30 41 H 3.266106 2.613105 -0.736282 0
M  V30 42 H 1.978307 2.377498 -2.017758 0
M  V30 43 H 1.781487 4.211200 0.189981 0
M  V30 44 H 0.025859 1.467585 -1.752634 0
M  V30 45 H -0.397431 2.658125 -0.532483 0
M  V30 46 H -0.624803 -0.357789 0.032039 0
M  V30 47 H -0.981606 1.066457 1.136364 0
M  V30 48 H -1.234211 -0.148811 -2.830459 0
M  V30 49 H -2.550886 -0.484373 -4.818345 0
M  V30 50 H -5.009813 0.026865 -4.776514 0
M  V30 51 H -6.001813 0.853687 -2.751701 0
M  V30 52 H -4.712356 1.206876 -0.765379 0
M  V30 53 H 2.549435 0.236452 -1.538151 0
M  V30 54 H 1.297412 -0.554018 -0.602065 0
M  V30 55 H 4.077699 0.358329 0.217040 0
M  V30 56 H 3.430576 -1.274197 0.183117 0
M  V30 57 H 1.968796 -3.127462 0.410979 0
M  V30 58 H 1.405669 -3.960496 -1.359487 0
M  V30 59 H 1.302470 -5.665738 -0.872414 0
M  V30 60 H 0.151703 -4.964480 -2.081936 0
M  V30 61 H -4.099027 -4.088857 1.161529 0
M  V30 62 H -3.178152 -2.546432 1.601764 0
M  V30 63 H -2.739766 -3.393168 0.097114 0
M  V30 END ATOM
M  V30 BEGIN BOND
M  V30 1 1 1 2
M  V30 2 1 2 3
M  V30 3 2 3 4
M  V30 4 1 4 5
M  V30 5 1 5 6
M  V30 6 1 6 7
M  V30 7 1 7 8
M  V30 8 1 8 9
M  V30 9 1 9 10
M  V30 10 1 10 11
M  V30 11 1 11 12
M  V30 12 1 10 13
M  V30 13 1 13 14
M  V30 14 1 14 15
M  V30 15 1 15 16
M  V30 16 2 16 17
M  V30 17 1 17 18
M  V30 18 2 18 19
M  V30 19 1 19 20
M  V30 20 2 20 21
M  V30 21 1 10 22
M  V30 22 1 22 23
M  V30 23 2 5 24
M  V30 24 1 24 25
M  V30 25 1 25 26
M  V30 26 1 26 27
M  V30 27 2 25 28
M  V30 28 1 28 29
M  V30 29 1 29 30
M  V30 30 1 28 3
M  V30 31 1 23 7
M  V30 32 1 21 16
M  V30 33 1 1 31
M  V30 34 1 1 32
M  V30 35 1 1 33
M  V30 36 1 4 34
M  V30 37 1 6 35
M  V30 38 1 6 36
M  V30 39 1 8 37
M  V30 40 1 8 38
M  V30 41 1 9 39
M  V30 42 1 9 40
M  V30 43 1 11 41
M  V30 44 1 11 42
M  V30 45 1 12 43
M  V30 46 1 13 44
M  V30 47 1 13 45
M  V30 48 1 14 46
M  V30 49 1 14 47
M  V30 50 1 17 48
M  V30 51 1 18 49
M  V30 52 1 19 50
M  V30 53 1 20 51
M  V30 54 1 21 52
M  V30 55 1 22 53
M  V30 56 1 22 54
M  V30 57 1 23 55
M  V30 58 1 23 56
M  V30 59 1 24 57
M  V30 60 1 27 58
M  V30 61 1 27 59
M  V30 62 1 27 60
M  V30 63 1 30 61
M  V30 64 1 30 62
M  V30 65 1 30 63
M  V30 END BOND
M  V30 END CTAB
M  END
>  <Dataset>  (511) 
ChEMBL_Kinases

>  <Ligand_Instance>  (511) 
nan

>  <PDB_ID>  (511) 
nan

>  <Standardized_SMILES>  (511) 
COc1cc(CN2CCC(CO)(CCOc3ccccc3)CC2)cc(OC)c1OC

>  <Name>  (511) 
nan

>  <Pocket>  (511) 
nan

>  <ATP_Site>  (511) 
nan

>  <Peripheral>  (511) 
nan

>  <Num_H_Atoms_ProtBoundConf>  (511) 
nan

>  <Num_Resolved_Atoms>  (511) 
nan

>  <Num_Not_Resolved_Atoms>  (511) 
nan

$$$$
CHEMBL1525148
     RDKit          3D

  0  0  0  0  0  0  0  0  0  0999 V3000
M  V30 BEGIN CTAB
M  V30 COUNTS 38 40 0 0 0
M  V30 BEGIN ATOM
M  V30 1 C -1.882000 -5.158661 2.992162 0
M  V30 2 C -0.411407 -5.151744 2.790184 0
M  V30 3 O 0.274424 -6.196186 3.014036 0
M  V30 4 C 0.290345 -3.968811 2.335695 0
M  V30 5 C 1.653596 -4.019628 2.165835 0
M  V30 6 C 2.398637 -2.954148 1.741106 0
M  V30 7 C 1.709670 -1.787593 1.480603 0
M  V30 8 C 0.352130 -1.735593 1.649335 0
M  V30 9 N -0.217011 -0.468352 1.342247 0
M  V30 10 C -0.663533 -0.173804 0.032193 0
M  V30 11 O -0.685312 -0.851045 -1.070164 0
M  V30 12 C -1.209837 0.472988 -1.139812 0
M  V30 13 C -0.845923 1.868359 -1.600610 0
M  V30 14 C 0.274945 2.469190 -0.889363 0
M  V30 15 C 0.360608 2.878055 0.422524 0
M  V30 16 C 1.446534 3.434688 1.057141 0
M  V30 17 C 2.590074 3.612786 0.313839 0
M  V30 18 C 2.604604 3.240153 -0.992510 0
M  V30 19 C 1.492044 2.695934 -1.552261 0
M  V30 20 C -2.172103 1.572244 -1.122620 0
M  V30 21 Cl -3.462191 1.453792 -2.383952 0
M  V30 22 Cl -2.876533 2.169535 0.387084 0
M  V30 23 C -0.404721 -2.806512 2.077311 0
M  V30 24 H -2.143717 -4.181686 3.469049 0
M  V30 25 H -2.192093 -6.011654 3.624367 0
M  V30 26 H -2.349959 -5.172830 1.994008 0
M  V30 27 H 2.205488 -4.941547 2.370710 0
M  V30 28 H 3.469958 -3.021967 1.616082 0
M  V30 29 H 2.318481 -0.944054 1.141761 0
M  V30 30 H -0.500576 0.473277 1.686934 0
M  V30 31 H -1.220626 -0.234253 -2.035636 0
M  V30 32 H -0.718569 2.005257 -2.729911 0
M  V30 33 H -0.519715 2.754858 1.027106 0
M  V30 34 H 1.412271 3.718227 2.078686 0
M  V30 35 H 3.465350 4.045791 0.771250 0
M  V30 36 H 3.512025 3.387697 -1.561075 0
M  V30 37 H 1.584929 2.420743 -2.614757 0
M  V30 38 H -1.465566 -2.714640 2.193602 0
M  V30 END ATOM
M  V30 BEGIN BOND
M  V30 1 1 1 2
M  V30 2 2 2 3
M  V30 3 1 2 4
M  V30 4 2 4 5
M  V30 5 1 5 6
M  V30 6 2 6 7
M  V30 7 1 7 8
M  V30 8 1 8 9
M  V30 9 1 9 10
M  V30 10 2 10 11
M  V30 11 1 10 12
M  V30 12 1 12 13
M  V30 13 1 13 14
M  V30 14 2 14 15
M  V30 15 1 15 16
M  V30 16 2 16 17
M  V30 17 1 17 18
M  V30 18 2 18 19
M  V30 19 1 13 20
M  V30 20 1 20 21
M  V30 21 1 20 22
M  V30 22 2 8 23
M  V30 23 1 23 4
M  V30 24 1 20 12
M  V30 25 1 19 14
M  V30 26 1 1 24
M  V30 27 1 1 25
M  V30 28 1 1 26
M  V30 29 1 5 27
M  V30 30 1 6 28
M  V30 31 1 7 29
M  V30 32 1 9 30
M  V30 33 1 12 31
M  V30 34 1 13 32
M  V30 35 1 15 33
M  V30 36 1 16 34
M  V30 37 1 17 35
M  V30 38 1 18 36
M  V30 39 1 19 37
M  V30 40 1 23 38
M  V30 END BOND
M  V30 END CTAB
M  END
>  <Dataset>  (512) 
ChEMBL_Kinases

>  <Ligand_Instance>  (512) 
nan

>  <PDB_ID>  (512) 
nan

>  <Standardized_SMILES>  (512) 
CC(=O)c1cccc(NC(=O)C2C(c3ccccc3)C2(Cl)Cl)c1

>  <Name>  (512) 
nan

>  <Pocket>  (512) 
nan

>  <ATP_Site>  (512) 
nan

>  <Peripheral>  (512) 
nan

>  <Num_H_Atoms_ProtBoundConf>  (512) 
nan

>  <Num_Resolved_Atoms>  (512) 
nan

>  <Num_Not_Resolved_Atoms>  (512) 
nan

$$$$
CHEMBL1525179
     RDKit          3D

  0  0  0  0  0  0  0  0  0  0999 V3000
M  V30 BEGIN CTAB
M  V30 COUNTS 54 58 0 0 0
M  V30 BEGIN ATOM
M  V30 1 C -0.254711 0.570810 3.552947 0
M  V30 2 N 1.075705 0.813239 2.977183 0
M  V30 3 C 1.988298 -0.002948 3.754109 0
M  V30 4 C 3.433142 0.357601 3.522464 0
M  V30 5 C 3.707495 -0.039496 2.094706 0
M  V30 6 C 4.935021 -0.391778 1.595883 0
M  V30 7 C 5.100650 -0.739810 0.290996 0
M  V30 8 C 3.983573 -0.727107 -0.523509 0
M  V30 9 C 2.732409 -0.367983 -0.015327 0
M  V30 10 C 2.568298 -0.011094 1.327565 0
M  V30 11 C 1.123827 0.332491 1.603725 0 CFG=2
M  V30 12 C 0.668199 1.414583 0.654475 0
M  V30 13 C -0.704171 1.903770 0.881531 0
M  V30 14 C -0.740990 3.147734 1.527198 0
M  V30 15 C -1.911124 3.781937 1.833757 0
M  V30 16 C -3.097703 3.163687 1.489224 0
M  V30 17 C -3.025150 1.952952 0.861402 0
M  V30 18 C -1.873298 1.273009 0.530592 0
M  V30 19 N -1.805108 0.042255 -0.110157 0
M  V30 20 C -2.816438 -0.833283 -0.574675 0
M  V30 21 O -4.015489 -0.429219 -0.375585 0
M  V30 22 C -2.654498 -2.130445 -1.247553 0
M  V30 23 S -4.221193 -2.910497 -1.668969 0
M  V30 24 C -3.421243 -4.398282 -2.432495 0
M  V30 25 C -4.032757 -5.505106 -3.013425 0
M  V30 26 C -3.200237 -6.480769 -3.510782 0
M  V30 27 C -1.851938 -6.248503 -3.375726 0
M  V30 28 C -1.285479 -5.139755 -2.794301 0
M  V30 29 C -2.094958 -4.144276 -2.286444 0
M  V30 30 C -1.734863 -2.973496 -1.675113 0
M  V30 31 Cl -0.052133 -2.480747 -1.399053 0
M  V30 32 H -0.854910 -0.058902 2.877724 0
M  V30 33 H -0.159111 -0.038512 4.492448 0
M  V30 34 H -0.747818 1.503852 3.887147 0
M  V30 35 H 1.881221 -1.068800 3.445107 0
M  V30 36 H 1.733516 0.027149 4.826887 0
M  V30 37 H 3.671635 1.415725 3.632225 0
M  V30 38 H 4.042014 -0.306183 4.168466 0
M  V30 39 H 5.692411 -0.346825 2.368923 0
M  V30 40 H 6.104255 -1.003032 -0.015738 0
M  V30 41 H 4.184885 -1.014248 -1.550938 0
M  V30 42 H 2.003613 -0.417104 -0.788938 0
M  V30 43 H 0.483509 -0.570291 1.609965 0
M  V30 44 H 0.695569 1.074743 -0.405650 0
M  V30 45 H 1.441701 2.206079 0.703118 0
M  V30 46 H 0.160239 3.685252 1.824189 0
M  V30 47 H -1.925457 4.742754 2.332767 0
M  V30 48 H -4.015654 3.675960 1.737342 0
M  V30 49 H -3.992978 1.551502 0.633652 0
M  V30 50 H -0.876379 -0.377572 -0.326579 0
M  V30 51 H -5.106426 -5.517933 -3.031762 0
M  V30 52 H -3.643994 -7.343730 -3.963336 0
M  V30 53 H -1.201797 -7.031227 -3.774899 0
M  V30 54 H -0.202220 -5.111585 -2.768067 0
M  V30 END ATOM
M  V30 BEGIN BOND
M  V30 1 1 1 2
M  V30 2 1 2 3
M  V30 3 1 3 4
M  V30 4 1 4 5
M  V30 5 2 5 6
M  V30 6 1 6 7
M  V30 7 2 7 8
M  V30 8 1 8 9
M  V30 9 2 9 10
M  V30 10 1 10 11
M  V30 11 1 11 12
M  V30 12 1 12 13
M  V30 13 2 13 14
M  V30 14 1 14 15
M  V30 15 2 15 16
M  V30 16 1 16 17
M  V30 17 2 17 18
M  V30 18 1 18 19
M  V30 19 1 19 20
M  V30 20 2 20 21
M  V30 21 1 20 22
M  V30 22 1 22 23
M  V30 23 1 23 24
M  V30 24 2 24 25
M  V30 25 1 25 26
M  V30 26 2 26 27
M  V30 27 1 27 28
M  V30 28 2 28 29
M  V30 29 1 29 30
M  V30 30 1 30 31
M  V30 31 1 11 2
M  V30 32 1 18 13
M  V30 33 2 30 22
M  V30 34 1 10 5
M  V30 35 1 29 24
M  V30 36 1 1 32
M  V30 37 1 1 33
M  V30 38 1 1 34
M  V30 39 1 3 35
M  V30 40 1 3 36
M  V30 41 1 4 37
M  V30 42 1 4 38
M  V30 43 1 6 39
M  V30 44 1 7 40
M  V30 45 1 8 41
M  V30 46 1 9 42
M  V30 47 1 11 43 CFG=1
M  V30 48 1 12 44
M  V30 49 1 12 45
M  V30 50 1 14 46
M  V30 51 1 15 47
M  V30 52 1 16 48
M  V30 53 1 17 49
M  V30 54 1 19 50
M  V30 55 1 25 51
M  V30 56 1 26 52
M  V30 57 1 27 53
M  V30 58 1 28 54
M  V30 END BOND
M  V30 END CTAB
M  END
>  <Dataset>  (513) 
ChEMBL_Kinases

>  <Ligand_Instance>  (513) 
nan

>  <PDB_ID>  (513) 
nan

>  <Standardized_SMILES>  (513) 
CN1CCc2ccccc2[C@@H]1Cc1ccccc1NC(=O)c1sc2ccccc2c1Cl

>  <Name>  (513) 
nan

>  <Pocket>  (513) 
nan

>  <ATP_Site>  (513) 
nan

>  <Peripheral>  (513) 
nan

>  <Num_H_Atoms_ProtBoundConf>  (513) 
nan

>  <Num_Resolved_Atoms>  (513) 
nan

>  <Num_Not_Resolved_Atoms>  (513) 
nan

$$$$
CHEMBL1526043
     RDKit          3D

  0  0  0  0  0  0  0  0  0  0999 V3000
M  V30 BEGIN CTAB
M  V30 COUNTS 46 50 0 0 0
M  V30 BEGIN ATOM
M  V30 1 N 1.779880 -8.238192 -1.800040 0
M  V30 2 C 2.225186 -7.273364 -1.343921 0
M  V30 3 C 2.787139 -6.072066 -0.748244 0
M  V30 4 C 4.116927 -6.058125 -0.382188 0
M  V30 5 C 4.645516 -4.902869 0.187393 0
M  V30 6 C 3.796219 -3.812368 0.359115 0
M  V30 7 C 2.447473 -3.819993 -0.009762 0
M  V30 8 C 1.614684 -2.640441 0.199252 0
M  V30 9 N 2.029045 -1.393042 -0.114047 0
M  V30 10 C 1.218168 -0.314516 0.097448 0
M  V30 11 C 1.774067 0.893315 -0.269723 0
M  V30 12 N 0.967166 1.975664 -0.060243 0
M  V30 13 C -0.265299 1.844181 0.463318 0
M  V30 14 N -1.016579 3.040877 0.637066 0
M  V30 15 C -0.415620 4.297832 0.226010 0
M  V30 16 C -0.566116 5.256380 1.405028 0
M  V30 17 O -1.880386 5.275982 1.865554 0
M  V30 18 C -2.236286 4.040922 2.397148 0
M  V30 19 C -2.355147 3.080025 1.204484 0
M  V30 20 N -0.731219 0.626803 0.794395 0
M  V30 21 C -0.035955 -0.515781 0.637847 0
M  V30 22 N -0.504666 -1.721729 0.968795 0
M  V30 23 C -1.798866 -1.874423 1.518101 0
M  V30 24 C -2.185670 -0.979780 2.666843 0
M  V30 25 C -2.932619 -1.000434 1.349287 0
M  V30 26 C 0.346983 -2.739423 0.733576 0
M  V30 27 O -0.027361 -3.910285 1.021659 0
M  V30 28 C 1.962241 -4.980354 -0.569451 0
M  V30 29 H 4.783196 -6.902051 -0.512634 0
M  V30 30 H 5.681624 -4.789938 0.510277 0
M  V30 31 H 4.209193 -2.898604 0.808227 0
M  V30 32 H 2.755215 0.975563 -0.683978 0
M  V30 33 H -1.062401 4.691585 -0.582218 0
M  V30 34 H 0.635669 4.212434 -0.039560 0
M  V30 35 H -0.297939 6.300583 1.140287 0
M  V30 36 H 0.099265 4.948455 2.253496 0
M  V30 37 H -3.172782 4.116878 2.963520 0
M  V30 38 H -1.397233 3.603591 3.004758 0
M  V30 39 H -3.094474 3.471147 0.484541 0
M  V30 40 H -2.598815 2.093366 1.599002 0
M  V30 41 H -2.030550 -2.957680 1.756451 0
M  V30 42 H -2.681955 -1.394279 3.570242 0
M  V30 43 H -1.650457 -0.039811 2.874078 0
M  V30 44 H -2.990524 -0.104046 0.729930 0
M  V30 45 H -3.964504 -1.447279 1.444059 0
M  V30 46 H 0.906862 -5.011179 -0.867276 0
M  V30 END ATOM
M  V30 BEGIN BOND
M  V30 1 3 1 2
M  V30 2 1 2 3
M  V30 3 2 3 4
M  V30 4 1 4 5
M  V30 5 2 5 6
M  V30 6 1 6 7
M  V30 7 1 7 8
M  V30 8 2 8 9
M  V30 9 1 9 10
M  V30 10 2 10 11
M  V30 11 1 11 12
M  V30 12 2 12 13
M  V30 13 1 13 14
M  V30 14 1 14 15
M  V30 15 1 15 16
M  V30 16 1 16 17
M  V30 17 1 17 18
M  V30 18 1 18 19
M  V30 19 1 13 20
M  V30 20 2 20 21
M  V30 21 1 21 22
M  V30 22 1 22 23
M  V30 23 1 23 24
M  V30 24 1 24 25
M  V30 25 1 22 26
M  V30 26 2 26 27
M  V30 27 2 7 28
M  V30 28 1 28 3
M  V30 29 1 26 8
M  V30 30 1 21 10
M  V30 31 1 25 23
M  V30 32 1 19 14
M  V30 33 1 4 29
M  V30 34 1 5 30
M  V30 35 1 6 31
M  V30 36 1 11 32
M  V30 37 1 15 33
M  V30 38 1 15 34
M  V30 39 1 16 35
M  V30 40 1 16 36
M  V30 41 1 18 37
M  V30 42 1 18 38
M  V30 43 1 19 39
M  V30 44 1 19 40
M  V30 45 1 23 41
M  V30 46 1 24 42
M  V30 47 1 24 43
M  V30 48 1 25 44
M  V30 49 1 25 45
M  V30 50 1 28 46
M  V30 END BOND
M  V30 END CTAB
M  END
>  <Dataset>  (514) 
ChEMBL_Kinases

>  <Ligand_Instance>  (514) 
nan

>  <PDB_ID>  (514) 
nan

>  <Standardized_SMILES>  (514) 
N#Cc1cccc(-c2nc3cnc(N4CCOCC4)nc3n(C3CC3)c2=O)c1

>  <Name>  (514) 
nan

>  <Pocket>  (514) 
nan

>  <ATP_Site>  (514) 
nan

>  <Peripheral>  (514) 
nan

>  <Num_H_Atoms_ProtBoundConf>  (514) 
nan

>  <Num_Resolved_Atoms>  (514) 
nan

>  <Num_Not_Resolved_Atoms>  (514) 
nan

$$$$
CHEMBL1525187
     RDKit          3D

  0  0  0  0  0  0  0  0  0  0999 V3000
M  V30 BEGIN CTAB
M  V30 COUNTS 41 43 0 0 0
M  V30 BEGIN ATOM
M  V30 1 N 2.638985 -3.408202 1.503775 0
M  V30 2 C 1.880091 -2.532638 1.369077 0
M  V30 3 C 0.946500 -1.437881 1.180624 0
M  V30 4 C 0.561989 -1.079053 -0.094819 0
M  V30 5 N 1.066224 -1.776592 -1.215649 0
M  V30 6 C 0.894477 -1.674843 -2.632025 0
M  V30 7 C 1.414228 -0.420448 -3.219361 0
M  V30 8 C 2.781293 -0.581236 -3.484470 0
M  V30 9 C 3.553842 0.418399 -4.048431 0
M  V30 10 C 2.968376 1.630416 -4.369037 0
M  V30 11 C 1.623993 1.787056 -4.108047 0
M  V30 12 C 0.857806 0.791390 -3.547373 0
M  V30 13 C -0.325239 -0.028910 -0.143797 0
M  V30 14 C -0.822307 0.645514 0.944683 0
M  V30 15 N -0.395703 0.230975 2.144348 0
M  V30 16 C 0.465269 -0.781027 2.287316 0
M  V30 17 N 0.899129 -1.194769 3.566838 0
M  V30 18 C 0.505186 -0.631545 4.824104 0
M  V30 19 C -0.923251 -0.715486 5.137685 0
M  V30 20 C -1.952973 0.162095 4.928470 0
M  V30 21 C -3.240077 -0.105227 5.288106 0
M  V30 22 C -3.541927 -1.292140 5.884655 0
M  V30 23 N -2.561822 -2.204498 6.119231 0
M  V30 24 C -1.295241 -1.906344 5.749174 0
M  V30 25 H 1.734228 -2.566994 -0.990621 0
M  V30 26 H -0.228576 -1.621356 -2.809157 0
M  V30 27 H 1.204087 -2.564377 -3.187835 0
M  V30 28 H 3.412535 -1.465184 -3.299367 0
M  V30 29 H 4.597481 0.366077 -4.277566 0
M  V30 30 H 3.492974 2.480423 -4.816809 0
M  V30 31 H 1.048546 2.695026 -4.315619 0
M  V30 32 H -0.190169 0.807115 -3.314089 0
M  V30 33 H -0.681040 0.313759 -1.085175 0
M  V30 34 H -1.521520 1.469294 0.853151 0
M  V30 35 H 1.583714 -1.998320 3.653256 0
M  V30 36 H 1.086764 -1.029045 5.682673 0
M  V30 37 H 0.797847 0.456242 4.768332 0
M  V30 38 H -1.640487 1.093915 4.453586 0
M  V30 39 H -3.930963 0.694664 5.051336 0
M  V30 40 H -4.600728 -1.413459 6.135578 0
M  V30 41 H -0.610706 -2.708836 5.988328 0
M  V30 END ATOM
M  V30 BEGIN BOND
M  V30 1 3 1 2
M  V30 2 1 2 3
M  V30 3 2 3 4
M  V30 4 1 4 5
M  V30 5 1 5 6
M  V30 6 1 6 7
M  V30 7 2 7 8
M  V30 8 1 8 9
M  V30 9 2 9 10
M  V30 10 1 10 11
M  V30 11 2 11 12
M  V30 12 1 4 13
M  V30 13 2 13 14
M  V30 14 1 14 15
M  V30 15 2 15 16
M  V30 16 1 16 17
M  V30 17 1 17 18
M  V30 18 1 18 19
M  V30 19 2 19 20
M  V30 20 1 20 21
M  V30 21 2 21 22
M  V30 22 1 22 23
M  V30 23 2 23 24
M  V30 24 1 16 3
M  V30 25 1 24 19
M  V30 26 1 12 7
M  V30 27 1 5 25
M  V30 28 1 6 26
M  V30 29 1 6 27
M  V30 30 1 8 28
M  V30 31 1 9 29
M  V30 32 1 10 30
M  V30 33 1 11 31
M  V30 34 1 12 32
M  V30 35 1 13 33
M  V30 36 1 14 34
M  V30 37 1 17 35
M  V30 38 1 18 36
M  V30 39 1 18 37
M  V30 40 1 20 38
M  V30 41 1 21 39
M  V30 42 1 22 40
M  V30 43 1 24 41
M  V30 END BOND
M  V30 END CTAB
M  END
>  <Dataset>  (515) 
ChEMBL_Kinases

>  <Ligand_Instance>  (515) 
nan

>  <PDB_ID>  (515) 
nan

>  <Standardized_SMILES>  (515) 
N#Cc1c(NCc2ccccc2)ccnc1NCc1cccnc1

>  <Name>  (515) 
nan

>  <Pocket>  (515) 
nan

>  <ATP_Site>  (515) 
nan

>  <Peripheral>  (515) 
nan

>  <Num_H_Atoms_ProtBoundConf>  (515) 
nan

>  <Num_Resolved_Atoms>  (515) 
nan

>  <Num_Not_Resolved_Atoms>  (515) 
nan

$$$$
CHEMBL1525511
     RDKit          3D

  0  0  0  0  0  0  0  0  0  0999 V3000
M  V30 BEGIN CTAB
M  V30 COUNTS 35 37 0 0 0
M  V30 BEGIN ATOM
M  V30 1 C -0.667936 -2.824660 4.266259 0
M  V30 2 C 0.628803 -2.818882 3.940714 0
M  V30 3 C 1.147136 -3.567392 2.784722 0
M  V30 4 N 1.793816 -2.740857 1.787610 0
M  V30 5 C 1.042954 -1.717717 1.154503 0
M  V30 6 N 1.587501 -0.919941 0.222998 0
M  V30 7 C 0.915971 0.061811 -0.403441 0
M  V30 8 C 1.488004 0.940054 -1.418261 0
M  V30 9 C 2.824684 0.762309 -1.775690 0
M  V30 10 C 3.370802 1.599777 -2.743618 0
M  V30 11 C 2.573882 2.571375 -3.312265 0
M  V30 12 C 1.250408 2.769322 -2.978197 0
M  V30 13 C 0.709678 1.926991 -2.007964 0
M  V30 14 N -0.370010 0.211994 -0.040761 0
M  V30 15 C -0.976760 -0.540350 0.873817 0
M  V30 16 N -2.342826 -0.268822 1.157931 0
M  V30 17 C -2.931568 0.281918 2.233137 0
M  V30 18 C -4.306277 0.319788 2.002017 0
M  V30 19 N -4.522480 -0.218599 0.769910 0
M  V30 20 C -3.302581 -0.572399 0.271626 0
M  V30 21 N -0.251425 -1.504257 1.463287 0
M  V30 22 H -1.202364 -2.334927 5.072818 0
M  V30 23 H -1.368150 -3.406199 3.651750 0
M  V30 24 H 1.256521 -2.227291 4.587598 0
M  V30 25 H 0.280714 -4.091131 2.295711 0
M  V30 26 H 1.804091 -4.375612 3.142489 0
M  V30 27 H 2.792218 -2.867515 1.515098 0
M  V30 28 H 3.451543 -0.004811 -1.325812 0
M  V30 29 H 4.420574 1.499368 -3.059712 0
M  V30 30 H 2.986266 3.240988 -4.076777 0
M  V30 31 H 0.629306 3.540438 -3.433928 0
M  V30 32 H -0.326424 2.082693 -1.747098 0
M  V30 33 H -2.326370 0.602521 3.075777 0
M  V30 34 H -4.926315 0.739353 2.781929 0
M  V30 35 H -3.239225 -1.020788 -0.698888 0
M  V30 END ATOM
M  V30 BEGIN BOND
M  V30 1 2 1 2
M  V30 2 1 2 3
M  V30 3 1 3 4
M  V30 4 1 4 5
M  V30 5 2 5 6
M  V30 6 1 6 7
M  V30 7 1 7 8
M  V30 8 2 8 9
M  V30 9 1 9 10
M  V30 10 2 10 11
M  V30 11 1 11 12
M  V30 12 2 12 13
M  V30 13 2 7 14
M  V30 14 1 14 15
M  V30 15 1 15 16
M  V30 16 1 16 17
M  V30 17 2 17 18
M  V30 18 1 18 19
M  V30 19 2 19 20
M  V30 20 2 15 21
M  V30 21 1 21 5
M  V30 22 1 13 8
M  V30 23 1 20 16
M  V30 24 1 1 22
M  V30 25 1 1 23
M  V30 26 1 2 24
M  V30 27 1 3 25
M  V30 28 1 3 26
M  V30 29 1 4 27
M  V30 30 1 9 28
M  V30 31 1 10 29
M  V30 32 1 11 30
M  V30 33 1 12 31
M  V30 34 1 13 32
M  V30 35 1 17 33
M  V30 36 1 18 34
M  V30 37 1 20 35
M  V30 END BOND
M  V30 END CTAB
M  END
>  <Dataset>  (516) 
ChEMBL_Kinases

>  <Ligand_Instance>  (516) 
nan

>  <PDB_ID>  (516) 
nan

>  <Standardized_SMILES>  (516) 
C=CCNc1nc(-c2ccccc2)nc(-n2ccnc2)n1

>  <Name>  (516) 
nan

>  <Pocket>  (516) 
nan

>  <ATP_Site>  (516) 
nan

>  <Peripheral>  (516) 
nan

>  <Num_H_Atoms_ProtBoundConf>  (516) 
nan

>  <Num_Resolved_Atoms>  (516) 
nan

>  <Num_Not_Resolved_Atoms>  (516) 
nan

$$$$
CHEMBL1525564
     RDKit          3D

  0  0  0  0  0  0  0  0  0  0999 V3000
M  V30 BEGIN CTAB
M  V30 COUNTS 60 63 0 0 0
M  V30 BEGIN ATOM
M  V30 1 O -1.301318 -5.312962 0.042270 0
M  V30 2 C -0.302404 -4.915777 0.749906 0
M  V30 3 C -0.598432 -3.554171 1.121637 0
M  V30 4 N 0.439967 -2.867209 1.914353 0
M  V30 5 C -0.108156 -1.628798 2.329532 0
M  V30 6 C 0.697467 -0.408158 2.251036 0
M  V30 7 C 1.594973 -0.332262 1.031397 0
M  V30 8 N 0.884274 0.245853 -0.107647 0
M  V30 9 C 1.147861 1.589002 -0.565520 0
M  V30 10 O 1.968919 2.348098 -0.047766 0
M  V30 11 N 0.414596 2.091135 -1.696659 0
M  V30 12 C 0.859392 3.446860 -1.928858 0
M  V30 13 C 1.899463 3.899895 -2.714488 0
M  V30 14 C 2.166296 5.246865 -2.797133 0
M  V30 15 C 1.378475 6.124321 -2.084632 0
M  V30 16 C 0.329215 5.695282 -1.290131 0
M  V30 17 C 0.070153 4.330923 -1.215055 0
M  V30 18 C -1.070025 4.067832 -0.346979 0
M  V30 19 C -1.126635 4.668779 0.914322 0
M  V30 20 C -2.174792 4.478953 1.802987 0
M  V30 21 C -3.210052 3.647351 1.402044 0
M  V30 22 C -3.218789 3.022869 0.172596 0
M  V30 23 C -2.145580 3.256202 -0.660093 0
M  V30 24 C 2.279678 -1.612110 0.735391 0
M  V30 25 C 1.658372 -2.854297 1.194481 0
M  V30 26 N 0.695726 -5.898504 0.917202 0
M  V30 27 C 0.474021 -7.177882 0.281667 0
M  V30 28 C -0.752737 -7.849479 0.738605 0
M  V30 29 C -0.760604 -8.711007 1.832643 0
M  V30 30 C -2.050110 -9.192678 2.028562 0
M  V30 31 C -2.777284 -8.589573 1.025349 0
M  V30 32 O -1.989558 -7.827985 0.310560 0
M  V30 33 H -0.761080 -2.946032 0.179365 0
M  V30 34 H -1.565581 -3.450148 1.663235 0
M  V30 35 H -1.101713 -1.439702 1.873363 0
M  V30 36 H -0.374890 -1.779258 3.420818 0
M  V30 37 H 1.301037 -0.281844 3.196717 0
M  V30 38 H 0.049227 0.490931 2.198682 0
M  V30 39 H 2.352186 0.423602 1.327693 0
M  V30 40 H 0.162691 -0.365237 -0.586754 0
M  V30 41 H -0.271017 1.412952 -2.123565 0
M  V30 42 H 2.424672 3.089583 -3.211191 0
M  V30 43 H 2.997221 5.536171 -3.431627 0
M  V30 44 H 1.659022 7.165469 -2.208533 0
M  V30 45 H -0.191567 6.501355 -0.797495 0
M  V30 46 H -0.345560 5.333209 1.290803 0
M  V30 47 H -2.227581 4.936868 2.775632 0
M  V30 48 H -4.061725 3.460195 2.061509 0
M  V30 49 H -4.033625 2.388638 -0.103212 0
M  V30 50 H -2.146060 2.782614 -1.610808 0
M  V30 51 H 3.353316 -1.574633 1.078380 0
M  V30 52 H 2.420495 -1.597830 -0.389150 0
M  V30 53 H 2.378977 -3.416126 1.861997 0
M  V30 54 H 1.544362 -3.529349 0.316273 0
M  V30 55 H 1.457135 -5.544246 1.498190 0
M  V30 56 H 0.415303 -7.003950 -0.813703 0
M  V30 57 H 1.346541 -7.841260 0.455259 0
M  V30 58 H 0.086945 -8.981142 2.450607 0
M  V30 59 H -2.450301 -9.870061 2.761408 0
M  V30 60 H -3.834127 -8.673098 0.789398 0
M  V30 END ATOM
M  V30 BEGIN BOND
M  V30 1 2 1 2
M  V30 2 1 2 3
M  V30 3 1 3 4
M  V30 4 1 4 5
M  V30 5 1 5 6
M  V30 6 1 6 7
M  V30 7 1 7 8
M  V30 8 1 8 9
M  V30 9 2 9 10
M  V30 10 1 9 11
M  V30 11 1 11 12
M  V30 12 2 12 13
M  V30 13 1 13 14
M  V30 14 2 14 15
M  V30 15 1 15 16
M  V30 16 2 16 17
M  V30 17 1 17 18
M  V30 18 2 18 19
M  V30 19 1 19 20
M  V30 20 2 20 21
M  V30 21 1 21 22
M  V30 22 2 22 23
M  V30 23 1 7 24
M  V30 24 1 24 25
M  V30 25 1 2 26
M  V30 26 1 26 27
M  V30 27 1 27 28
M  V30 28 2 28 29
M  V30 29 1 29 30
M  V30 30 2 30 31
M  V30 31 1 31 32
M  V30 32 1 25 4
M  V30 33 1 32 28
M  V30 34 1 17 12
M  V30 35 1 23 18
M  V30 36 1 3 33
M  V30 37 1 3 34
M  V30 38 1 5 35
M  V30 39 1 5 36
M  V30 40 1 6 37
M  V30 41 1 6 38
M  V30 42 1 7 39
M  V30 43 1 8 40
M  V30 44 1 11 41
M  V30 45 1 13 42
M  V30 46 1 14 43
M  V30 47 1 15 44
M  V30 48 1 16 45
M  V30 49 1 19 46
M  V30 50 1 20 47
M  V30 51 1 21 48
M  V30 52 1 22 49
M  V30 53 1 23 50
M  V30 54 1 24 51
M  V30 55 1 24 52
M  V30 56 1 25 53
M  V30 57 1 25 54
M  V30 58 1 26 55
M  V30 59 1 27 56
M  V30 60 1 27 57
M  V30 61 1 29 58
M  V30 62 1 30 59
M  V30 63 1 31 60
M  V30 END BOND
M  V30 END CTAB
M  END
>  <Dataset>  (517) 
ChEMBL_Kinases

>  <Ligand_Instance>  (517) 
nan

>  <PDB_ID>  (517) 
nan

>  <Standardized_SMILES>  (517) 
O=C(CN1CCC(NC(=O)Nc2ccccc2-c2ccccc2)CC1)NCc1ccco1

>  <Name>  (517) 
nan

>  <Pocket>  (517) 
nan

>  <ATP_Site>  (517) 
nan

>  <Peripheral>  (517) 
nan

>  <Num_H_Atoms_ProtBoundConf>  (517) 
nan

>  <Num_Resolved_Atoms>  (517) 
nan

>  <Num_Not_Resolved_Atoms>  (517) 
nan

$$$$
CHEMBL1525592
     RDKit          3D

  0  0  0  0  0  0  0  0  0  0999 V3000
M  V30 BEGIN CTAB
M  V30 COUNTS 58 61 0 0 0
M  V30 BEGIN ATOM
M  V30 1 C 0.729270 -4.790221 0.042004 0
M  V30 2 C 1.238348 -3.468350 0.490720 0
M  V30 3 C 1.201912 -3.061995 1.807030 0
M  V30 4 C 1.705155 -1.799543 2.141775 0
M  V30 5 C 2.250933 -0.912965 1.203813 0
M  V30 6 O 2.650242 0.202623 1.800884 0
M  V30 7 C 2.344150 1.517383 1.784443 0
M  V30 8 N 3.227489 2.104963 2.652027 0
M  V30 9 C 3.207541 3.448995 2.888789 0
M  V30 10 C 2.288035 4.256550 2.253762 0
M  V30 11 C 1.376853 3.716679 1.371662 0
M  V30 12 C 1.444981 2.357040 1.173447 0
M  V30 13 N 0.553134 1.660520 0.314190 0
M  V30 14 C -0.678054 1.053938 0.776876 0
M  V30 15 O -0.662147 1.330404 2.016988 0
M  V30 16 C -1.337071 0.429694 -0.368843 0
M  V30 17 C -2.630167 -0.242712 -0.131086 0
M  V30 18 C -3.719012 0.633411 0.411512 0
M  V30 19 C -4.003447 1.731375 -0.515917 0
M  V30 20 O -4.915966 2.504209 -0.119338 0
M  V30 21 O -3.535427 2.170165 -1.743471 0
M  V30 22 C -2.544695 -1.552893 0.559024 0
M  V30 23 C -2.739482 -2.733287 -0.168690 0
M  V30 24 C -2.687082 -4.014699 0.387698 0
M  V30 25 C -2.428182 -4.131393 1.734992 0
M  V30 26 C -2.229502 -3.003567 2.494439 0
M  V30 27 C -2.292435 -1.770014 1.895409 0
M  V30 28 C 2.271558 -1.350155 -0.098237 0
M  V30 29 C 1.771470 -2.611267 -0.447351 0
M  V30 30 C 1.946077 -2.799290 -1.933660 0
M  V30 31 C 3.057884 -1.817130 -2.265029 0
M  V30 32 C 2.804934 -0.646146 -1.296954 0
M  V30 33 H 1.564663 -5.487940 -0.173411 0
M  V30 34 H 0.072836 -5.253321 0.800606 0
M  V30 35 H 0.116244 -4.640922 -0.872841 0
M  V30 36 H 0.777492 -3.767612 2.491146 0
M  V30 37 H 1.596795 -1.642724 3.225291 0
M  V30 38 H 3.845304 4.018694 3.542601 0
M  V30 39 H 2.206017 5.334722 2.386942 0
M  V30 40 H 0.601256 4.209945 0.800699 0
M  V30 41 H 1.084164 1.788280 -0.572169 0
M  V30 42 H -0.634794 -0.312332 -0.816187 0
M  V30 43 H -1.487942 1.198201 -1.183400 0
M  V30 44 H -3.006522 -0.523137 -1.172905 0
M  V30 45 H -3.530394 0.969586 1.449557 0
M  V30 46 H -4.646879 0.015765 0.462760 0
M  V30 47 H -4.156965 2.294894 -2.544353 0
M  V30 48 H -2.950650 -2.717369 -1.249668 0
M  V30 49 H -2.847031 -4.884523 -0.231828 0
M  V30 50 H -2.398971 -5.142834 2.111896 0
M  V30 51 H -2.028249 -3.105709 3.544238 0
M  V30 52 H -2.137118 -0.898051 2.511949 0
M  V30 53 H 1.029680 -2.370449 -2.395349 0
M  V30 54 H 2.165080 -3.832897 -2.208188 0
M  V30 55 H 4.065524 -2.214831 -2.075860 0
M  V30 56 H 2.972979 -1.386329 -3.278330 0
M  V30 57 H 2.055118 0.038196 -1.732107 0
M  V30 58 H 3.749669 -0.137477 -1.046734 0
M  V30 END ATOM
M  V30 BEGIN BOND
M  V30 1 1 1 2
M  V30 2 2 2 3
M  V30 3 1 3 4
M  V30 4 2 4 5
M  V30 5 1 5 6
M  V30 6 1 6 7
M  V30 7 2 7 8
M  V30 8 1 8 9
M  V30 9 2 9 10
M  V30 10 1 10 11
M  V30 11 2 11 12
M  V30 12 1 12 13
M  V30 13 1 13 14
M  V30 14 2 14 15
M  V30 15 1 14 16
M  V30 16 1 16 17
M  V30 17 1 17 18
M  V30 18 1 18 19
M  V30 19 2 19 20
M  V30 20 1 19 21
M  V30 21 1 17 22
M  V30 22 2 22 23
M  V30 23 1 23 24
M  V30 24 2 24 25
M  V30 25 1 25 26
M  V30 26 2 26 27
M  V30 27 1 5 28
M  V30 28 2 28 29
M  V30 29 1 29 30
M  V30 30 1 30 31
M  V30 31 1 31 32
M  V30 32 1 29 2
M  V30 33 1 12 7
M  V30 34 1 27 22
M  V30 35 1 32 28
M  V30 36 1 1 33
M  V30 37 1 1 34
M  V30 38 1 1 35
M  V30 39 1 3 36
M  V30 40 1 4 37
M  V30 41 1 9 38
M  V30 42 1 10 39
M  V30 43 1 11 40
M  V30 44 1 13 41
M  V30 45 1 16 42
M  V30 46 1 16 43
M  V30 47 1 17 44
M  V30 48 1 18 45
M  V30 49 1 18 46
M  V30 50 1 21 47
M  V30 51 1 23 48
M  V30 52 1 24 49
M  V30 53 1 25 50
M  V30 54 1 26 51
M  V30 55 1 27 52
M  V30 56 1 30 53
M  V30 57 1 30 54
M  V30 58 1 31 55
M  V30 59 1 31 56
M  V30 60 1 32 57
M  V30 61 1 32 58
M  V30 END BOND
M  V30 END CTAB
M  END
>  <Dataset>  (518) 
ChEMBL_Kinases

>  <Ligand_Instance>  (518) 
nan

>  <PDB_ID>  (518) 
nan

>  <Standardized_SMILES>  (518) 
Cc1ccc(Oc2ncccc2NC(=O)CC(CC(=O)O)c2ccccc2)c2c1CCC2

>  <Name>  (518) 
nan

>  <Pocket>  (518) 
nan

>  <ATP_Site>  (518) 
nan

>  <Peripheral>  (518) 
nan

>  <Num_H_Atoms_ProtBoundConf>  (518) 
nan

>  <Num_Resolved_Atoms>  (518) 
nan

>  <Num_Not_Resolved_Atoms>  (518) 
nan

$$$$
CHEMBL1525609
     RDKit          3D

  0  0  0  0  0  0  0  0  0  0999 V3000
M  V30 BEGIN CTAB
M  V30 COUNTS 35 36 0 0 0
M  V30 BEGIN ATOM
M  V30 1 C 0.626105 -2.854226 4.357607 0
M  V30 2 C 0.941598 -2.729443 2.910252 0
M  V30 3 C 1.404078 -3.850168 2.228173 0
M  V30 4 C 1.685725 -3.683645 0.875162 0
M  V30 5 C 2.182114 -4.896114 0.153637 0
M  V30 6 N 1.513797 -2.489602 0.270190 0
M  V30 7 C 1.058410 -1.440715 1.002167 0
M  V30 8 N 0.858431 -0.166019 0.424608 0
M  V30 9 C 1.098626 0.077267 -0.841008 0
M  V30 10 N 1.584314 -0.836711 -1.847658 0
M  V30 11 N 0.840805 1.416891 -1.241308 0
M  V30 12 C -0.292647 2.171013 -0.837937 0
M  V30 13 C -0.439367 3.510687 -1.217711 0
M  V30 14 C -1.524832 4.276291 -0.852206 0
M  V30 15 C -2.533643 3.741255 -0.079742 0
M  V30 16 C -2.422298 2.431945 0.309962 0
M  V30 17 N -3.460747 1.843231 1.118263 0 CHG=1 VAL=4
M  V30 18 O -3.339291 0.640689 1.465017 0
M  V30 19 O -4.546159 2.599730 1.486949 0 CHG=-1 VAL=1
M  V30 20 C -1.335712 1.715273 -0.073252 0
M  V30 21 N 0.764998 -1.532441 2.321416 0
M  V30 22 H 0.970529 -3.820040 4.741855 0
M  V30 23 H -0.454623 -2.720035 4.522322 0
M  V30 24 H 1.193003 -2.050656 4.892960 0
M  V30 25 H 1.528246 -4.784717 2.744796 0
M  V30 26 H 1.265706 -5.386030 -0.260515 0
M  V30 27 H 2.842877 -4.566273 -0.675331 0
M  V30 28 H 2.685510 -5.582343 0.847927 0
M  V30 29 H 2.622186 -0.689976 -1.868290 0
M  V30 30 H 0.963613 -1.476273 -2.395178 0
M  V30 31 H 1.525941 1.907060 -1.887915 0
M  V30 32 H 0.334575 3.985549 -1.832697 0
M  V30 33 H -1.568084 5.314735 -1.187572 0
M  V30 34 H -3.364694 4.360273 0.188743 0
M  V30 35 H -1.314928 0.692083 0.265606 0
M  V30 END ATOM
M  V30 BEGIN BOND
M  V30 1 1 1 2
M  V30 2 2 2 3
M  V30 3 1 3 4
M  V30 4 1 4 5
M  V30 5 2 4 6
M  V30 6 1 6 7
M  V30 7 1 7 8
M  V30 8 2 8 9 CFG=2
M  V30 9 1 9 10
M  V30 10 1 9 11
M  V30 11 1 11 12
M  V30 12 2 12 13
M  V30 13 1 13 14
M  V30 14 2 14 15
M  V30 15 1 15 16
M  V30 16 1 16 17
M  V30 17 2 17 18
M  V30 18 1 17 19
M  V30 19 2 16 20
M  V30 20 2 7 21
M  V30 21 1 21 2
M  V30 22 1 20 12
M  V30 23 1 1 22
M  V30 24 1 1 23
M  V30 25 1 1 24
M  V30 26 1 3 25
M  V30 27 1 5 26
M  V30 28 1 5 27
M  V30 29 1 5 28
M  V30 30 1 10 29
M  V30 31 1 10 30
M  V30 32 1 11 31
M  V30 33 1 13 32
M  V30 34 1 14 33
M  V30 35 1 15 34
M  V30 36 1 20 35
M  V30 END BOND
M  V30 END CTAB
M  END
>  <Dataset>  (519) 
ChEMBL_Kinases

>  <Ligand_Instance>  (519) 
nan

>  <PDB_ID>  (519) 
nan

>  <Standardized_SMILES>  (519) 
Cc1cc(C)nc(N=C(N)Nc2cccc([N+](=O)[O-])c2)n1

>  <Name>  (519) 
nan

>  <Pocket>  (519) 
nan

>  <ATP_Site>  (519) 
nan

>  <Peripheral>  (519) 
nan

>  <Num_H_Atoms_ProtBoundConf>  (519) 
nan

>  <Num_Resolved_Atoms>  (519) 
nan

>  <Num_Not_Resolved_Atoms>  (519) 
nan

$$$$
CHEMBL1525610
     RDKit          3D

  0  0  0  0  0  0  0  0  0  0999 V3000
M  V30 BEGIN CTAB
M  V30 COUNTS 41 45 0 0 0
M  V30 BEGIN ATOM
M  V30 1 Cl 4.119827 -7.945835 2.412412 0
M  V30 2 C 3.663487 -6.391404 1.714526 0
M  V30 3 C 2.444074 -6.276316 1.068443 0
M  V30 4 C 2.150892 -5.030522 0.545494 0
M  V30 5 C 2.979795 -3.934137 0.630192 0
M  V30 6 N 2.482264 -2.741154 0.020717 0
M  V30 7 N 3.145787 -1.991981 -0.859557 0
M  V30 8 C 2.361871 -0.939946 -1.221073 0
M  V30 9 C 1.197840 -1.108417 -0.505786 0
M  V30 10 C 0.063760 -0.289758 -0.519948 0
M  V30 11 N -0.088036 0.871165 -1.284899 0
M  V30 12 C -1.176076 1.789518 -1.393643 0
M  V30 13 C -1.532410 2.462911 -0.141129 0
M  V30 14 C -0.842597 3.643537 0.163645 0
M  V30 15 C -1.040171 4.419576 1.286697 0
M  V30 16 C -1.990356 4.024568 2.204390 0
M  V30 17 C -2.688588 2.867846 1.937238 0
M  V30 18 C -2.470133 2.111265 0.805473 0
M  V30 19 O -3.579156 2.666020 2.980318 0
M  V30 20 C -3.179196 3.473025 4.098946 0
M  V30 21 O -2.467799 4.513408 3.412369 0
M  V30 22 N -0.976465 -0.630100 0.256575 0
M  V30 23 C -0.893273 -1.734915 1.013494 0
M  V30 24 N 0.197812 -2.522904 1.027385 0
M  V30 25 C 1.269960 -2.236503 0.273612 0
M  V30 26 C 4.190810 -4.066534 1.277290 0
M  V30 27 C 4.497502 -5.302169 1.803945 0
M  V30 28 H 1.770916 -7.107574 0.981817 0
M  V30 29 H 1.181148 -4.978060 0.043481 0
M  V30 30 H 2.648852 -0.156569 -1.934131 0
M  V30 31 H 0.773378 1.075029 -1.874402 0
M  V30 32 H -0.951094 2.583470 -2.143894 0
M  V30 33 H -2.102559 1.222099 -1.719930 0
M  V30 34 H -0.076463 4.009244 -0.524992 0
M  V30 35 H -0.472812 5.311471 1.451393 0
M  V30 36 H -3.020136 1.205866 0.589999 0
M  V30 37 H -2.521558 2.928724 4.798806 0
M  V30 38 H -4.123812 3.842258 4.549470 0
M  V30 39 H -1.657464 -2.134784 1.692365 0
M  V30 40 H 4.813245 -3.185167 1.323366 0
M  V30 41 H 5.449769 -5.412303 2.314607 0
M  V30 END ATOM
M  V30 BEGIN BOND
M  V30 1 1 1 2
M  V30 2 2 2 3
M  V30 3 1 3 4
M  V30 4 2 4 5
M  V30 5 1 5 6
M  V30 6 1 6 7
M  V30 7 2 7 8
M  V30 8 1 8 9
M  V30 9 2 9 10
M  V30 10 1 10 11
M  V30 11 1 11 12
M  V30 12 1 12 13
M  V30 13 2 13 14
M  V30 14 1 14 15
M  V30 15 2 15 16
M  V30 16 1 16 17
M  V30 17 2 17 18
M  V30 18 1 17 19
M  V30 19 1 19 20
M  V30 20 1 20 21
M  V30 21 1 10 22
M  V30 22 2 22 23
M  V30 23 1 23 24
M  V30 24 2 24 25
M  V30 25 1 5 26
M  V30 26 2 26 27
M  V30 27 1 27 2
M  V30 28 1 25 6
M  V30 29 1 25 9
M  V30 30 1 18 13
M  V30 31 1 21 16
M  V30 32 1 3 28
M  V30 33 1 4 29
M  V30 34 1 8 30
M  V30 35 1 11 31
M  V30 36 1 12 32
M  V30 37 1 12 33
M  V30 38 1 14 34
M  V30 39 1 15 35
M  V30 40 1 18 36
M  V30 41 1 20 37
M  V30 42 1 20 38
M  V30 43 1 23 39
M  V30 44 1 26 40
M  V30 45 1 27 41
M  V30 END BOND
M  V30 END CTAB
M  END
>  <Dataset>  (520) 
ChEMBL_Kinases

>  <Ligand_Instance>  (520) 
nan

>  <PDB_ID>  (520) 
nan

>  <Standardized_SMILES>  (520) 
Clc1ccc(-n2ncc3c(NCc4ccc5c(c4)OCO5)ncnc32)cc1

>  <Name>  (520) 
nan

>  <Pocket>  (520) 
nan

>  <ATP_Site>  (520) 
nan

>  <Peripheral>  (520) 
nan

>  <Num_H_Atoms_ProtBoundConf>  (520) 
nan

>  <Num_Resolved_Atoms>  (520) 
nan

>  <Num_Not_Resolved_Atoms>  (520) 
nan

$$$$
CHEMBL1525627
     RDKit          3D

  0  0  0  0  0  0  0  0  0  0999 V3000
M  V30 BEGIN CTAB
M  V30 COUNTS 40 42 0 0 0
M  V30 BEGIN ATOM
M  V30 1 C -0.136929 -6.095910 4.004202 0
M  V30 2 O -1.007499 -5.027417 3.698625 0
M  V30 3 C -0.667192 -4.170640 2.662952 0
M  V30 4 C 0.464108 -4.270312 1.891593 0
M  V30 5 C 0.757414 -3.387689 0.867900 0
M  V30 6 C -0.097739 -2.357386 0.585139 0
M  V30 7 C 0.256458 -1.463921 -0.493923 0
M  V30 8 O 1.315358 -1.641380 -1.127234 0
M  V30 9 N -0.532416 -0.349216 -0.916395 0
M  V30 10 C -0.143410 0.535152 -2.013222 0
M  V30 11 C 0.911900 1.479692 -1.644525 0
M  V30 12 C 0.904153 2.731763 -1.130228 0
M  V30 13 N 2.160702 3.178467 -0.968374 0
M  V30 14 C 2.569213 4.346389 -0.495624 0
M  V30 15 C 1.854804 5.550956 0.004157 0
M  V30 16 C 4.021921 4.500358 -0.456771 0
M  V30 17 S 4.628388 2.847713 -1.145961 0
M  V30 18 C 2.944570 2.184840 -1.389853 0
M  V30 19 N 2.190619 1.137631 -1.806956 0
M  V30 20 C -1.232311 -2.241130 1.343951 0
M  V30 21 C -1.539626 -3.127066 2.381383 0
M  V30 22 O -2.693790 -2.988462 3.135032 0
M  V30 23 C -3.580110 -1.932761 2.853157 0
M  V30 24 H 0.731551 -5.754617 4.608782 0
M  V30 25 H -0.679850 -6.858348 4.620326 0
M  V30 26 H 0.273492 -6.602611 3.092983 0
M  V30 27 H 1.146048 -5.058009 2.086768 0
M  V30 28 H 1.684320 -3.539318 0.298957 0
M  V30 29 H -1.438363 -0.186325 -0.384227 0
M  V30 30 H -1.071316 1.061308 -2.334425 0
M  V30 31 H 0.139585 -0.110430 -2.857526 0
M  V30 32 H -0.106772 3.134811 -0.947154 0
M  V30 33 H 1.897279 5.626836 1.108881 0
M  V30 34 H 2.240482 6.475194 -0.508697 0
M  V30 35 H 0.773425 5.487409 -0.267169 0
M  V30 36 H 4.602265 5.445784 -0.078331 0
M  V30 37 H -1.925267 -1.440585 1.146303 0
M  V30 38 H -4.422186 -1.905388 3.574628 0
M  V30 39 H -3.004087 -0.974887 2.872449 0
M  V30 40 H -3.985711 -2.088940 1.834255 0
M  V30 END ATOM
M  V30 BEGIN BOND
M  V30 1 1 1 2
M  V30 2 1 2 3
M  V30 3 2 3 4
M  V30 4 1 4 5
M  V30 5 2 5 6
M  V30 6 1 6 7
M  V30 7 2 7 8
M  V30 8 1 7 9
M  V30 9 1 9 10
M  V30 10 1 10 11
M  V30 11 2 11 12
M  V30 12 1 12 13
M  V30 13 1 13 14
M  V30 14 1 14 15
M  V30 15 2 14 16
M  V30 16 1 16 17
M  V30 17 1 17 18
M  V30 18 2 18 19
M  V30 19 1 6 20
M  V30 20 2 20 21
M  V30 21 1 21 22
M  V30 22 1 22 23
M  V30 23 1 21 3
M  V30 24 1 19 11
M  V30 25 1 18 13
M  V30 26 1 1 24
M  V30 27 1 1 25
M  V30 28 1 1 26
M  V30 29 1 4 27
M  V30 30 1 5 28
M  V30 31 1 9 29
M  V30 32 1 10 30
M  V30 33 1 10 31
M  V30 34 1 12 32
M  V30 35 1 15 33
M  V30 36 1 15 34
M  V30 37 1 15 35
M  V30 38 1 16 36
M  V30 39 1 20 37
M  V30 40 1 23 38
M  V30 41 1 23 39
M  V30 42 1 23 40
M  V30 END BOND
M  V30 END CTAB
M  END
>  <Dataset>  (521) 
ChEMBL_Kinases

>  <Ligand_Instance>  (521) 
nan

>  <PDB_ID>  (521) 
nan

>  <Standardized_SMILES>  (521) 
COc1ccc(C(=O)NCc2cn3c(C)csc3n2)cc1OC

>  <Name>  (521) 
nan

>  <Pocket>  (521) 
nan

>  <ATP_Site>  (521) 
nan

>  <Peripheral>  (521) 
nan

>  <Num_H_Atoms_ProtBoundConf>  (521) 
nan

>  <Num_Resolved_Atoms>  (521) 
nan

>  <Num_Not_Resolved_Atoms>  (521) 
nan

$$$$
CHEMBL1525902
     RDKit          3D

  0  0  0  0  0  0  0  0  0  0999 V3000
M  V30 BEGIN CTAB
M  V30 COUNTS 21 22 0 0 0
M  V30 BEGIN ATOM
M  V30 1 C 1.074272 0.677057 2.411247 0
M  V30 2 C 0.711670 -0.541185 1.636452 0
M  V30 3 C 0.649210 -1.791043 2.245324 0
M  V30 4 C 0.312131 -2.932243 1.531450 0
M  V30 5 C 0.030129 -2.833769 0.182512 0
M  V30 6 C 0.098696 -1.589859 -0.394431 0
M  V30 7 C 0.429503 -0.447338 0.290059 0
M  V30 8 C 0.489621 0.853396 -0.365863 0
M  V30 9 N 0.244547 1.114213 -1.663006 0
M  V30 10 N 0.412541 2.429133 -1.839989 0
M  V30 11 C 0.761257 2.972957 -0.647359 0
M  V30 12 S 1.145950 4.625138 -0.082754 0
M  V30 13 O 0.799242 1.976796 0.235867 0
M  V30 14 H 2.035330 1.110492 2.070133 0
M  V30 15 H 0.246561 1.413760 2.441292 0
M  V30 16 H 1.255343 0.361046 3.478533 0
M  V30 17 H 0.863574 -1.901357 3.295995 0
M  V30 18 H 0.270751 -3.882626 2.022094 0
M  V30 19 H -0.237828 -3.696051 -0.416953 0
M  V30 20 H -0.118238 -1.496281 -1.444916 0
M  V30 21 H 0.573579 4.862928 1.182869 0
M  V30 END ATOM
M  V30 BEGIN BOND
M  V30 1 1 1 2
M  V30 2 2 2 3
M  V30 3 1 3 4
M  V30 4 2 4 5
M  V30 5 1 5 6
M  V30 6 2 6 7
M  V30 7 1 7 8
M  V30 8 2 8 9
M  V30 9 1 9 10
M  V30 10 2 10 11
M  V30 11 1 11 12
M  V30 12 1 11 13
M  V30 13 1 7 2
M  V30 14 1 13 8
M  V30 15 1 1 14
M  V30 16 1 1 15
M  V30 17 1 1 16
M  V30 18 1 3 17
M  V30 19 1 4 18
M  V30 20 1 5 19
M  V30 21 1 6 20
M  V30 22 1 12 21
M  V30 END BOND
M  V30 END CTAB
M  END
>  <Dataset>  (522) 
ChEMBL_Kinases

>  <Ligand_Instance>  (522) 
nan

>  <PDB_ID>  (522) 
nan

>  <Standardized_SMILES>  (522) 
Cc1ccccc1-c1nnc(S)o1

>  <Name>  (522) 
nan

>  <Pocket>  (522) 
nan

>  <ATP_Site>  (522) 
nan

>  <Peripheral>  (522) 
nan

>  <Num_H_Atoms_ProtBoundConf>  (522) 
nan

>  <Num_Resolved_Atoms>  (522) 
nan

>  <Num_Not_Resolved_Atoms>  (522) 
nan

$$$$
CHEMBL1525185
     RDKit          3D

  0  0  0  0  0  0  0  0  0  0999 V3000
M  V30 BEGIN CTAB
M  V30 COUNTS 50 52 0 0 0
M  V30 BEGIN ATOM
M  V30 1 C 1.159967 -5.819888 -0.498945 0
M  V30 2 C 1.788198 -4.469534 -0.358805 0
M  V30 3 C 1.723242 -3.794196 0.851138 0
M  V30 4 C 2.333713 -2.548056 0.888070 0
M  V30 5 C 2.979932 -1.972992 -0.190726 0
M  V30 6 S 3.663984 -0.399915 0.116214 0
M  V30 7 O 4.889572 -0.292276 -0.783563 0
M  V30 8 O 4.203335 -0.344010 1.518828 0
M  V30 9 N 2.706083 0.908333 -0.167809 0
M  V30 10 C 2.202943 1.195943 -1.437626 0
M  V30 11 C 1.396329 2.473889 -1.190800 0
M  V30 12 C 1.547971 2.745518 0.312417 0
M  V30 13 C 1.741089 1.307503 0.802165 0
M  V30 14 C 0.417602 0.649490 0.651894 0
M  V30 15 O -0.051487 -0.195668 -0.153132 0
M  V30 16 N -0.570572 1.025930 1.605726 0
M  V30 17 C -1.902109 0.491153 1.610856 0
M  V30 18 C -2.203513 -0.225820 2.923564 0
M  V30 19 C -3.330352 -1.203135 2.619512 0
M  V30 20 C -4.293725 -0.576981 1.641461 0
M  V30 21 C -4.308999 0.931833 1.744142 0
M  V30 22 C -2.975633 1.548478 1.454056 0
M  V30 23 C 3.027601 -2.672584 -1.385141 0
M  V30 24 C 2.431363 -3.925801 -1.475498 0
M  V30 25 H 0.476699 -5.967984 0.357486 0
M  V30 26 H 0.580166 -5.891263 -1.436421 0
M  V30 27 H 1.968786 -6.566121 -0.406809 0
M  V30 28 H 1.223351 -4.224741 1.707135 0
M  V30 29 H 2.252922 -2.059303 1.865308 0
M  V30 30 H 1.480248 0.433888 -1.802911 0
M  V30 31 H 2.956622 1.357506 -2.233243 0
M  V30 32 H 0.322009 2.329501 -1.410650 0
M  V30 33 H 1.841700 3.275125 -1.804375 0
M  V30 34 H 0.635544 3.163122 0.738591 0
M  V30 35 H 2.474930 3.324207 0.533166 0
M  V30 36 H 2.102700 1.278402 1.827588 0
M  V30 37 H -0.489930 1.704010 2.398659 0
M  V30 38 H -2.067128 -0.248020 0.784822 0
M  V30 39 H -2.601310 0.506255 3.656491 0
M  V30 40 H -1.303742 -0.746419 3.308888 0
M  V30 41 H -3.806044 -1.604811 3.530656 0
M  V30 42 H -2.858125 -2.058376 2.089337 0
M  V30 43 H -4.138455 -0.877067 0.594390 0
M  V30 44 H -5.317493 -0.919214 1.928871 0
M  V30 45 H -5.029564 1.299018 0.983371 0
M  V30 46 H -4.727747 1.237818 2.739990 0
M  V30 47 H -2.757543 2.329860 2.238582 0
M  V30 48 H -2.914611 2.084219 0.492647 0
M  V30 49 H 3.538853 -2.182185 -2.185395 0
M  V30 50 H 2.482151 -4.456074 -2.424906 0
M  V30 END ATOM
M  V30 BEGIN BOND
M  V30 1 1 1 2
M  V30 2 2 2 3
M  V30 3 1 3 4
M  V30 4 2 4 5
M  V30 5 1 5 6
M  V30 6 2 6 7
M  V30 7 2 6 8
M  V30 8 1 6 9
M  V30 9 1 9 10
M  V30 10 1 10 11
M  V30 11 1 11 12
M  V30 12 1 12 13
M  V30 13 1 13 14
M  V30 14 2 14 15
M  V30 15 1 14 16
M  V30 16 1 16 17
M  V30 17 1 17 18
M  V30 18 1 18 19
M  V30 19 1 19 20
M  V30 20 1 20 21
M  V30 21 1 21 22
M  V30 22 1 5 23
M  V30 23 2 23 24
M  V30 24 1 24 2
M  V30 25 1 13 9
M  V30 26 1 22 17
M  V30 27 1 1 25
M  V30 28 1 1 26
M  V30 29 1 1 27
M  V30 30 1 3 28
M  V30 31 1 4 29
M  V30 32 1 10 30
M  V30 33 1 10 31
M  V30 34 1 11 32
M  V30 35 1 11 33
M  V30 36 1 12 34
M  V30 37 1 12 35
M  V30 38 1 13 36
M  V30 39 1 16 37
M  V30 40 1 17 38
M  V30 41 1 18 39
M  V30 42 1 18 40
M  V30 43 1 19 41
M  V30 44 1 19 42
M  V30 45 1 20 43
M  V30 46 1 20 44
M  V30 47 1 21 45
M  V30 48 1 21 46
M  V30 49 1 22 47
M  V30 50 1 22 48
M  V30 51 1 23 49
M  V30 52 1 24 50
M  V30 END BOND
M  V30 END CTAB
M  END
>  <Dataset>  (523) 
ChEMBL_Kinases

>  <Ligand_Instance>  (523) 
nan

>  <PDB_ID>  (523) 
nan

>  <Standardized_SMILES>  (523) 
Cc1ccc(S(=O)(=O)N2CCCC2C(=O)NC2CCCCC2)cc1

>  <Name>  (523) 
nan

>  <Pocket>  (523) 
nan

>  <ATP_Site>  (523) 
nan

>  <Peripheral>  (523) 
nan

>  <Num_H_Atoms_ProtBoundConf>  (523) 
nan

>  <Num_Resolved_Atoms>  (523) 
nan

>  <Num_Not_Resolved_Atoms>  (523) 
nan

$$$$
CHEMBL1530317
     RDKit          3D

  0  0  0  0  0  0  0  0  0  0999 V3000
M  V30 BEGIN CTAB
M  V30 COUNTS 62 65 0 0 0
M  V30 BEGIN ATOM
M  V30 1 C 0.789118 -5.687942 3.834025 0
M  V30 2 O 0.933369 -5.517994 2.441004 0
M  V30 3 C 1.057566 -4.254834 1.878800 0
M  V30 4 C 1.046990 -3.101770 2.643503 0
M  V30 5 C 1.173862 -1.868664 2.035265 0
M  V30 6 C 1.314614 -1.707723 0.674129 0
M  V30 7 C 1.449695 -0.413397 0.010767 0
M  V30 8 C 1.454614 0.749325 0.619112 0
M  V30 9 C 1.595660 2.002547 -0.130184 0
M  V30 10 O 1.714065 1.917940 -1.399169 0
M  V30 11 N 1.595104 3.241817 0.572336 0
M  V30 12 C 1.489103 3.697071 1.930621 0
M  V30 13 C 0.246474 4.450701 2.252967 0
M  V30 14 N -0.317041 4.940211 1.008771 0
M  V30 15 C -1.683972 4.899685 0.685255 0
M  V30 16 C -2.626401 4.453951 1.568892 0
M  V30 17 C -3.982372 4.391835 1.296588 0
M  V30 18 C -4.445303 4.806008 0.043468 0
M  V30 19 C -3.502284 5.260739 -0.863938 0
M  V30 20 C -2.167463 5.294139 -0.522056 0
M  V30 21 C 0.708571 5.484601 0.133250 0
M  V30 22 C 1.735844 4.438204 -0.232316 0
M  V30 23 C 1.322319 -2.871308 -0.066493 0
M  V30 24 C 1.197471 -4.116694 0.513435 0
M  V30 25 S 1.215186 -5.552208 -0.488374 0
M  V30 26 O 1.461474 -5.183385 -1.921786 0
M  V30 27 O 2.318721 -6.447062 0.030995 0
M  V30 28 N -0.276542 -6.410281 -0.288193 0
M  V30 29 C -1.409126 -5.634061 -0.694465 0
M  V30 30 C -1.660631 -5.629307 -2.179141 0
M  V30 31 O -1.832636 -6.918723 -2.693781 0
M  V30 32 C -1.549444 -7.911775 -1.771800 0
M  V30 33 C -0.241676 -7.633077 -1.037304 0
M  V30 34 H 0.112096 -4.945681 4.294313 0
M  V30 35 H 1.782494 -5.590323 4.320730 0
M  V30 36 H 0.366387 -6.709696 4.047974 0
M  V30 37 H 0.939654 -3.154595 3.720271 0
M  V30 38 H 1.160331 -0.996655 2.671632 0
M  V30 39 H 1.554923 -0.389455 -1.063902 0
M  V30 40 H 1.352008 0.772126 1.695317 0
M  V30 41 H 2.399972 4.275296 2.219545 0
M  V30 42 H 1.518102 2.768337 2.573369 0
M  V30 43 H 0.540207 5.318419 2.918396 0
M  V30 44 H -0.438735 3.799351 2.829741 0
M  V30 45 H -2.407664 4.112789 2.551947 0
M  V30 46 H -4.736383 4.046712 1.972680 0
M  V30 47 H -5.499708 4.765826 -0.189552 0
M  V30 48 H -3.898712 5.574743 -1.829004 0
M  V30 49 H -1.555158 5.663786 -1.312115 0
M  V30 50 H 0.327094 6.059891 -0.715113 0
M  V30 51 H 1.265664 6.243658 0.760056 0
M  V30 52 H 2.774409 4.801034 -0.087662 0
M  V30 53 H 1.615931 4.245584 -1.318693 0
M  V30 54 H 1.432037 -2.774159 -1.143419 0
M  V30 55 H -2.321241 -6.075637 -0.237019 0
M  V30 56 H -1.398298 -4.584902 -0.363233 0
M  V30 57 H -2.660591 -5.135494 -2.313474 0
M  V30 58 H -0.917155 -5.043893 -2.751678 0
M  V30 59 H -1.421884 -8.864472 -2.301194 0
M  V30 60 H -2.339435 -8.047684 -1.022532 0
M  V30 61 H 0.605138 -7.628999 -1.771013 0
M  V30 62 H -0.077591 -8.496722 -0.356842 0
M  V30 END ATOM
M  V30 BEGIN BOND
M  V30 1 1 1 2
M  V30 2 1 2 3
M  V30 3 2 3 4
M  V30 4 1 4 5
M  V30 5 2 5 6
M  V30 6 1 6 7
M  V30 7 2 7 8
M  V30 8 1 8 9
M  V30 9 2 9 10
M  V30 10 1 9 11
M  V30 11 1 11 12
M  V30 12 1 12 13
M  V30 13 1 13 14
M  V30 14 1 14 15
M  V30 15 2 15 16
M  V30 16 1 16 17
M  V30 17 2 17 18
M  V30 18 1 18 19
M  V30 19 2 19 20
M  V30 20 1 14 21
M  V30 21 1 21 22
M  V30 22 1 6 23
M  V30 23 2 23 24
M  V30 24 1 24 25
M  V30 25 2 25 26
M  V30 26 2 25 27
M  V30 27 1 25 28
M  V30 28 1 28 29
M  V30 29 1 29 30
M  V30 30 1 30 31
M  V30 31 1 31 32
M  V30 32 1 32 33
M  V30 33 1 24 3
M  V30 34 1 33 28
M  V30 35 1 22 11
M  V30 36 1 20 15
M  V30 37 1 1 34
M  V30 38 1 1 35
M  V30 39 1 1 36
M  V30 40 1 4 37
M  V30 41 1 5 38
M  V30 42 1 7 39
M  V30 43 1 8 40
M  V30 44 1 12 41
M  V30 45 1 12 42
M  V30 46 1 13 43
M  V30 47 1 13 44
M  V30 48 1 16 45
M  V30 49 1 17 46
M  V30 50 1 18 47
M  V30 51 1 19 48
M  V30 52 1 20 49
M  V30 53 1 21 50
M  V30 54 1 21 51
M  V30 55 1 22 52
M  V30 56 1 22 53
M  V30 57 1 23 54
M  V30 58 1 29 55
M  V30 59 1 29 56
M  V30 60 1 30 57
M  V30 61 1 30 58
M  V30 62 1 32 59
M  V30 63 1 32 60
M  V30 64 1 33 61
M  V30 65 1 33 62
M  V30 END BOND
M  V30 END CTAB
M  END
>  <Dataset>  (524) 
ChEMBL_Kinases

>  <Ligand_Instance>  (524) 
nan

>  <PDB_ID>  (524) 
nan

>  <Standardized_SMILES>  (524) 
COc1ccc(/C=C/C(=O)N2CCN(c3ccccc3)CC2)cc1S(=O)(=O)N1CCOCC1

>  <Name>  (524) 
nan

>  <Pocket>  (524) 
nan

>  <ATP_Site>  (524) 
nan

>  <Peripheral>  (524) 
nan

>  <Num_H_Atoms_ProtBoundConf>  (524) 
nan

>  <Num_Resolved_Atoms>  (524) 
nan

>  <Num_Not_Resolved_Atoms>  (524) 
nan

$$$$
CHEMBL1529880
     RDKit          3D

  0  0  0  0  0  0  0  0  0  0999 V3000
M  V30 BEGIN CTAB
M  V30 COUNTS 47 51 0 0 0
M  V30 BEGIN ATOM
M  V30 1 C 1.861628 -2.660852 -1.212749 0
M  V30 2 N 2.697242 -1.833391 -0.342232 0
M  V30 3 C 3.438834 -2.720266 0.554324 0
M  V30 4 C 4.318119 -1.929273 1.476320 0
M  V30 5 C 4.139839 -1.375766 2.722564 0
M  V30 6 C 5.335894 -0.747119 3.078667 0
M  V30 7 C 6.191183 -0.963033 1.997414 0
M  V30 8 O 5.557249 -1.647820 1.102818 0
M  V30 9 C 2.851781 -0.420380 -0.277534 0
M  V30 10 N 4.023461 0.194665 -0.473696 0
M  V30 11 C 4.205429 1.506698 -0.421321 0
M  V30 12 N 3.131755 2.273108 -0.151006 0
M  V30 13 C 1.931518 1.706253 0.054238 0
M  V30 14 C 0.843428 2.506719 0.329784 0
M  V30 15 C -0.393559 1.957209 0.543663 0
M  V30 16 C -0.626766 0.586126 0.497687 0
M  V30 17 C -1.946275 0.012176 0.726722 0
M  V30 18 C -2.276626 -1.159216 0.071644 0
M  V30 19 C -3.503478 -1.765691 0.234184 0
M  V30 20 C -4.442372 -1.177383 1.088171 0
M  V30 21 C -4.104818 0.007336 1.749071 0
M  V30 22 C -2.868909 0.594276 1.568673 0
M  V30 23 O -5.092165 0.525479 2.577446 0
M  V30 24 C -6.465989 0.471021 2.259959 0
M  V30 25 C -6.833857 -0.748153 1.466789 0
M  V30 26 O -5.711328 -1.638364 1.371597 0
M  V30 27 C 0.471589 -0.196573 0.221257 0
M  V30 28 C 1.724188 0.339342 0.003286 0
M  V30 29 H 1.245253 -3.379540 -0.629499 0
M  V30 30 H 2.530403 -3.299865 -1.852080 0
M  V30 31 H 1.267077 -2.050856 -1.927605 0
M  V30 32 H 2.669555 -3.288563 1.145622 0
M  V30 33 H 4.024428 -3.484349 0.016381 0
M  V30 34 H 3.205164 -1.476181 3.228891 0
M  V30 35 H 5.457367 -0.228490 4.027809 0
M  V30 36 H 7.201318 -0.577498 2.006292 0
M  V30 37 H 5.144332 2.022833 -0.576944 0
M  V30 38 H 0.917435 3.585188 0.388188 0
M  V30 39 H -1.241247 2.601728 0.759757 0
M  V30 40 H -1.598674 -1.667315 -0.602753 0
M  V30 41 H -3.833219 -2.681038 -0.243700 0
M  V30 42 H -2.640665 1.506791 2.092876 0
M  V30 43 H -7.052956 0.469000 3.217642 0
M  V30 44 H -6.795851 1.391224 1.709353 0
M  V30 45 H -7.638501 -1.336290 1.954117 0
M  V30 46 H -7.084845 -0.475688 0.418186 0
M  V30 47 H 0.356719 -1.272492 0.171322 0
M  V30 END ATOM
M  V30 BEGIN BOND
M  V30 1 1 1 2
M  V30 2 1 2 3
M  V30 3 1 3 4
M  V30 4 2 4 5
M  V30 5 1 5 6
M  V30 6 2 6 7
M  V30 7 1 7 8
M  V30 8 1 2 9
M  V30 9 2 9 10
M  V30 10 1 10 11
M  V30 11 2 11 12
M  V30 12 1 12 13
M  V30 13 2 13 14
M  V30 14 1 14 15
M  V30 15 2 15 16
M  V30 16 1 16 17
M  V30 17 2 17 18
M  V30 18 1 18 19
M  V30 19 2 19 20
M  V30 20 1 20 21
M  V30 21 2 21 22
M  V30 22 1 21 23
M  V30 23 1 23 24
M  V30 24 1 24 25
M  V30 25 1 25 26
M  V30 26 1 16 27
M  V30 27 2 27 28
M  V30 28 1 8 4
M  V30 29 1 28 9
M  V30 30 1 28 13
M  V30 31 1 22 17
M  V30 32 1 26 20
M  V30 33 1 1 29
M  V30 34 1 1 30
M  V30 35 1 1 31
M  V30 36 1 3 32
M  V30 37 1 3 33
M  V30 38 1 5 34
M  V30 39 1 6 35
M  V30 40 1 7 36
M  V30 41 1 11 37
M  V30 42 1 14 38
M  V30 43 1 15 39
M  V30 44 1 18 40
M  V30 45 1 19 41
M  V30 46 1 22 42
M  V30 47 1 24 43
M  V30 48 1 24 44
M  V30 49 1 25 45
M  V30 50 1 25 46
M  V30 51 1 27 47
M  V30 END BOND
M  V30 END CTAB
M  END
>  <Dataset>  (525) 
ChEMBL_Kinases

>  <Ligand_Instance>  (525) 
nan

>  <PDB_ID>  (525) 
nan

>  <Standardized_SMILES>  (525) 
CN(Cc1ccco1)c1ncnc2ccc(-c3ccc4c(c3)OCCO4)cc12

>  <Name>  (525) 
nan

>  <Pocket>  (525) 
nan

>  <ATP_Site>  (525) 
nan

>  <Peripheral>  (525) 
nan

>  <Num_H_Atoms_ProtBoundConf>  (525) 
nan

>  <Num_Resolved_Atoms>  (525) 
nan

>  <Num_Not_Resolved_Atoms>  (525) 
nan

$$$$
CHEMBL1529858
     RDKit          3D

  0  0  0  0  0  0  0  0  0  0999 V3000
M  V30 BEGIN CTAB
M  V30 COUNTS 45 48 0 0 0
M  V30 BEGIN ATOM
M  V30 1 C -1.577986 -2.635671 4.140805 0
M  V30 2 C -0.973966 -2.622860 2.758333 0
M  V30 3 C -0.315934 -1.335318 2.442723 0
M  V30 4 O -0.709404 -1.054881 3.612430 0
M  V30 5 N 0.285168 -1.233339 1.151144 0
M  V30 6 C 0.268873 -2.328890 0.165592 0
M  V30 7 C -0.278391 -1.728239 -1.042195 0
M  V30 8 C -1.632788 -1.158219 -0.938547 0
M  V30 9 C -2.115706 -1.114390 -2.197820 0
M  V30 10 C -0.903840 -1.471764 -3.001423 0
M  V30 11 C 0.068917 -0.303936 -2.823254 0
M  V30 12 C 0.746427 -0.729717 -1.543445 0
M  V30 13 C 1.036578 0.355238 -0.578107 0
M  V30 14 C 0.908957 0.013323 0.876141 0
M  V30 15 C 2.267652 -0.022174 1.550730 0
M  V30 16 C 2.312399 0.768418 2.833956 0
M  V30 17 C 2.253643 2.242329 2.465802 0
M  V30 18 C 1.078011 2.411111 1.558693 0
M  V30 19 C 0.173931 1.195189 1.508425 0
M  V30 20 O -0.400516 -2.508314 -2.189339 0
M  V30 21 H -0.801325 -2.463893 4.920995 0
M  V30 22 H -2.082637 -3.614875 4.268049 0
M  V30 23 H -2.363657 -1.850167 4.191829 0
M  V30 24 H -0.294021 -3.495351 2.659225 0
M  V30 25 H -1.817855 -2.846611 2.067242 0
M  V30 26 H -0.381023 -3.141878 0.512475 0
M  V30 27 H 1.260874 -2.734055 -0.036540 0
M  V30 28 H -2.039060 -0.871914 0.030194 0
M  V30 29 H -3.152167 -0.863553 -2.388643 0
M  V30 30 H -1.087131 -1.732074 -4.027734 0
M  V30 31 H -0.501708 0.634252 -2.585860 0
M  V30 32 H 0.744348 -0.187806 -3.680972 0
M  V30 33 H 1.652769 -1.305947 -1.822898 0
M  V30 34 H 0.435667 1.238750 -0.896832 0
M  V30 35 H 2.088946 0.670103 -0.760960 0
M  V30 36 H 2.998701 0.446904 0.855511 0
M  V30 37 H 2.611686 -1.064050 1.721538 0
M  V30 38 H 1.514576 0.560867 3.542187 0
M  V30 39 H 3.307443 0.606143 3.269107 0
M  V30 40 H 2.149993 2.848884 3.402090 0
M  V30 41 H 3.162737 2.543934 1.881422 0
M  V30 42 H 1.346882 2.766105 0.536113 0
M  V30 43 H 0.429318 3.230364 1.987408 0
M  V30 44 H -0.190252 1.004243 2.513325 0
M  V30 45 H -0.656295 1.510728 0.811230 0
M  V30 END ATOM
M  V30 BEGIN BOND
M  V30 1 1 1 2
M  V30 2 1 2 3
M  V30 3 2 3 4
M  V30 4 1 3 5
M  V30 5 1 5 6
M  V30 6 1 6 7
M  V30 7 1 7 8
M  V30 8 2 8 9
M  V30 9 1 9 10
M  V30 10 1 10 11
M  V30 11 1 11 12
M  V30 12 1 12 13
M  V30 13 1 13 14
M  V30 14 1 14 15
M  V30 15 1 15 16
M  V30 16 1 16 17
M  V30 17 1 17 18
M  V30 18 1 18 19
M  V30 19 1 10 20
M  V30 20 1 14 5
M  V30 21 1 12 7
M  V30 22 1 19 14
M  V30 23 1 20 7
M  V30 24 1 1 21
M  V30 25 1 1 22
M  V30 26 1 1 23
M  V30 27 1 2 24
M  V30 28 1 2 25
M  V30 29 1 6 26
M  V30 30 1 6 27
M  V30 31 1 8 28
M  V30 32 1 9 29
M  V30 33 1 10 30
M  V30 34 1 11 31
M  V30 35 1 11 32
M  V30 36 1 12 33
M  V30 37 1 13 34
M  V30 38 1 13 35
M  V30 39 1 15 36
M  V30 40 1 15 37
M  V30 41 1 16 38
M  V30 42 1 16 39
M  V30 43 1 17 40
M  V30 44 1 17 41
M  V30 45 1 18 42
M  V30 46 1 18 43
M  V30 47 1 19 44
M  V30 48 1 19 45
M  V30 END BOND
M  V30 END CTAB
M  END
>  <Dataset>  (526) 
ChEMBL_Kinases

>  <Ligand_Instance>  (526) 
nan

>  <PDB_ID>  (526) 
nan

>  <Standardized_SMILES>  (526) 
CCC(=O)N1CC23C=CC(CC2CC12CCCCC2)O3

>  <Name>  (526) 
nan

>  <Pocket>  (526) 
nan

>  <ATP_Site>  (526) 
nan

>  <Peripheral>  (526) 
nan

>  <Num_H_Atoms_ProtBoundConf>  (526) 
nan

>  <Num_Resolved_Atoms>  (526) 
nan

>  <Num_Not_Resolved_Atoms>  (526) 
nan

$$$$
CHEMBL1529620
     RDKit          3D

  0  0  0  0  0  0  0  0  0  0999 V3000
M  V30 BEGIN CTAB
M  V30 COUNTS 30 31 0 0 0
M  V30 BEGIN ATOM
M  V30 1 C -4.884890 0.020058 3.971537 0
M  V30 2 O -3.830583 -0.907333 3.751655 0
M  V30 3 C -2.817867 -0.586561 2.858452 0
M  V30 4 C -2.771640 0.601101 2.157572 0
M  V30 5 C -1.776892 0.943928 1.264393 0
M  V30 6 C -0.747927 0.016267 1.062103 0
M  V30 7 C 0.335560 0.315979 0.131712 0
M  V30 8 C 1.384019 -0.450992 -0.173425 0
M  V30 9 C 2.435941 -0.085370 -1.117977 0
M  V30 10 C 3.421899 -0.931942 -1.335695 0
M  V30 11 N 3.557966 -2.216239 -0.710796 0
M  V30 12 C 4.750219 -2.825065 -1.205589 0
M  V30 13 S 5.329515 -4.310243 -0.779416 0
M  V30 14 N 5.378901 -1.949819 -2.137327 0
M  V30 15 C 4.565402 -0.784894 -2.220152 0
M  V30 16 O 4.792399 0.237661 -2.953097 0
M  V30 17 C -0.799459 -1.167806 1.764735 0
M  V30 18 C -1.799820 -1.503036 2.657579 0
M  V30 19 H -4.483548 0.974508 4.367891 0
M  V30 20 H -5.626831 -0.386106 4.692099 0
M  V30 21 H -5.384632 0.242511 3.003425 0
M  V30 22 H -3.559087 1.338990 2.297152 0
M  V30 23 H -1.754720 1.879049 0.722265 0
M  V30 24 H 0.317352 1.271735 -0.393481 0
M  V30 25 H 1.410417 -1.401055 0.342347 0
M  V30 26 H 2.393800 0.868952 -1.624208 0
M  V30 27 H 2.945551 -2.694372 -0.014771 0
M  V30 28 H 6.269674 -2.146821 -2.651398 0
M  V30 29 H -0.040639 -1.928310 1.658734 0
M  V30 30 H -1.807205 -2.451917 3.196584 0
M  V30 END ATOM
M  V30 BEGIN BOND
M  V30 1 1 1 2
M  V30 2 1 2 3
M  V30 3 2 3 4
M  V30 4 1 4 5
M  V30 5 2 5 6
M  V30 6 1 6 7
M  V30 7 2 7 8
M  V30 8 1 8 9
M  V30 9 2 9 10
M  V30 10 1 10 11
M  V30 11 1 11 12
M  V30 12 2 12 13
M  V30 13 1 12 14
M  V30 14 1 14 15
M  V30 15 2 15 16
M  V30 16 1 6 17
M  V30 17 2 17 18
M  V30 18 1 18 3
M  V30 19 1 15 10
M  V30 20 1 1 19
M  V30 21 1 1 20
M  V30 22 1 1 21
M  V30 23 1 4 22
M  V30 24 1 5 23
M  V30 25 1 7 24
M  V30 26 1 8 25
M  V30 27 1 9 26
M  V30 28 1 11 27
M  V30 29 1 14 28
M  V30 30 1 17 29
M  V30 31 1 18 30
M  V30 END BOND
M  V30 END CTAB
M  END
>  <Dataset>  (527) 
ChEMBL_Kinases

>  <Ligand_Instance>  (527) 
nan

>  <PDB_ID>  (527) 
nan

>  <Standardized_SMILES>  (527) 
COc1ccc(/C=C/C=C2\NC(=S)NC2=O)cc1

>  <Name>  (527) 
nan

>  <Pocket>  (527) 
nan

>  <ATP_Site>  (527) 
nan

>  <Peripheral>  (527) 
nan

>  <Num_H_Atoms_ProtBoundConf>  (527) 
nan

>  <Num_Resolved_Atoms>  (527) 
nan

>  <Num_Not_Resolved_Atoms>  (527) 
nan

$$$$
CHEMBL1529557
     RDKit          3D

  0  0  0  0  0  0  0  0  0  0999 V3000
M  V30 BEGIN CTAB
M  V30 COUNTS 56 61 0 0 0
M  V30 BEGIN ATOM
M  V30 1 C -0.665610 -1.490538 2.765663 0
M  V30 2 N -1.695595 -1.551670 1.757548 0
M  V30 3 C -1.656405 -2.165383 0.547763 0
M  V30 4 N -0.487742 -2.864484 0.134719 0
M  V30 5 C 0.493266 -2.358550 -0.634978 0
M  V30 6 C 0.334340 -0.932487 -1.094067 0
M  V30 7 C 1.569980 -0.630831 -1.933619 0
M  V30 8 C 1.559765 0.772749 -2.470719 0
M  V30 9 N 1.523916 1.788052 -1.443965 0
M  V30 10 C 2.554181 2.471550 -0.747590 0
M  V30 11 O 3.782105 2.233115 -0.982750 0
M  V30 12 C 1.938329 3.399730 0.188218 0
M  V30 13 C 2.522009 4.282116 1.083561 0
M  V30 14 C 1.706068 5.062392 1.868780 0
M  V30 15 C 0.326848 4.960333 1.758810 0
M  V30 16 C -0.251994 4.082082 0.867671 0
M  V30 17 C 0.563855 3.296683 0.077265 0
M  V30 18 C 0.295536 2.295416 -0.936794 0
M  V30 19 O -0.884087 1.963681 -1.278104 0
M  V30 20 N 1.559270 -3.125774 -0.961582 0
M  V30 21 C 1.649527 -4.396328 -0.522579 0
M  V30 22 C 2.756431 -5.136443 -0.883602 0
M  V30 23 C 2.891819 -6.460116 -0.450438 0
M  V30 24 C 1.875948 -6.968101 0.340444 0
M  V30 25 C 0.751746 -6.252534 0.721089 0
M  V30 26 C 0.663792 -4.951255 0.268846 0
M  V30 27 C -0.413137 -4.142685 0.585839 0
M  V30 28 O -1.299440 -4.666849 1.307194 0
M  V30 29 N -2.858835 -1.955972 -0.060258 0
M  V30 30 C -3.656851 -1.227574 0.730427 0
M  V30 31 C -4.930226 -0.761571 0.581370 0
M  V30 32 C -5.522279 -0.013403 1.588933 0
M  V30 33 C -4.801679 0.253207 2.747751 0
M  V30 34 C -3.504031 -0.234149 2.874381 0
M  V30 35 C -2.913060 -0.984529 1.861407 0
M  V30 36 H -0.256852 -0.459050 2.756945 0
M  V30 37 H 0.182736 -2.149523 2.508903 0
M  V30 38 H -1.037795 -1.662997 3.797246 0
M  V30 39 H 0.412539 -0.298279 -0.186437 0
M  V30 40 H -0.583852 -0.813896 -1.667129 0
M  V30 41 H 1.575122 -1.304462 -2.809273 0
M  V30 42 H 2.495224 -0.862101 -1.368408 0
M  V30 43 H 0.685461 0.854737 -3.147943 0
M  V30 44 H 2.458733 0.863353 -3.116896 0
M  V30 45 H 3.600511 4.375717 1.183528 0
M  V30 46 H 2.066697 5.785674 2.602096 0
M  V30 47 H -0.404686 5.536807 2.338314 0
M  V30 48 H -1.322266 3.978347 0.757526 0
M  V30 49 H 3.543121 -4.701505 -1.512137 0
M  V30 50 H 3.750203 -7.072041 -0.715704 0
M  V30 51 H 1.993345 -7.995119 0.669305 0
M  V30 52 H -0.019149 -6.684200 1.339129 0
M  V30 53 H -5.504546 -0.960725 -0.315232 0
M  V30 54 H -6.539729 0.340306 1.432090 0
M  V30 55 H -5.282871 0.843858 3.531348 0
M  V30 56 H -2.966203 -0.010646 3.788939 0
M  V30 END ATOM
M  V30 BEGIN BOND
M  V30 1 1 1 2
M  V30 2 1 2 3
M  V30 3 1 3 4
M  V30 4 1 4 5
M  V30 5 1 5 6
M  V30 6 1 6 7
M  V30 7 1 7 8
M  V30 8 1 8 9
M  V30 9 1 9 10
M  V30 10 2 10 11
M  V30 11 1 10 12
M  V30 12 2 12 13
M  V30 13 1 13 14
M  V30 14 2 14 15
M  V30 15 1 15 16
M  V30 16 2 16 17
M  V30 17 1 17 18
M  V30 18 2 18 19
M  V30 19 2 5 20
M  V30 20 1 20 21
M  V30 21 2 21 22
M  V30 22 1 22 23
M  V30 23 2 23 24
M  V30 24 1 24 25
M  V30 25 2 25 26
M  V30 26 1 26 27
M  V30 27 2 27 28
M  V30 28 2 3 29
M  V30 29 1 29 30
M  V30 30 2 30 31
M  V30 31 1 31 32
M  V30 32 2 32 33
M  V30 33 1 33 34
M  V30 34 2 34 35
M  V30 35 1 35 2
M  V30 36 1 27 4
M  V30 37 1 35 30
M  V30 38 1 18 9
M  V30 39 1 26 21
M  V30 40 1 17 12
M  V30 41 1 1 36
M  V30 42 1 1 37
M  V30 43 1 1 38
M  V30 44 1 6 39
M  V30 45 1 6 40
M  V30 46 1 7 41
M  V30 47 1 7 42
M  V30 48 1 8 43
M  V30 49 1 8 44
M  V30 50 1 13 45
M  V30 51 1 14 46
M  V30 52 1 15 47
M  V30 53 1 16 48
M  V30 54 1 22 49
M  V30 55 1 23 50
M  V30 56 1 24 51
M  V30 57 1 25 52
M  V30 58 1 31 53
M  V30 59 1 32 54
M  V30 60 1 33 55
M  V30 61 1 34 56
M  V30 END BOND
M  V30 END CTAB
M  END
>  <Dataset>  (528) 
ChEMBL_Kinases

>  <Ligand_Instance>  (528) 
nan

>  <PDB_ID>  (528) 
nan

>  <Standardized_SMILES>  (528) 
Cn1c(-n2c(CCCN3C(=O)c4ccccc4C3=O)nc3ccccc3c2=O)nc2ccccc21

>  <Name>  (528) 
nan

>  <Pocket>  (528) 
nan

>  <ATP_Site>  (528) 
nan

>  <Peripheral>  (528) 
nan

>  <Num_H_Atoms_ProtBoundConf>  (528) 
nan

>  <Num_Resolved_Atoms>  (528) 
nan

>  <Num_Not_Resolved_Atoms>  (528) 
nan

$$$$
CHEMBL1529550
     RDKit          3D

  0  0  0  0  0  0  0  0  0  0999 V3000
M  V30 BEGIN CTAB
M  V30 COUNTS 39 42 0 0 0
M  V30 BEGIN ATOM
M  V30 1 C -0.166413 -4.087543 3.027317 0
M  V30 2 C 0.491344 -2.829497 3.574939 0
M  V30 3 O 0.597394 -1.867891 2.542752 0
M  V30 4 C 1.144964 -0.622670 2.706234 0
M  V30 5 O 1.572060 -0.350815 3.866454 0
M  V30 6 C 1.233786 0.348161 1.597514 0
M  V30 7 C -0.173098 0.662967 1.077020 0
M  V30 8 C -0.016364 1.432753 -0.184807 0
M  V30 9 C -1.177609 2.045518 -0.625655 0
M  V30 10 C -1.208323 2.801157 -1.783357 0
M  V30 11 C -0.063574 2.962840 -2.535593 0
M  V30 12 C 1.092329 2.351816 -2.095109 0
M  V30 13 C 1.132369 1.596623 -0.942189 0
M  V30 14 O 2.254350 0.952927 -0.436207 0
M  V30 15 C 2.019730 -0.158847 0.411351 0
M  V30 16 C 3.344103 -0.759153 0.821325 0
M  V30 17 N 1.285686 -1.130329 -0.357783 0
M  V30 18 C 0.060721 -1.447086 -0.134195 0
M  V30 19 S -0.998650 -2.783703 -0.675564 0
M  V30 20 C -2.454727 -2.337169 0.309993 0
M  V30 21 C -1.957270 -1.182611 1.098516 0
M  V30 22 O -2.696642 -0.805936 2.049982 0
M  V30 23 N -0.735410 -0.630369 0.718139 0
M  V30 24 H 0.308745 -4.993570 3.433127 0
M  V30 25 H -1.240745 -4.066980 3.238616 0
M  V30 26 H -0.041893 -4.094558 1.916357 0
M  V30 27 H 1.470792 -3.133643 3.989311 0
M  V30 28 H -0.122976 -2.467823 4.412170 0
M  V30 29 H 1.646364 1.295872 1.968980 0
M  V30 30 H -0.762854 1.209324 1.831155 0
M  V30 31 H -2.156757 2.007859 -0.138217 0
M  V30 32 H -2.084365 3.297390 -2.168563 0
M  V30 33 H 0.019697 3.540813 -3.467882 0
M  V30 34 H 2.053778 2.409232 -2.605406 0
M  V30 35 H 3.918480 -0.020183 1.397911 0
M  V30 36 H 3.179010 -1.677100 1.413223 0
M  V30 37 H 3.896539 -0.997419 -0.111725 0
M  V30 38 H -3.280058 -1.938614 -0.343745 0
M  V30 39 H -2.797547 -3.172547 0.949724 0
M  V30 END ATOM
M  V30 BEGIN BOND
M  V30 1 1 1 2
M  V30 2 1 2 3
M  V30 3 1 3 4
M  V30 4 2 4 5
M  V30 5 1 4 6
M  V30 6 1 6 7
M  V30 7 1 7 8
M  V30 8 2 8 9
M  V30 9 1 9 10
M  V30 10 2 10 11
M  V30 11 1 11 12
M  V30 12 2 12 13
M  V30 13 1 13 14
M  V30 14 1 14 15
M  V30 15 1 15 16
M  V30 16 1 15 17
M  V30 17 2 17 18
M  V30 18 1 18 19
M  V30 19 1 19 20
M  V30 20 1 20 21
M  V30 21 2 21 22
M  V30 22 1 21 23
M  V30 23 1 15 6
M  V30 24 1 23 18
M  V30 25 1 23 7
M  V30 26 1 13 8
M  V30 27 1 1 24
M  V30 28 1 1 25
M  V30 29 1 1 26
M  V30 30 1 2 27
M  V30 31 1 2 28
M  V30 32 1 6 29
M  V30 33 1 7 30
M  V30 34 1 9 31
M  V30 35 1 10 32
M  V30 36 1 11 33
M  V30 37 1 12 34
M  V30 38 1 16 35
M  V30 39 1 16 36
M  V30 40 1 16 37
M  V30 41 1 20 38
M  V30 42 1 20 39
M  V30 END BOND
M  V30 END CTAB
M  END
>  <Dataset>  (529) 
ChEMBL_Kinases

>  <Ligand_Instance>  (529) 
nan

>  <PDB_ID>  (529) 
nan

>  <Standardized_SMILES>  (529) 
CCOC(=O)C1C2c3ccccc3OC1(C)N=C1SCC(=O)N12

>  <Name>  (529) 
nan

>  <Pocket>  (529) 
nan

>  <ATP_Site>  (529) 
nan

>  <Peripheral>  (529) 
nan

>  <Num_H_Atoms_ProtBoundConf>  (529) 
nan

>  <Num_Resolved_Atoms>  (529) 
nan

>  <Num_Not_Resolved_Atoms>  (529) 
nan

$$$$
CHEMBL1529134
     RDKit          3D

  0  0  0  0  0  0  0  0  0  0999 V3000
M  V30 BEGIN CTAB
M  V30 COUNTS 33 36 0 0 0
M  V30 BEGIN ATOM
M  V30 1 C 0.104872 -4.070393 1.025450 0
M  V30 2 C 0.128046 -2.885117 1.979152 0
M  V30 3 O -0.167718 -2.559500 3.189522 0
M  V30 4 C 0.657225 -1.693197 1.386500 0
M  V30 5 C 2.031144 -1.777536 1.637873 0
M  V30 6 O 2.818956 -2.733438 2.296090 0
M  V30 7 N 2.858983 -0.783336 1.197385 0
M  V30 8 C 2.393008 0.281243 0.525376 0
M  V30 9 C 3.198142 1.300895 0.067267 0
M  V30 10 C 2.694107 2.381498 -0.618988 0
M  V30 11 C 1.343526 2.478194 -0.873466 0
M  V30 12 C 0.548878 1.446819 -0.407173 0
M  V30 13 C 1.041294 0.361522 0.279933 0
M  V30 14 C 0.189872 -0.617560 0.708530 0
M  V30 15 C -1.217178 -0.570119 0.475815 0
M  V30 16 C -2.057202 -1.535849 0.903579 0
M  V30 17 C -3.417046 -1.535024 0.708029 0
M  V30 18 C -3.881482 -0.415283 0.005785 0
M  V30 19 C -3.080340 0.596986 -0.453824 0
M  V30 20 C -1.731665 0.494040 -0.201880 0
M  V30 21 C -0.872307 1.591185 -0.697311 0
M  V30 22 O -1.339334 2.566325 -1.318105 0
M  V30 23 H -0.336912 -3.698505 0.080490 0
M  V30 24 H 1.137376 -4.390161 0.802884 0
M  V30 25 H -0.469547 -4.914341 1.480615 0
M  V30 26 H 3.315646 -2.519759 3.151840 0
M  V30 27 H 4.266214 1.203358 0.280454 0
M  V30 28 H 3.347902 3.163047 -0.964716 0
M  V30 29 H 0.945354 3.314729 -1.405878 0
M  V30 30 H -1.903845 -2.424489 1.432148 0
M  V30 31 H -4.216817 -2.209839 0.976341 0
M  V30 32 H -4.935607 -0.276016 -0.224590 0
M  V30 33 H -3.452566 1.447552 -0.990018 0
M  V30 END ATOM
M  V30 BEGIN BOND
M  V30 1 1 1 2
M  V30 2 2 2 3
M  V30 3 1 2 4
M  V30 4 2 4 5
M  V30 5 1 5 6
M  V30 6 1 5 7
M  V30 7 2 7 8
M  V30 8 1 8 9
M  V30 9 2 9 10
M  V30 10 1 10 11
M  V30 11 2 11 12
M  V30 12 1 12 13
M  V30 13 2 13 14
M  V30 14 1 14 15
M  V30 15 2 15 16
M  V30 16 1 16 17
M  V30 17 2 17 18
M  V30 18 1 18 19
M  V30 19 2 19 20
M  V30 20 1 20 21
M  V30 21 2 21 22
M  V30 22 1 14 4
M  V30 23 1 20 15
M  V30 24 1 13 8
M  V30 25 1 21 12
M  V30 26 1 1 23
M  V30 27 1 1 24
M  V30 28 1 1 25
M  V30 29 1 6 26
M  V30 30 1 9 27
M  V30 31 1 10 28
M  V30 32 1 11 29
M  V30 33 1 16 30
M  V30 34 1 17 31
M  V30 35 1 18 32
M  V30 36 1 19 33
M  V30 END BOND
M  V30 END CTAB
M  END
>  <Dataset>  (530) 
ChEMBL_Kinases

>  <Ligand_Instance>  (530) 
nan

>  <PDB_ID>  (530) 
nan

>  <Standardized_SMILES>  (530) 
CC(=O)c1c(O)nc2cccc3c2c1-c1ccccc1C3=O

>  <Name>  (530) 
nan

>  <Pocket>  (530) 
nan

>  <ATP_Site>  (530) 
nan

>  <Peripheral>  (530) 
nan

>  <Num_H_Atoms_ProtBoundConf>  (530) 
nan

>  <Num_Resolved_Atoms>  (530) 
nan

>  <Num_Not_Resolved_Atoms>  (530) 
nan

$$$$
CHEMBL1529099
     RDKit          3D

  0  0  0  0  0  0  0  0  0  0999 V3000
M  V30 BEGIN CTAB
M  V30 COUNTS 56 58 0 0 0
M  V30 BEGIN ATOM
M  V30 1 C -0.904092 -3.000657 6.829505 0
M  V30 2 O -1.227836 -3.469630 5.545524 0
M  V30 3 C -0.684726 -2.949154 4.383484 0
M  V30 4 C 0.232576 -1.912697 4.408848 0
M  V30 5 C 0.759843 -1.411148 3.236614 0
M  V30 6 C 0.417046 -1.895995 1.994652 0
M  V30 7 C 1.018733 -1.314807 0.771282 0
M  V30 8 N 0.254671 -0.218691 0.222403 0
M  V30 9 C 0.602404 1.095457 0.719096 0
M  V30 10 C 1.679446 1.761690 -0.050445 0
M  V30 11 N 1.456913 2.023697 -1.427430 0
M  V30 12 C 2.692969 2.637887 -1.929499 0
M  V30 13 C 2.463946 3.512088 -3.126259 0
M  V30 14 O 1.814919 4.672597 -2.706632 0
M  V30 15 C 0.861691 4.402406 -1.743100 0
M  V30 16 C 0.407814 2.976531 -1.695297 0
M  V30 17 C -0.770433 -0.352157 -0.741892 0
M  V30 18 O -1.536476 0.444250 -1.333142 0
M  V30 19 C -1.320795 -1.496762 -1.413493 0
M  V30 20 C -2.445381 -2.230136 -1.022192 0
M  V30 21 F -3.066108 -1.795812 0.114660 0
M  V30 22 C -2.974871 -3.326329 -1.663431 0
M  V30 23 C -2.322039 -3.722609 -2.794666 0
M  V30 24 C -1.210667 -3.108401 -3.303755 0
M  V30 25 C -0.752646 -2.009740 -2.583438 0
M  V30 26 F 0.359103 -1.367476 -3.061274 0
M  V30 27 C -0.498635 -2.927405 2.007363 0
M  V30 28 C -1.051647 -3.460178 3.153868 0
M  V30 29 O -1.965629 -4.491626 3.147338 0
M  V30 30 C -2.407942 -5.085581 1.951244 0
M  V30 31 H 0.117814 -3.271500 7.156308 0
M  V30 32 H -0.946757 -1.892282 6.775896 0
M  V30 33 H -1.680228 -3.331725 7.550812 0
M  V30 34 H 0.496456 -1.539473 5.390929 0
M  V30 35 H 1.458133 -0.616196 3.405774 0
M  V30 36 H 1.060066 -2.127802 0.010152 0
M  V30 37 H 2.069203 -0.985065 0.959283 0
M  V30 38 H 0.932625 1.036640 1.785384 0
M  V30 39 H -0.351274 1.659520 0.758739 0
M  V30 40 H 2.559927 1.050664 -0.017722 0
M  V30 41 H 2.066990 2.654295 0.506692 0
M  V30 42 H 3.143029 3.294494 -1.142003 0
M  V30 43 H 3.402302 1.843289 -2.163344 0
M  V30 44 H 3.456193 3.830171 -3.480976 0
M  V30 45 H 1.911058 2.996898 -3.931440 0
M  V30 46 H 1.108988 4.784205 -0.731448 0
M  V30 47 H -0.046391 4.991815 -2.051334 0
M  V30 48 H -0.008992 2.724297 -2.692674 0
M  V30 49 H -0.433874 2.939883 -0.981177 0
M  V30 50 H -3.848378 -3.794070 -1.246891 0
M  V30 51 H -2.719290 -4.589363 -3.323819 0
M  V30 52 H -0.681698 -3.403790 -4.195655 0
M  V30 53 H -0.804561 -3.350814 1.071775 0
M  V30 54 H -1.524618 -5.334769 1.303879 0
M  V30 55 H -3.002576 -4.348416 1.381739 0
M  V30 56 H -2.992798 -6.006384 2.134029 0
M  V30 END ATOM
M  V30 BEGIN BOND
M  V30 1 1 1 2
M  V30 2 1 2 3
M  V30 3 2 3 4
M  V30 4 1 4 5
M  V30 5 2 5 6
M  V30 6 1 6 7
M  V30 7 1 7 8
M  V30 8 1 8 9
M  V30 9 1 9 10
M  V30 10 1 10 11
M  V30 11 1 11 12
M  V30 12 1 12 13
M  V30 13 1 13 14
M  V30 14 1 14 15
M  V30 15 1 15 16
M  V30 16 1 8 17
M  V30 17 2 17 18
M  V30 18 1 17 19
M  V30 19 2 19 20
M  V30 20 1 20 21
M  V30 21 1 20 22
M  V30 22 2 22 23
M  V30 23 1 23 24
M  V30 24 2 24 25
M  V30 25 1 25 26
M  V30 26 1 6 27
M  V30 27 2 27 28
M  V30 28 1 28 29
M  V30 29 1 29 30
M  V30 30 1 28 3
M  V30 31 1 16 11
M  V30 32 1 25 19
M  V30 33 1 1 31
M  V30 34 1 1 32
M  V30 35 1 1 33
M  V30 36 1 4 34
M  V30 37 1 5 35
M  V30 38 1 7 36
M  V30 39 1 7 37
M  V30 40 1 9 38
M  V30 41 1 9 39
M  V30 42 1 10 40
M  V30 43 1 10 41
M  V30 44 1 12 42
M  V30 45 1 12 43
M  V30 46 1 13 44
M  V30 47 1 13 45
M  V30 48 1 15 46
M  V30 49 1 15 47
M  V30 50 1 16 48
M  V30 51 1 16 49
M  V30 52 1 22 50
M  V30 53 1 23 51
M  V30 54 1 24 52
M  V30 55 1 27 53
M  V30 56 1 30 54
M  V30 57 1 30 55
M  V30 58 1 30 56
M  V30 END BOND
M  V30 END CTAB
M  END
>  <Dataset>  (531) 
ChEMBL_Kinases

>  <Ligand_Instance>  (531) 
nan

>  <PDB_ID>  (531) 
nan

>  <Standardized_SMILES>  (531) 
COc1ccc(CN(CCN2CCOCC2)C(=O)c2c(F)cccc2F)cc1OC

>  <Name>  (531) 
nan

>  <Pocket>  (531) 
nan

>  <ATP_Site>  (531) 
nan

>  <Peripheral>  (531) 
nan

>  <Num_H_Atoms_ProtBoundConf>  (531) 
nan

>  <Num_Resolved_Atoms>  (531) 
nan

>  <Num_Not_Resolved_Atoms>  (531) 
nan

$$$$
CHEMBL1529094
     RDKit          3D

  0  0  0  0  0  0  0  0  0  0999 V3000
M  V30 BEGIN CTAB
M  V30 COUNTS 42 45 0 0 0
M  V30 BEGIN ATOM
M  V30 1 C 1.430789 -4.644992 2.486562 0
M  V30 2 N 1.188676 -3.418844 3.150059 0
M  V30 3 C -0.145914 -3.088636 3.429926 0
M  V30 4 C -0.692613 -1.833022 2.851879 0
M  V30 5 N 0.233503 -1.105628 2.022453 0
M  V30 6 C 0.116279 -0.507387 0.751285 0
M  V30 7 N 0.351132 0.837895 0.727294 0
M  V30 8 C 0.273805 1.537519 -0.419378 0
M  V30 9 C 0.531460 2.974091 -0.406252 0
M  V30 10 C 0.455391 3.703030 -1.575025 0
M  V30 11 C 0.713010 5.065086 -1.486921 0
M  V30 12 N 1.023424 5.655532 -0.319208 0
M  V30 13 C 1.100975 4.960256 0.823996 0
M  V30 14 C 0.852930 3.591894 0.796673 0
M  V30 15 N -0.037875 0.923736 -1.571405 0
M  V30 16 C -0.285124 -0.413949 -1.625603 0
M  V30 17 C -0.608022 -1.078378 -2.790378 0
M  V30 18 C -0.836642 -2.442183 -2.712352 0
M  V30 19 C -0.755571 -3.166364 -1.519580 0
M  V30 20 C -0.430943 -2.468810 -0.378445 0
M  V30 21 C -0.202547 -1.117476 -0.445153 0
M  V30 22 C 1.525120 -1.020148 2.717632 0
M  V30 23 C 2.121571 -2.368887 2.964505 0
M  V30 24 H 2.036677 -5.358623 3.089790 0
M  V30 25 H 0.450585 -5.115743 2.210178 0
M  V30 26 H 1.983691 -4.535887 1.513714 0
M  V30 27 H -0.791340 -3.971744 3.153951 0
M  V30 28 H -0.257906 -3.042626 4.550212 0
M  V30 29 H -1.657599 -2.060827 2.328544 0
M  V30 30 H -0.993057 -1.105307 3.661605 0
M  V30 31 H 0.205476 3.252268 -2.539910 0
M  V30 32 H 0.663154 5.676117 -2.387610 0
M  V30 33 H 1.354807 5.440823 1.781173 0
M  V30 34 H 0.897614 2.970571 1.678414 0
M  V30 35 H -0.672077 -0.530124 -3.708621 0
M  V30 36 H -1.086756 -2.955059 -3.616358 0
M  V30 37 H -0.953796 -4.221136 -1.580997 0
M  V30 38 H -0.366964 -3.016799 0.539138 0
M  V30 39 H 1.316660 -0.488439 3.688861 0
M  V30 40 H 2.230629 -0.349403 2.187170 0
M  V30 41 H 2.808136 -2.643824 2.136517 0
M  V30 42 H 2.774142 -2.311121 3.873375 0
M  V30 END ATOM
M  V30 BEGIN BOND
M  V30 1 1 1 2
M  V30 2 1 2 3
M  V30 3 1 3 4
M  V30 4 1 4 5
M  V30 5 1 5 6
M  V30 6 2 6 7
M  V30 7 1 7 8
M  V30 8 1 8 9
M  V30 9 2 9 10
M  V30 10 1 10 11
M  V30 11 2 11 12
M  V30 12 1 12 13
M  V30 13 2 13 14
M  V30 14 2 8 15
M  V30 15 1 15 16
M  V30 16 2 16 17
M  V30 17 1 17 18
M  V30 18 2 18 19
M  V30 19 1 19 20
M  V30 20 2 20 21
M  V30 21 1 5 22
M  V30 22 1 22 23
M  V30 23 1 23 2
M  V30 24 1 21 6
M  V30 25 1 14 9
M  V30 26 1 21 16
M  V30 27 1 1 24
M  V30 28 1 1 25
M  V30 29 1 1 26
M  V30 30 1 3 27
M  V30 31 1 3 28
M  V30 32 1 4 29
M  V30 33 1 4 30
M  V30 34 1 10 31
M  V30 35 1 11 32
M  V30 36 1 13 33
M  V30 37 1 14 34
M  V30 38 1 17 35
M  V30 39 1 18 36
M  V30 40 1 19 37
M  V30 41 1 20 38
M  V30 42 1 22 39
M  V30 43 1 22 40
M  V30 44 1 23 41
M  V30 45 1 23 42
M  V30 END BOND
M  V30 END CTAB
M  END
>  <Dataset>  (532) 
ChEMBL_Kinases

>  <Ligand_Instance>  (532) 
nan

>  <PDB_ID>  (532) 
nan

>  <Standardized_SMILES>  (532) 
CN1CCN(c2nc(-c3ccncc3)nc3ccccc23)CC1

>  <Name>  (532) 
nan

>  <Pocket>  (532) 
nan

>  <ATP_Site>  (532) 
nan

>  <Peripheral>  (532) 
nan

>  <Num_H_Atoms_ProtBoundConf>  (532) 
nan

>  <Num_Resolved_Atoms>  (532) 
nan

>  <Num_Not_Resolved_Atoms>  (532) 
nan

$$$$
CHEMBL1529093
     RDKit          3D

  0  0  0  0  0  0  0  0  0  0999 V3000
M  V30 BEGIN CTAB
M  V30 COUNTS 62 66 0 0 0
M  V30 BEGIN ATOM
M  V30 1 C -0.204543 -0.734251 2.471067 0
M  V30 2 C -0.286865 -1.844853 1.467421 0 CFG=1
M  V30 3 C -1.361026 -1.634435 0.463704 0
M  V30 4 C -0.978402 -1.006924 -0.828021 0
M  V30 5 C 0.354322 -0.283632 -0.920606 0 CFG=2
M  V30 6 C 1.441424 -0.962948 -0.180481 0 CFG=1
M  V30 7 C 2.375392 -0.132884 0.644092 0
M  V30 8 C 2.492185 1.284443 0.219331 0
M  V30 9 C 1.186673 1.965694 -0.023764 0 CFG=1
M  V30 10 C 1.656555 3.281625 -0.583561 0
M  V30 11 C 0.667600 4.123379 -1.278874 0 CFG=1
M  V30 12 O 1.398025 5.058876 -2.053175 0
M  V30 13 C -0.120685 3.282767 -2.236898 0
M  V30 14 C 0.353013 1.881759 -2.230921 0
M  V30 15 C 0.228677 1.202118 -0.871562 0 CFG=1
M  V30 16 C -1.171989 1.679697 -0.461007 0
M  V30 17 C 0.938270 -2.076204 0.659335 0 CFG=1
M  V30 18 C 1.906866 -2.634662 1.657557 0
M  V30 19 C 1.041153 -3.757134 2.205257 0
M  V30 20 C -0.343917 -3.123907 2.259626 0 CFG=2
M  V30 21 C -1.401050 -4.066038 1.870315 0
M  V30 22 C -2.509137 -4.304478 2.698407 0
M  V30 23 C -3.358814 -5.250907 2.109599 0
M  V30 24 C -4.635596 -5.778329 2.656065 0
M  V30 25 F -5.715922 -5.018847 2.278493 0
M  V30 26 F -4.865098 -7.076912 2.322172 0
M  V30 27 F -4.595472 -5.705901 4.055317 0
M  V30 28 N -2.723871 -5.534073 0.962545 0
M  V30 29 N -1.596780 -4.869767 0.796063 0
M  V30 30 H -0.177044 0.275648 2.105243 0
M  V30 31 H -1.192999 -0.805885 3.025025 0
M  V30 32 H 0.529601 -1.014799 3.252000 0
M  V30 33 H -1.850870 -2.619223 0.309241 0
M  V30 34 H -2.180955 -1.065553 1.005472 0
M  V30 35 H -1.809701 -0.315755 -1.092039 0
M  V30 36 H -1.092144 -1.804453 -1.626943 0
M  V30 37 H 0.614360 -0.456294 -2.018468 0
M  V30 38 H 2.153978 -1.511634 -0.882093 0
M  V30 39 H 3.426050 -0.512849 0.638454 0
M  V30 40 H 2.150066 -0.117852 1.735539 0
M  V30 41 H 3.189173 1.362956 -0.650984 0
M  V30 42 H 2.999280 1.853654 1.038747 0
M  V30 43 H 0.714555 2.210722 0.971589 0
M  V30 44 H 2.069486 3.869509 0.288482 0
M  V30 45 H 2.559930 3.175434 -1.252807 0
M  V30 46 H 0.036853 4.780807 -0.624983 0
M  V30 47 H 0.810698 5.793618 -2.358457 0
M  V30 48 H -1.178625 3.466105 -2.031736 0
M  V30 49 H 0.006391 3.624583 -3.307855 0
M  V30 50 H -0.177137 1.237811 -2.947086 0
M  V30 51 H 1.416325 1.880194 -2.533285 0
M  V30 52 H -1.613776 1.145152 0.361533 0
M  V30 53 H -1.097323 2.745688 -0.124725 0
M  V30 54 H -1.882606 1.700230 -1.300388 0
M  V30 55 H 0.668297 -2.936199 -0.012952 0
M  V30 56 H 2.142465 -1.996524 2.508881 0
M  V30 57 H 2.812785 -3.022989 1.143529 0
M  V30 58 H 1.400126 -4.105607 3.190572 0
M  V30 59 H 0.987884 -4.586531 1.444259 0
M  V30 60 H -0.510726 -2.919095 3.360971 0
M  V30 61 H -2.783738 -3.883561 3.673505 0
M  V30 62 H -3.112829 -6.232821 0.267972 0
M  V30 END ATOM
M  V30 BEGIN BOND
M  V30 1 1 2 1 CFG=1
M  V30 2 1 2 3
M  V30 3 1 3 4
M  V30 4 1 4 5
M  V30 5 1 5 6
M  V30 6 1 6 7
M  V30 7 1 7 8
M  V30 8 1 8 9
M  V30 9 1 9 10
M  V30 10 1 10 11
M  V30 11 1 11 12
M  V30 12 1 11 13
M  V30 13 1 13 14
M  V30 14 1 14 15
M  V30 15 1 15 16 CFG=1
M  V30 16 1 6 17
M  V30 17 1 17 18
M  V30 18 1 18 19
M  V30 19 1 19 20
M  V30 20 1 20 21
M  V30 21 1 21 22
M  V30 22 2 22 23
M  V30 23 1 23 24
M  V30 24 1 24 25
M  V30 25 1 24 26
M  V30 26 1 24 27
M  V30 27 1 23 28
M  V30 28 1 28 29
M  V30 29 1 17 2
M  V30 30 2 29 21
M  V30 31 1 20 2
M  V30 32 1 15 5
M  V30 33 1 15 9
M  V30 34 1 1 30
M  V30 35 1 1 31
M  V30 36 1 1 32
M  V30 37 1 3 33
M  V30 38 1 3 34
M  V30 39 1 4 35
M  V30 40 1 4 36
M  V30 41 1 5 37 CFG=3
M  V30 42 1 6 38 CFG=3
M  V30 43 1 7 39
M  V30 44 1 7 40
M  V30 45 1 8 41
M  V30 46 1 8 42
M  V30 47 1 9 43 CFG=1
M  V30 48 1 10 44
M  V30 49 1 10 45
M  V30 50 1 11 46 CFG=1
M  V30 51 1 12 47
M  V30 52 1 13 48
M  V30 53 1 13 49
M  V30 54 1 14 50
M  V30 55 1 14 51
M  V30 56 1 16 52
M  V30 57 1 16 53
M  V30 58 1 16 54
M  V30 59 1 17 55 CFG=3
M  V30 60 1 18 56
M  V30 61 1 18 57
M  V30 62 1 19 58
M  V30 63 1 19 59
M  V30 64 1 20 60 CFG=1
M  V30 65 1 22 61
M  V30 66 1 28 62
M  V30 END BOND
M  V30 END CTAB
M  END
>  <Dataset>  (533) 
ChEMBL_Kinases

>  <Ligand_Instance>  (533) 
nan

>  <PDB_ID>  (533) 
nan

>  <Standardized_SMILES>  (533) 
C[C@@]12CC[C@@H]3[C@@H](CC[C@H]4C[C@@H](O)CC[C@]43C)[C@H]1CC[C@@H]2c1cc(C(F)(F)F)[nH]n1

>  <Name>  (533) 
nan

>  <Pocket>  (533) 
nan

>  <ATP_Site>  (533) 
nan

>  <Peripheral>  (533) 
nan

>  <Num_H_Atoms_ProtBoundConf>  (533) 
nan

>  <Num_Resolved_Atoms>  (533) 
nan

>  <Num_Not_Resolved_Atoms>  (533) 
nan

$$$$
CHEMBL1529080
     RDKit          3D

  0  0  0  0  0  0  0  0  0  0999 V3000
M  V30 BEGIN CTAB
M  V30 COUNTS 30 32 0 0 0
M  V30 BEGIN ATOM
M  V30 1 C -0.894114 -4.160567 3.685046 0
M  V30 2 N 0.075765 -3.841364 2.694573 0
M  V30 3 S 1.078924 -5.011959 1.859945 0
M  V30 4 C 1.969971 -3.872021 0.842902 0
M  V30 5 O 2.839584 -4.126761 0.023260 0
M  V30 6 C 1.417435 -2.604170 1.223800 0
M  V30 7 C 1.807449 -1.397836 0.689192 0
M  V30 8 C 1.265035 -0.187397 1.067461 0
M  V30 9 S 1.780680 1.315605 0.372272 0
M  V30 10 O 3.218634 1.166144 -0.038449 0
M  V30 11 O 1.728783 2.375190 1.430141 0
M  V30 12 N 0.898006 1.770963 -1.012698 0
M  V30 13 C -0.495460 1.978170 -0.794410 0
M  V30 14 C -1.365488 1.346458 -1.880095 0
M  V30 15 C -1.228418 2.806976 -1.830710 0
M  V30 16 C 0.282714 -0.217596 2.033556 0
M  V30 17 C -0.096198 -1.431300 2.558227 0
M  V30 18 C 0.442753 -2.638817 2.182978 0
M  V30 19 H -1.215032 -5.226807 3.500604 0
M  V30 20 H -1.768392 -3.512816 3.680329 0
M  V30 21 H -0.400930 -4.189367 4.673377 0
M  V30 22 H 2.572848 -1.337539 -0.068215 0
M  V30 23 H 1.172406 1.294078 -1.875567 0
M  V30 24 H -0.934155 1.843479 0.213884 0
M  V30 25 H -2.365024 0.944843 -1.610427 0
M  V30 26 H -0.900587 0.781220 -2.698610 0
M  V30 27 H -2.026755 3.437945 -1.384580 0
M  V30 28 H -0.634190 3.305825 -2.602710 0
M  V30 29 H -0.154147 0.728203 2.341886 0
M  V30 30 H -0.869222 -1.355926 3.305940 0
M  V30 END ATOM
M  V30 BEGIN BOND
M  V30 1 1 1 2
M  V30 2 1 2 3
M  V30 3 1 3 4
M  V30 4 2 4 5
M  V30 5 1 4 6
M  V30 6 2 6 7
M  V30 7 1 7 8
M  V30 8 1 8 9
M  V30 9 2 9 10
M  V30 10 2 9 11
M  V30 11 1 9 12
M  V30 12 1 12 13
M  V30 13 1 13 14
M  V30 14 1 14 15
M  V30 15 2 8 16
M  V30 16 1 16 17
M  V30 17 2 17 18
M  V30 18 1 18 2
M  V30 19 1 18 6
M  V30 20 1 15 13
M  V30 21 1 1 19
M  V30 22 1 1 20
M  V30 23 1 1 21
M  V30 24 1 7 22
M  V30 25 1 12 23
M  V30 26 1 13 24
M  V30 27 1 14 25
M  V30 28 1 14 26
M  V30 29 1 15 27
M  V30 30 1 15 28
M  V30 31 1 16 29
M  V30 32 1 17 30
M  V30 END BOND
M  V30 END CTAB
M  END
>  <Dataset>  (534) 
ChEMBL_Kinases

>  <Ligand_Instance>  (534) 
nan

>  <PDB_ID>  (534) 
nan

>  <Standardized_SMILES>  (534) 
Cn1sc(=O)c2cc(S(=O)(=O)NC3CC3)ccc21

>  <Name>  (534) 
nan

>  <Pocket>  (534) 
nan

>  <ATP_Site>  (534) 
nan

>  <Peripheral>  (534) 
nan

>  <Num_H_Atoms_ProtBoundConf>  (534) 
nan

>  <Num_Resolved_Atoms>  (534) 
nan

>  <Num_Not_Resolved_Atoms>  (534) 
nan

$$$$
CHEMBL1528876
     RDKit          3D

  0  0  0  0  0  0  0  0  0  0999 V3000
M  V30 BEGIN CTAB
M  V30 COUNTS 62 65 0 0 0
M  V30 BEGIN ATOM
M  V30 1 C 6.033975 0.043530 4.010813 0
M  V30 2 C 4.551903 0.203859 3.867785 0
M  V30 3 O 3.847482 0.578799 4.827516 0
M  V30 4 O 3.955292 -0.066364 2.659268 0
M  V30 5 C 2.598339 0.046834 2.413077 0
M  V30 6 C 1.678138 -0.970270 2.581228 0
M  V30 7 C 0.329497 -0.771865 2.310117 0
M  V30 8 C -0.075357 0.483284 1.862340 0
M  V30 9 C 0.832441 1.511333 1.689030 0
M  V30 10 C 2.170755 1.284516 1.967246 0
M  V30 11 O 2.956607 2.415112 1.743593 0
M  V30 12 C 3.215119 3.349049 2.763990 0
M  V30 13 C 4.057753 4.535388 2.475592 0
M  V30 14 O 2.850438 3.385787 3.958762 0
M  V30 15 O 0.309908 2.700033 1.243335 0
M  V30 16 C -1.039977 2.951276 0.975355 0
M  V30 17 C -1.706849 1.686084 0.564254 0
M  V30 18 O -3.073807 1.828562 0.347603 0
M  V30 19 C -1.110471 1.022132 -0.644281 0
M  V30 20 C -1.737469 -0.325413 -0.585348 0
M  V30 21 C -1.995871 -0.580439 0.758655 0
M  V30 22 C -2.586104 -1.797917 1.022590 0
M  V30 23 C -2.913516 -2.728831 0.038804 0
M  V30 24 O -3.462816 -3.833648 0.407605 0
M  V30 25 C -3.878079 -4.971258 0.784880 0
M  V30 26 C -5.223183 -5.571479 1.002653 0
M  V30 27 O -2.732813 -5.481034 0.931558 0
M  V30 28 C -2.633586 -2.420579 -1.276258 0
M  V30 29 O -2.960017 -3.347133 -2.255173 0
M  V30 30 C -2.147151 -4.355422 -2.708210 0
M  V30 31 C -2.618181 -5.281715 -3.763099 0
M  V30 32 O -0.968484 -4.654967 -2.351331 0
M  V30 33 C -2.034403 -1.199678 -1.610588 0
M  V30 34 O -1.748232 -0.879238 -2.931228 0
M  V30 35 C -0.515372 -1.175775 -3.504640 0
M  V30 36 C 0.767460 -1.470333 -4.144095 0
M  V30 37 O -0.564936 -1.554799 -2.286485 0
M  V30 38 C -1.550717 0.569857 1.602500 0
M  V30 39 H 6.405873 0.489861 4.948694 0
M  V30 40 H 6.229810 -1.049814 3.923183 0
M  V30 41 H 6.513104 0.529637 3.117151 0
M  V30 42 H 2.039543 -1.937975 2.934034 0
M  V30 43 H -0.348464 -1.601683 2.459009 0
M  V30 44 H 3.500438 5.490901 2.471442 0
M  V30 45 H 4.940014 4.612640 3.146797 0
M  V30 46 H 4.487870 4.443148 1.453608 0
M  V30 47 H -1.591897 3.358151 1.845039 0
M  V30 48 H -1.188013 3.676280 0.159720 0
M  V30 49 H -3.463236 0.940667 0.156776 0
M  V30 50 H -1.454790 1.625768 -1.521554 0
M  V30 51 H -0.024006 1.004851 -0.680330 0
M  V30 52 H -2.785376 -1.991569 2.072314 0
M  V30 53 H -5.711813 -5.191091 1.921188 0
M  V30 54 H -5.151008 -6.679384 0.972284 0
M  V30 55 H -5.916352 -5.297560 0.152965 0
M  V30 56 H -2.835173 -6.293215 -3.374074 0
M  V30 57 H -3.581723 -4.916350 -4.213244 0
M  V30 58 H -1.895605 -5.310878 -4.622822 0
M  V30 59 H 1.573339 -1.035812 -3.529430 0
M  V30 60 H 0.836537 -0.989108 -5.141350 0
M  V30 61 H 0.888243 -2.581230 -4.215777 0
M  V30 62 H -2.146215 0.724245 2.498673 0
M  V30 END ATOM
M  V30 BEGIN BOND
M  V30 1 1 1 2
M  V30 2 2 2 3
M  V30 3 1 2 4
M  V30 4 1 4 5
M  V30 5 2 5 6
M  V30 6 1 6 7
M  V30 7 2 7 8
M  V30 8 1 8 9
M  V30 9 2 9 10
M  V30 10 1 10 11
M  V30 11 1 11 12
M  V30 12 1 12 13
M  V30 13 2 12 14
M  V30 14 1 9 15
M  V30 15 1 15 16
M  V30 16 1 16 17
M  V30 17 1 17 18
M  V30 18 1 17 19
M  V30 19 1 19 20
M  V30 20 2 20 21
M  V30 21 1 21 22
M  V30 22 2 22 23
M  V30 23 1 23 24
M  V30 24 1 24 25
M  V30 25 1 25 26
M  V30 26 2 25 27
M  V30 27 1 23 28
M  V30 28 1 28 29
M  V30 29 1 29 30
M  V30 30 1 30 31
M  V30 31 2 30 32
M  V30 32 2 28 33
M  V30 33 1 33 34
M  V30 34 1 34 35
M  V30 35 1 35 36
M  V30 36 2 35 37
M  V30 37 1 21 38
M  V30 38 1 10 5
M  V30 39 1 38 17
M  V30 40 1 38 8
M  V30 41 1 33 20
M  V30 42 1 1 39
M  V30 43 1 1 40
M  V30 44 1 1 41
M  V30 45 1 6 42
M  V30 46 1 7 43
M  V30 47 1 13 44
M  V30 48 1 13 45
M  V30 49 1 13 46
M  V30 50 1 16 47
M  V30 51 1 16 48
M  V30 52 1 18 49
M  V30 53 1 19 50
M  V30 54 1 19 51
M  V30 55 1 22 52
M  V30 56 1 26 53
M  V30 57 1 26 54
M  V30 58 1 26 55
M  V30 59 1 31 56
M  V30 60 1 31 57
M  V30 61 1 31 58
M  V30 62 1 36 59
M  V30 63 1 36 60
M  V30 64 1 36 61
M  V30 65 1 38 62
M  V30 END BOND
M  V30 END CTAB
M  END
>  <Dataset>  (535) 
ChEMBL_Kinases

>  <Ligand_Instance>  (535) 
nan

>  <PDB_ID>  (535) 
nan

>  <Standardized_SMILES>  (535) 
CC(=O)Oc1ccc2c(c1OC(C)=O)OCC1(O)Cc3c(cc(OC(C)=O)c(OC(C)=O)c3OC(C)=O)C21

>  <Name>  (535) 
HAEMATOXYLIN PENTAACETATE

>  <Pocket>  (535) 
nan

>  <ATP_Site>  (535) 
nan

>  <Peripheral>  (535) 
nan

>  <Num_H_Atoms_ProtBoundConf>  (535) 
nan

>  <Num_Resolved_Atoms>  (535) 
nan

>  <Num_Not_Resolved_Atoms>  (535) 
nan

$$$$
CHEMBL1528848
     RDKit          3D

  0  0  0  0  0  0  0  0  0  0999 V3000
M  V30 BEGIN CTAB
M  V30 COUNTS 44 47 0 0 0
M  V30 BEGIN ATOM
M  V30 1 C -0.326943 -2.541831 2.820004 0
M  V30 2 C 0.131840 -2.868290 1.430710 0
M  V30 3 C 1.627964 -3.099509 1.472076 0
M  V30 4 C 2.320988 -2.520940 0.261573 0
M  V30 5 C 2.082068 -1.053829 0.060541 0
M  V30 6 C 3.099435 -0.207100 0.716016 0
M  V30 7 O 4.232297 -0.485271 1.220499 0
M  V30 8 N 2.785199 1.177877 0.817085 0
M  V30 9 C 3.449906 2.475000 0.731165 0
M  V30 10 C 2.567937 3.262917 -0.212728 0
M  V30 11 C 1.160774 2.721525 0.056437 0
M  V30 12 C 1.424237 1.666944 1.086118 0
M  V30 13 C 0.493440 0.525459 1.064930 0
M  V30 14 O -0.622175 0.763044 1.591490 0
M  V30 15 N 0.733512 -0.766912 0.525347 0
M  V30 16 C -0.226501 -1.826500 0.394238 0
M  V30 17 C -1.619707 -1.442200 0.321734 0
M  V30 18 C -2.700279 -1.988666 0.979631 0
M  V30 19 C -4.003094 -1.556017 0.843096 0
M  V30 20 C -4.263769 -0.502740 -0.007884 0
M  V30 21 Br -6.044250 0.145644 -0.243093 0
M  V30 22 C -3.204903 0.062688 -0.678293 0
M  V30 23 C -1.907454 -0.383593 -0.529113 0
M  V30 24 H 0.563927 -2.417100 3.506186 0
M  V30 25 H -0.883607 -1.605016 2.928127 0
M  V30 26 H -0.870216 -3.407317 3.305442 0
M  V30 27 H -0.334855 -3.843789 1.170802 0
M  V30 28 H 1.808489 -4.188595 1.489961 0
M  V30 29 H 2.075484 -2.724458 2.420611 0
M  V30 30 H 2.087028 -3.120873 -0.635196 0
M  V30 31 H 3.418452 -2.652456 0.449972 0
M  V30 32 H 2.092630 -0.894894 -1.060338 0
M  V30 33 H 3.586174 2.958270 1.711278 0
M  V30 34 H 4.441826 2.422486 0.242440 0
M  V30 35 H 2.864939 3.074725 -1.257560 0
M  V30 36 H 2.630523 4.322001 0.079241 0
M  V30 37 H 0.573062 3.528676 0.539594 0
M  V30 38 H 0.651733 2.369086 -0.837417 0
M  V30 39 H 1.421730 2.079785 2.127627 0
M  V30 40 H 0.004467 -2.328893 -0.599066 0
M  V30 41 H -2.484365 -2.811434 1.637589 0
M  V30 42 H -4.806544 -2.034631 1.393971 0
M  V30 43 H -3.461733 0.895979 -1.342493 0
M  V30 44 H -1.171782 0.149929 -1.114762 0
M  V30 END ATOM
M  V30 BEGIN BOND
M  V30 1 1 1 2
M  V30 2 1 2 3
M  V30 3 1 3 4
M  V30 4 1 4 5
M  V30 5 1 5 6
M  V30 6 2 6 7
M  V30 7 1 6 8
M  V30 8 1 8 9
M  V30 9 1 9 10
M  V30 10 1 10 11
M  V30 11 1 11 12
M  V30 12 1 12 13
M  V30 13 2 13 14
M  V30 14 1 13 15
M  V30 15 1 15 16
M  V30 16 1 16 17
M  V30 17 2 17 18
M  V30 18 1 18 19
M  V30 19 2 19 20
M  V30 20 1 20 21
M  V30 21 1 20 22
M  V30 22 2 22 23
M  V30 23 1 16 2
M  V30 24 1 23 17
M  V30 25 1 15 5
M  V30 26 1 12 8
M  V30 27 1 1 24
M  V30 28 1 1 25
M  V30 29 1 1 26
M  V30 30 1 2 27
M  V30 31 1 3 28
M  V30 32 1 3 29
M  V30 33 1 4 30
M  V30 34 1 4 31
M  V30 35 1 5 32
M  V30 36 1 9 33
M  V30 37 1 9 34
M  V30 38 1 10 35
M  V30 39 1 10 36
M  V30 40 1 11 37
M  V30 41 1 11 38
M  V30 42 1 12 39
M  V30 43 1 16 40
M  V30 44 1 18 41
M  V30 45 1 19 42
M  V30 46 1 22 43
M  V30 47 1 23 44
M  V30 END BOND
M  V30 END CTAB
M  END
>  <Dataset>  (536) 
ChEMBL_Kinases

>  <Ligand_Instance>  (536) 
nan

>  <PDB_ID>  (536) 
nan

>  <Standardized_SMILES>  (536) 
CC1CCC2C(=O)N3CCCC3C(=O)N2C1c1ccc(Br)cc1

>  <Name>  (536) 
nan

>  <Pocket>  (536) 
nan

>  <ATP_Site>  (536) 
nan

>  <Peripheral>  (536) 
nan

>  <Num_H_Atoms_ProtBoundConf>  (536) 
nan

>  <Num_Resolved_Atoms>  (536) 
nan

>  <Num_Not_Resolved_Atoms>  (536) 
nan

$$$$
CHEMBL1528588
     RDKit          3D

  0  0  0  0  0  0  0  0  0  0999 V3000
M  V30 BEGIN CTAB
M  V30 COUNTS 62 65 0 0 0
M  V30 BEGIN ATOM
M  V30 1 C 4.325936 -2.694383 5.418156 0
M  V30 2 C 4.019623 -1.256633 5.820859 0
M  V30 3 O 3.267005 -0.599599 4.845123 0
M  V30 4 C 3.623706 -0.374987 3.535113 0
M  V30 5 O 4.739595 -0.789153 3.128854 0
M  V30 6 N 2.787384 0.311118 2.599224 0
M  V30 7 C 3.256661 0.495547 1.257741 0
M  V30 8 C 2.226545 0.913621 0.264634 0
M  V30 9 C 1.014859 1.537177 0.865470 0
M  V30 10 N -0.041965 1.844994 -0.062029 0
M  V30 11 C -0.647837 3.151949 -0.220710 0
M  V30 12 C -1.716846 2.927890 -1.210591 0
M  V30 13 C -2.645505 3.851237 -1.703201 0
M  V30 14 C -3.577896 3.457658 -2.655551 0
M  V30 15 C -3.585462 2.148365 -3.116224 0
M  V30 16 C -2.673929 1.189120 -2.651037 0
M  V30 17 C -2.672525 -0.184769 -3.124636 0
M  V30 18 O -2.556905 -0.514955 -4.314142 0
M  V30 19 N -2.808006 -1.317947 -2.247135 0
M  V30 20 C -2.809322 -2.689689 -2.714613 0
M  V30 21 C -2.936584 -3.635334 -1.582627 0
M  V30 22 C -4.147371 -4.254257 -1.275023 0
M  V30 23 C -4.236837 -5.122491 -0.210124 0
M  V30 24 C -3.154958 -5.414965 0.586893 0
M  V30 25 C -1.970067 -4.769815 0.236356 0
M  V30 26 C -1.794061 -3.889485 -0.810235 0
M  V30 27 O -0.590875 -3.295706 -1.090607 0
M  V30 28 C 0.531333 -3.569275 -0.304550 0
M  V30 29 C -1.783652 1.651828 -1.711041 0
M  V30 30 C -0.704091 0.961207 -0.970762 0
M  V30 31 O -0.353104 -0.222626 -1.064761 0
M  V30 32 C 0.525063 0.592281 1.965805 0
M  V30 33 C 1.492126 0.776583 3.113430 0
M  V30 34 H 4.996688 -2.637977 4.537789 0
M  V30 35 H 4.803949 -3.227985 6.274186 0
M  V30 36 H 3.387012 -3.236361 5.207576 0
M  V30 37 H 3.396821 -1.317239 6.749421 0
M  V30 38 H 4.938693 -0.710133 6.094518 0
M  V30 39 H 4.053659 1.296069 1.325768 0
M  V30 40 H 3.831873 -0.413343 0.953695 0
M  V30 41 H 2.625697 1.558617 -0.544834 0
M  V30 42 H 1.879529 -0.022733 -0.268827 0
M  V30 43 H 1.317668 2.454402 1.408921 0
M  V30 44 H -1.011431 3.553930 0.749619 0
M  V30 45 H 0.140547 3.808377 -0.662560 0
M  V30 46 H -2.659577 4.875712 -1.359635 0
M  V30 47 H -4.286527 4.178387 -3.026132 0
M  V30 48 H -4.314986 1.860711 -3.854702 0
M  V30 49 H -2.915250 -1.147954 -1.208698 0
M  V30 50 H -1.847351 -2.884091 -3.235755 0
M  V30 51 H -3.623432 -2.869278 -3.437494 0
M  V30 52 H -5.025104 -4.045104 -1.882571 0
M  V30 53 H -5.170434 -5.630919 0.066146 0
M  V30 54 H -3.104529 -6.073174 1.441267 0
M  V30 55 H -1.065462 -4.953324 0.824350 0
M  V30 56 H 0.830731 -4.624704 -0.296314 0
M  V30 57 H 0.417575 -3.263843 0.774580 0
M  V30 58 H 1.435472 -2.984497 -0.642696 0
M  V30 59 H 0.605897 -0.425427 1.567847 0
M  V30 60 H -0.496959 0.892991 2.209978 0
M  V30 61 H 1.138059 0.114479 3.928030 0
M  V30 62 H 1.517952 1.837670 3.392176 0
M  V30 END ATOM
M  V30 BEGIN BOND
M  V30 1 1 1 2
M  V30 2 1 2 3
M  V30 3 1 3 4
M  V30 4 2 4 5
M  V30 5 1 4 6
M  V30 6 1 6 7
M  V30 7 1 7 8
M  V30 8 1 8 9
M  V30 9 1 9 10
M  V30 10 1 10 11
M  V30 11 1 11 12
M  V30 12 2 12 13
M  V30 13 1 13 14
M  V30 14 2 14 15
M  V30 15 1 15 16
M  V30 16 1 16 17
M  V30 17 2 17 18
M  V30 18 1 17 19
M  V30 19 1 19 20
M  V30 20 1 20 21
M  V30 21 2 21 22
M  V30 22 1 22 23
M  V30 23 2 23 24
M  V30 24 1 24 25
M  V30 25 2 25 26
M  V30 26 1 26 27
M  V30 27 1 27 28
M  V30 28 2 16 29
M  V30 29 1 29 30
M  V30 30 2 30 31
M  V30 31 1 9 32
M  V30 32 1 32 33
M  V30 33 1 33 6
M  V30 34 1 30 10
M  V30 35 1 29 12
M  V30 36 1 26 21
M  V30 37 1 1 34
M  V30 38 1 1 35
M  V30 39 1 1 36
M  V30 40 1 2 37
M  V30 41 1 2 38
M  V30 42 1 7 39
M  V30 43 1 7 40
M  V30 44 1 8 41
M  V30 45 1 8 42
M  V30 46 1 9 43
M  V30 47 1 11 44
M  V30 48 1 11 45
M  V30 49 1 13 46
M  V30 50 1 14 47
M  V30 51 1 15 48
M  V30 52 1 19 49
M  V30 53 1 20 50
M  V30 54 1 20 51
M  V30 55 1 22 52
M  V30 56 1 23 53
M  V30 57 1 24 54
M  V30 58 1 25 55
M  V30 59 1 28 56
M  V30 60 1 28 57
M  V30 61 1 28 58
M  V30 62 1 32 59
M  V30 63 1 32 60
M  V30 64 1 33 61
M  V30 65 1 33 62
M  V30 END BOND
M  V30 END CTAB
M  END
>  <Dataset>  (537) 
ChEMBL_Kinases

>  <Ligand_Instance>  (537) 
nan

>  <PDB_ID>  (537) 
nan

>  <Standardized_SMILES>  (537) 
CCOC(=O)N1CCC(N2Cc3cccc(C(=O)NCc4ccccc4OC)c3C2=O)CC1

>  <Name>  (537) 
nan

>  <Pocket>  (537) 
nan

>  <ATP_Site>  (537) 
nan

>  <Peripheral>  (537) 
nan

>  <Num_H_Atoms_ProtBoundConf>  (537) 
nan

>  <Num_Resolved_Atoms>  (537) 
nan

>  <Num_Not_Resolved_Atoms>  (537) 
nan

$$$$
CHEMBL1528511
     RDKit          3D

  0  0  0  0  0  0  0  0  0  0999 V3000
M  V30 BEGIN CTAB
M  V30 COUNTS 57 60 0 0 0
M  V30 BEGIN ATOM
M  V30 1 C 0.537314 -2.337094 3.466207 0
M  V30 2 C 1.878984 -1.815247 3.106948 0
M  V30 3 C 2.958722 -1.749372 3.975269 0
M  V30 4 C 4.176727 -1.242954 3.542307 0
M  V30 5 C 4.322919 -0.800316 2.242130 0
M  V30 6 C 5.648864 -0.259204 1.804076 0
M  V30 7 C 3.257983 -0.864668 1.383684 0
M  V30 8 C 3.376303 -0.398025 -0.022804 0
M  V30 9 N 2.122670 -0.566542 -0.731257 0
M  V30 10 C 1.187273 0.399246 -0.760245 0
M  V30 11 O 1.502040 1.454691 -0.119031 0
M  V30 12 N -0.017202 0.315724 -1.404630 0
M  V30 13 C -0.847502 1.463531 -1.316719 0
M  V30 14 C -1.754397 1.607600 -0.172291 0
M  V30 15 C -2.776909 0.575486 0.031439 0
M  V30 16 O -3.257783 -0.492051 -0.393266 0
M  V30 17 N -3.572891 0.893332 1.192487 0
M  V30 18 C -4.678871 0.105168 1.699838 0
M  V30 19 C -5.743703 0.050047 0.670645 0
M  V30 20 C -6.170231 -0.763960 -0.341815 0
M  V30 21 C -7.271978 -0.234220 -0.966600 0
M  V30 22 C -7.476800 0.948482 -0.262120 0
M  V30 23 O -6.573728 1.078383 0.676677 0
M  V30 24 C -0.192141 -0.859125 -2.030865 0
M  V30 25 O -1.283915 -0.980713 -2.639485 0
M  V30 26 C 0.734992 -1.877971 -2.029921 0
M  V30 27 C 0.397453 -3.037755 -2.729943 0
M  V30 28 C 1.325536 -4.071880 -2.734998 0
M  V30 29 C 2.542521 -3.963995 -2.072640 0
M  V30 30 C 2.804645 -2.787327 -1.402904 0
M  V30 31 C 1.933532 -1.739387 -1.362891 0
M  V30 32 C 2.037917 -1.370531 1.812764 0
M  V30 33 H 0.166543 -3.095968 2.746628 0
M  V30 34 H 0.504836 -2.764874 4.492265 0
M  V30 35 H -0.218292 -1.509330 3.451584 0
M  V30 36 H 2.801192 -2.105865 4.982483 0
M  V30 37 H 5.002098 -1.202797 4.239398 0
M  V30 38 H 6.458014 -0.977029 1.993164 0
M  V30 39 H 5.828525 0.651087 2.436427 0
M  V30 40 H 5.573181 0.097205 0.760991 0
M  V30 41 H 3.514416 0.720516 0.068805 0
M  V30 42 H 4.258139 -0.752497 -0.551689 0
M  V30 43 H -0.198653 2.364656 -1.370218 0
M  V30 44 H -1.476849 1.508911 -2.255950 0
M  V30 45 H -2.334357 2.566230 -0.342870 0
M  V30 46 H -1.215731 1.840767 0.799671 0
M  V30 47 H -3.419088 1.762358 1.802918 0
M  V30 48 H -5.046031 0.444535 2.678529 0
M  V30 49 H -4.339094 -0.965977 1.872962 0
M  V30 50 H -5.658471 -1.674150 -0.541651 0
M  V30 51 H -7.799277 -0.685756 -1.799299 0
M  V30 52 H -8.297004 1.641127 -0.501241 0
M  V30 53 H -0.535279 -3.168911 -3.259726 0
M  V30 54 H 1.166341 -5.022122 -3.249440 0
M  V30 55 H 3.259778 -4.773117 -2.081061 0
M  V30 56 H 3.730471 -2.685587 -0.889346 0
M  V30 57 H 1.208261 -1.406516 1.097713 0
M  V30 END ATOM
M  V30 BEGIN BOND
M  V30 1 1 1 2
M  V30 2 2 2 3
M  V30 3 1 3 4
M  V30 4 2 4 5
M  V30 5 1 5 6
M  V30 6 1 5 7
M  V30 7 1 7 8
M  V30 8 1 8 9
M  V30 9 1 9 10
M  V30 10 2 10 11
M  V30 11 1 10 12
M  V30 12 1 12 13
M  V30 13 1 13 14
M  V30 14 1 14 15
M  V30 15 2 15 16
M  V30 16 1 15 17
M  V30 17 1 17 18
M  V30 18 1 18 19
M  V30 19 2 19 20
M  V30 20 1 20 21
M  V30 21 2 21 22
M  V30 22 1 22 23
M  V30 23 1 12 24
M  V30 24 2 24 25
M  V30 25 1 24 26
M  V30 26 2 26 27
M  V30 27 1 27 28
M  V30 28 2 28 29
M  V30 29 1 29 30
M  V30 30 2 30 31
M  V30 31 2 7 32
M  V30 32 1 32 2
M  V30 33 1 31 9
M  V30 34 1 23 19
M  V30 35 1 31 26
M  V30 36 1 1 33
M  V30 37 1 1 34
M  V30 38 1 1 35
M  V30 39 1 3 36
M  V30 40 1 4 37
M  V30 41 1 6 38
M  V30 42 1 6 39
M  V30 43 1 6 40
M  V30 44 1 8 41
M  V30 45 1 8 42
M  V30 46 1 13 43
M  V30 47 1 13 44
M  V30 48 1 14 45
M  V30 49 1 14 46
M  V30 50 1 17 47
M  V30 51 1 18 48
M  V30 52 1 18 49
M  V30 53 1 20 50
M  V30 54 1 21 51
M  V30 55 1 22 52
M  V30 56 1 27 53
M  V30 57 1 28 54
M  V30 58 1 29 55
M  V30 59 1 30 56
M  V30 60 1 32 57
M  V30 END BOND
M  V30 END CTAB
M  END
>  <Dataset>  (538) 
ChEMBL_Kinases

>  <Ligand_Instance>  (538) 
nan

>  <PDB_ID>  (538) 
nan

>  <Standardized_SMILES>  (538) 
Cc1ccc(C)c(Cn2c(=O)n(CCC(=O)NCc3ccco3)c(=O)c3ccccc32)c1

>  <Name>  (538) 
nan

>  <Pocket>  (538) 
nan

>  <ATP_Site>  (538) 
nan

>  <Peripheral>  (538) 
nan

>  <Num_H_Atoms_ProtBoundConf>  (538) 
nan

>  <Num_Resolved_Atoms>  (538) 
nan

>  <Num_Not_Resolved_Atoms>  (538) 
nan

$$$$
CHEMBL1527209
     RDKit          3D

  0  0  0  0  0  0  0  0  0  0999 V3000
M  V30 BEGIN CTAB
M  V30 COUNTS 83 88 0 0 0
M  V30 BEGIN ATOM
M  V30 1 C -1.459283 -1.164769 -0.859070 0
M  V30 2 O -0.548156 -0.239936 -0.344878 0
M  V30 3 C 0.777784 -0.072766 -0.690998 0
M  V30 4 O 0.483126 -1.004497 -1.440562 0
M  V30 5 C 1.359601 1.016969 0.097246 0 CFG=1
M  V30 6 C 0.498468 2.206968 0.067435 0
M  V30 7 C 0.216637 2.833192 -1.236828 0
M  V30 8 C -0.856033 2.484318 -2.056412 0
M  V30 9 C -1.113645 3.091318 -3.282921 0
M  V30 10 C -0.302671 4.080212 -3.744588 0
M  V30 11 C 0.797539 4.490009 -2.979816 0
M  V30 12 C 0.977261 3.838672 -1.783685 0
M  V30 13 C 1.410680 0.550580 1.561081 0 CFG=1
M  V30 14 C 0.260477 -0.213233 2.004192 0
M  V30 15 C -1.034831 -0.093177 2.462330 0
M  V30 16 C -1.468698 -1.373896 2.704890 0
M  V30 17 C -2.801488 -1.664201 3.208524 0
M  V30 18 O -3.167389 -2.687585 3.837116 0
M  V30 19 N -4.012318 -0.943351 3.155051 0
M  V30 20 C -5.125007 -1.636786 3.809788 0
M  V30 21 C -4.207903 0.361507 2.531376 0
M  V30 22 N -0.543932 -2.295253 2.434066 0
M  V30 23 C -0.618742 -3.739726 2.566790 0
M  V30 24 C -1.099315 -4.423136 1.353997 0
M  V30 25 C -2.395719 -4.722986 1.004867 0
M  V30 26 C -2.669539 -5.373916 -0.179501 0
M  V30 27 C -1.642119 -5.727054 -1.020208 0
M  V30 28 S -2.145050 -6.548410 -2.498405 0
M  V30 29 C -2.191369 -8.315609 -2.260996 0
M  V30 30 O -1.207619 -6.258097 -3.631867 0
M  V30 31 O -3.502210 -6.025270 -2.930541 0
M  V30 32 C -0.335315 -5.449563 -0.715644 0
M  V30 33 C -0.092942 -4.802143 0.467696 0
M  V30 34 C 0.531559 -1.583883 1.997689 0
M  V30 35 C 1.913797 -1.822242 1.505415 0
M  V30 36 C 2.531093 -0.465447 1.454692 0 CFG=1
M  V30 37 C 3.092360 -0.243580 0.057349 0
M  V30 38 N 2.779238 1.195159 -0.110391 0
M  V30 39 C 3.889019 2.018728 -0.362449 0
M  V30 40 O 4.894127 1.225086 -0.372416 0
M  V30 41 C 4.426571 3.318857 -0.610993 0
M  V30 42 C 5.112689 3.680189 -1.747012 0
M  V30 43 C 5.518223 4.996079 -1.757283 0
M  V30 44 C 5.293943 5.917523 -0.761136 0
M  V30 45 C 4.600065 5.517934 0.367756 0
M  V30 46 C 4.162916 4.194713 0.435611 0
M  V30 47 H -2.482878 -0.775443 -0.551865 0
M  V30 48 H -1.522561 -1.198199 -1.974134 0
M  V30 49 H -1.407666 -2.161187 -0.389042 0
M  V30 50 H -0.523315 1.834914 0.405872 0
M  V30 51 H 0.723415 2.963098 0.857243 0
M  V30 52 H -1.570621 1.726333 -1.796103 0
M  V30 53 H -1.953177 2.801160 -3.899983 0
M  V30 54 H -0.507321 4.547538 -4.696838 0
M  V30 55 H 1.423040 5.269193 -3.361108 0
M  V30 56 H 1.826596 4.212147 -1.252943 0
M  V30 57 H 1.697864 1.419303 2.177652 0
M  V30 58 H -1.548141 0.862269 2.583927 0
M  V30 59 H -5.499142 -2.472184 3.213829 0
M  V30 60 H -5.955753 -0.882651 3.933962 0
M  V30 61 H -4.819428 -1.910812 4.835094 0
M  V30 62 H -3.844729 1.196141 3.167307 0
M  V30 63 H -3.747952 0.351258 1.521527 0
M  V30 64 H -5.301854 0.536908 2.388034 0
M  V30 65 H 0.376607 -4.162265 2.879631 0
M  V30 66 H -1.296289 -4.017901 3.429663 0
M  V30 67 H -3.148422 -4.417436 1.712007 0
M  V30 68 H -3.738592 -5.552673 -0.338538 0
M  V30 69 H -2.972919 -8.696992 -2.964493 0
M  V30 70 H -1.247503 -8.776223 -2.574624 0
M  V30 71 H -2.387549 -8.571609 -1.217364 0
M  V30 72 H 0.439944 -5.748863 -1.413027 0
M  V30 73 H 0.968564 -4.602421 0.667871 0
M  V30 74 H 1.883523 -2.328780 0.516110 0
M  V30 75 H 2.498061 -2.467916 2.188661 0
M  V30 76 H 3.294548 -0.254661 2.205807 0
M  V30 77 H 2.652061 -0.867425 -0.714332 0
M  V30 78 H 4.149103 -0.472357 0.117921 0
M  V30 79 H 5.286335 2.966521 -2.516007 0
M  V30 80 H 6.073875 5.360676 -2.635850 0
M  V30 81 H 5.623249 6.943662 -0.800624 0
M  V30 82 H 4.420376 6.238892 1.150681 0
M  V30 83 H 3.629228 3.961816 1.347122 0
M  V30 END ATOM
M  V30 BEGIN BOND
M  V30 1 1 1 2
M  V30 2 1 2 3
M  V30 3 2 3 4
M  V30 4 1 3 5
M  V30 5 1 5 6 CFG=1
M  V30 6 1 6 7
M  V30 7 2 7 8
M  V30 8 1 8 9
M  V30 9 2 9 10
M  V30 10 1 10 11
M  V30 11 2 11 12
M  V30 12 1 5 13
M  V30 13 1 13 14
M  V30 14 1 14 15
M  V30 15 2 15 16
M  V30 16 1 16 17
M  V30 17 2 17 18
M  V30 18 1 17 19
M  V30 19 1 19 20
M  V30 20 1 19 21
M  V30 21 1 16 22
M  V30 22 1 22 23
M  V30 23 1 23 24
M  V30 24 2 24 25
M  V30 25 1 25 26
M  V30 26 2 26 27
M  V30 27 1 27 28
M  V30 28 1 28 29
M  V30 29 2 28 30
M  V30 30 2 28 31
M  V30 31 1 27 32
M  V30 32 2 32 33
M  V30 33 1 22 34
M  V30 34 1 34 35
M  V30 35 1 35 36
M  V30 36 1 36 37
M  V30 37 1 37 38
M  V30 38 1 38 39
M  V30 39 2 39 40
M  V30 40 1 39 41
M  V30 41 2 41 42
M  V30 42 1 42 43
M  V30 43 2 43 44
M  V30 44 1 44 45
M  V30 45 2 45 46
M  V30 46 1 38 5
M  V30 47 1 46 41
M  V30 48 1 12 7
M  V30 49 1 36 13
M  V30 50 2 34 14
M  V30 51 1 33 24
M  V30 52 1 1 47
M  V30 53 1 1 48
M  V30 54 1 1 49
M  V30 55 1 6 50
M  V30 56 1 6 51
M  V30 57 1 8 52
M  V30 58 1 9 53
M  V30 59 1 10 54
M  V30 60 1 11 55
M  V30 61 1 12 56
M  V30 62 1 13 57 CFG=1
M  V30 63 1 15 58
M  V30 64 1 20 59
M  V30 65 1 20 60
M  V30 66 1 20 61
M  V30 67 1 21 62
M  V30 68 1 21 63
M  V30 69 1 21 64
M  V30 70 1 23 65
M  V30 71 1 23 66
M  V30 72 1 25 67
M  V30 73 1 26 68
M  V30 74 1 29 69
M  V30 75 1 29 70
M  V30 76 1 29 71
M  V30 77 1 32 72
M  V30 78 1 33 73
M  V30 79 1 35 74
M  V30 80 1 35 75
M  V30 81 1 36 76 CFG=1
M  V30 82 1 37 77
M  V30 83 1 37 78
M  V30 84 1 42 79
M  V30 85 1 43 80
M  V30 86 1 44 81
M  V30 87 1 45 82
M  V30 88 1 46 83
M  V30 END BOND
M  V30 END CTAB
M  END
>  <Dataset>  (539) 
ChEMBL_Kinases

>  <Ligand_Instance>  (539) 
nan

>  <PDB_ID>  (539) 
nan

>  <Standardized_SMILES>  (539) 
COC(=O)[C@@]1(Cc2ccccc2)[C@H]2c3cc(C(=O)N(C)C)n(Cc4ccc(S(C)(=O)=O)cc4)c3C[C@H]2CN1C(=O)c1ccccc1

>  <Name>  (539) 
nan

>  <Pocket>  (539) 
nan

>  <ATP_Site>  (539) 
nan

>  <Peripheral>  (539) 
nan

>  <Num_H_Atoms_ProtBoundConf>  (539) 
nan

>  <Num_Resolved_Atoms>  (539) 
nan

>  <Num_Not_Resolved_Atoms>  (539) 
nan

$$$$
CHEMBL1527238
     RDKit          3D

  0  0  0  0  0  0  0  0  0  0999 V3000
M  V30 BEGIN CTAB
M  V30 COUNTS 39 42 0 0 0
M  V30 BEGIN ATOM
M  V30 1 C -2.974806 -4.792224 4.154856 0
M  V30 2 C -1.752116 -5.436626 3.984445 0
M  V30 3 C -0.850454 -5.105868 2.979883 0
M  V30 4 C -1.203930 -4.085739 2.119994 0
M  V30 5 C -0.545139 -3.528418 1.040836 0
M  V30 6 N 0.646354 -3.774703 0.457542 0
M  V30 7 N 1.048948 -3.064248 -0.605998 0
M  V30 8 C 0.256620 -2.079987 -1.113768 0
M  V30 9 S 0.739123 -1.095418 -2.531259 0
M  V30 10 C 1.666308 0.389299 -1.978724 0
M  V30 11 C 0.765767 1.310778 -1.197735 0
M  V30 12 N 1.420767 2.509090 -0.729808 0
M  V30 13 C 0.444344 3.334072 0.001667 0
M  V30 14 C 1.090189 4.653616 0.354333 0
M  V30 15 O 2.477968 4.596325 0.098098 0
M  V30 16 C 3.051718 3.513510 0.750568 0
M  V30 17 C 2.472076 2.231174 0.220671 0
M  V30 18 N -0.940130 -1.807445 -0.555681 0
M  V30 19 C -1.424593 -2.467895 0.511860 0
M  V30 20 N -2.523591 -2.453909 1.281816 0
M  V30 21 C -2.416368 -3.410940 2.249712 0
M  V30 22 C -3.307523 -3.761836 3.268535 0
M  V30 23 H -3.653720 -5.084725 4.958409 0
M  V30 24 H -1.436936 -6.238531 4.633149 0
M  V30 25 H 0.088243 -5.590873 2.837913 0
M  V30 26 H 1.293791 -4.534324 0.823887 0
M  V30 27 H 2.537641 0.092746 -1.362641 0
M  V30 28 H 1.969481 0.889430 -2.913851 0
M  V30 29 H -0.102107 1.565912 -1.844197 0
M  V30 30 H 0.288895 0.760707 -0.330588 0
M  V30 31 H -0.467033 3.492496 -0.621998 0
M  V30 32 H 0.242113 2.799088 0.949277 0
M  V30 33 H 0.684146 5.468597 -0.287923 0
M  V30 34 H 0.915025 4.927791 1.412971 0
M  V30 35 H 2.980936 3.605427 1.861842 0
M  V30 36 H 4.151719 3.555605 0.539190 0
M  V30 37 H 3.255047 1.541246 -0.157279 0
M  V30 38 H 1.968676 1.697078 1.076210 0
M  V30 39 H -4.270484 -3.261084 3.409901 0
M  V30 END ATOM
M  V30 BEGIN BOND
M  V30 1 1 1 2
M  V30 2 2 2 3
M  V30 3 1 3 4
M  V30 4 2 4 5
M  V30 5 1 5 6
M  V30 6 1 6 7
M  V30 7 2 7 8
M  V30 8 1 8 9
M  V30 9 1 9 10
M  V30 10 1 10 11
M  V30 11 1 11 12
M  V30 12 1 12 13
M  V30 13 1 13 14
M  V30 14 1 14 15
M  V30 15 1 15 16
M  V30 16 1 16 17
M  V30 17 1 8 18
M  V30 18 2 18 19
M  V30 19 1 19 20
M  V30 20 2 20 21
M  V30 21 1 21 22
M  V30 22 2 22 1
M  V30 23 1 21 4
M  V30 24 1 19 5
M  V30 25 1 17 12
M  V30 26 1 1 23
M  V30 27 1 2 24
M  V30 28 1 3 25
M  V30 29 1 6 26
M  V30 30 1 10 27
M  V30 31 1 10 28
M  V30 32 1 11 29
M  V30 33 1 11 30
M  V30 34 1 13 31
M  V30 35 1 13 32
M  V30 36 1 14 33
M  V30 37 1 14 34
M  V30 38 1 16 35
M  V30 39 1 16 36
M  V30 40 1 17 37
M  V30 41 1 17 38
M  V30 42 1 22 39
M  V30 END BOND
M  V30 END CTAB
M  END
>  <Dataset>  (540) 
ChEMBL_Kinases

>  <Ligand_Instance>  (540) 
nan

>  <PDB_ID>  (540) 
nan

>  <Standardized_SMILES>  (540) 
c1ccc2c3[nH]nc(SCCN4CCOCC4)nc-3nc2c1

>  <Name>  (540) 
nan

>  <Pocket>  (540) 
nan

>  <ATP_Site>  (540) 
nan

>  <Peripheral>  (540) 
nan

>  <Num_H_Atoms_ProtBoundConf>  (540) 
nan

>  <Num_Resolved_Atoms>  (540) 
nan

>  <Num_Not_Resolved_Atoms>  (540) 
nan

$$$$
CHEMBL1527239
     RDKit          3D

  0  0  0  0  0  0  0  0  0  0999 V3000
M  V30 BEGIN CTAB
M  V30 COUNTS 54 57 0 0 0
M  V30 BEGIN ATOM
M  V30 1 C 4.874367 -5.998349 -1.348004 0
M  V30 2 O 4.961725 -4.574256 -1.249126 0
M  V30 3 C 3.833311 -3.854762 -0.873803 0
M  V30 4 C 2.612960 -4.432855 -0.585438 0
M  V30 5 C 1.514418 -3.682642 -0.215633 0
M  V30 6 C 1.605372 -2.308592 -0.121674 0
M  V30 7 C 2.816033 -1.717991 -0.406287 0
M  V30 8 C 3.924424 -2.476807 -0.779572 0
M  V30 9 O 5.156318 -1.881125 -1.069656 0
M  V30 10 C 5.292699 -0.473060 -0.985419 0
M  V30 11 C 0.437096 -1.536963 0.269057 0
M  V30 12 C 0.579161 -0.175264 0.348523 0
M  V30 13 C -0.539009 0.565198 0.723413 0
M  V30 14 N -0.660691 1.982767 0.867768 0
M  V30 15 C -1.737722 2.847639 1.259984 0
M  V30 16 C -2.247443 2.759456 2.626237 0
M  V30 17 C -3.089067 1.672047 3.115435 0
M  V30 18 C -4.349597 1.366257 2.388602 0
M  V30 19 C -4.796122 2.474775 1.459513 0
M  V30 20 C -3.986161 2.286254 0.210277 0
M  V30 21 C -2.739485 3.061588 0.154660 0
M  V30 22 N -1.663294 -0.122978 0.975279 0
M  V30 23 C -1.739580 -1.456327 0.880028 0
M  V30 24 O -2.863818 -2.006455 1.143931 0
M  V30 25 N -0.690844 -2.216971 0.522629 0
M  V30 26 C -0.894985 -3.625615 0.455831 0
M  V30 27 C 0.269958 -4.453410 0.063138 0
M  V30 28 H 5.865786 -6.457998 -1.454332 0
M  V30 29 H 4.157002 -6.255299 -2.154118 0
M  V30 30 H 4.392402 -6.359766 -0.392205 0
M  V30 31 H 2.559688 -5.509729 -0.664181 0
M  V30 32 H 2.998228 -0.682349 -0.366995 0
M  V30 33 H 6.356271 -0.216878 -1.158897 0
M  V30 34 H 4.998118 -0.064581 0.002483 0
M  V30 35 H 4.645887 0.048837 -1.723841 0
M  V30 36 H 1.439307 0.401422 0.160273 0
M  V30 37 H 0.300117 2.378560 0.605097 0
M  V30 38 H -1.225333 3.877103 1.266746 0
M  V30 39 H -2.758329 3.727119 2.858243 0
M  V30 40 H -1.344856 2.794708 3.312424 0
M  V30 41 H -3.457496 2.038842 4.138587 0
M  V30 42 H -2.587442 0.722230 3.412130 0
M  V30 43 H -5.225552 1.165743 3.068717 0
M  V30 44 H -4.263178 0.442054 1.783853 0
M  V30 45 H -4.748213 3.468316 1.897676 0
M  V30 46 H -5.861879 2.282083 1.219181 0
M  V30 47 H -4.636906 2.680578 -0.624452 0
M  V30 48 H -3.915884 1.204290 0.003523 0
M  V30 49 H -2.989220 4.124334 -0.037798 0
M  V30 50 H -2.204653 2.740452 -0.788544 0
M  V30 51 H -1.339653 -3.987320 1.417195 0
M  V30 52 H -1.696486 -3.803758 -0.319149 0
M  V30 53 H 0.043007 -5.156137 -0.789491 0
M  V30 54 H 0.510204 -5.147868 0.906881 0
M  V30 END ATOM
M  V30 BEGIN BOND
M  V30 1 1 1 2
M  V30 2 1 2 3
M  V30 3 2 3 4
M  V30 4 1 4 5
M  V30 5 2 5 6
M  V30 6 1 6 7
M  V30 7 2 7 8
M  V30 8 1 8 9
M  V30 9 1 9 10
M  V30 10 1 6 11
M  V30 11 2 11 12
M  V30 12 1 12 13
M  V30 13 1 13 14
M  V30 14 1 14 15
M  V30 15 1 15 16
M  V30 16 1 16 17
M  V30 17 1 17 18
M  V30 18 1 18 19
M  V30 19 1 19 20
M  V30 20 1 20 21
M  V30 21 2 13 22
M  V30 22 1 22 23
M  V30 23 2 23 24
M  V30 24 1 23 25
M  V30 25 1 25 26
M  V30 26 1 26 27
M  V30 27 1 8 3
M  V30 28 1 25 11
M  V30 29 1 27 5
M  V30 30 1 21 15
M  V30 31 1 1 28
M  V30 32 1 1 29
M  V30 33 1 1 30
M  V30 34 1 4 31
M  V30 35 1 7 32
M  V30 36 1 10 33
M  V30 37 1 10 34
M  V30 38 1 10 35
M  V30 39 1 12 36
M  V30 40 1 14 37
M  V30 41 1 15 38
M  V30 42 1 16 39
M  V30 43 1 16 40
M  V30 44 1 17 41
M  V30 45 1 17 42
M  V30 46 1 18 43
M  V30 47 1 18 44
M  V30 48 1 19 45
M  V30 49 1 19 46
M  V30 50 1 20 47
M  V30 51 1 20 48
M  V30 52 1 21 49
M  V30 53 1 21 50
M  V30 54 1 26 51
M  V30 55 1 26 52
M  V30 56 1 27 53
M  V30 57 1 27 54
M  V30 END BOND
M  V30 END CTAB
M  END
>  <Dataset>  (541) 
ChEMBL_Kinases

>  <Ligand_Instance>  (541) 
nan

>  <PDB_ID>  (541) 
nan

>  <Standardized_SMILES>  (541) 
COc1cc2c(cc1OC)-c1cc(NC3CCCCCC3)nc(=O)n1CC2

>  <Name>  (541) 
nan

>  <Pocket>  (541) 
nan

>  <ATP_Site>  (541) 
nan

>  <Peripheral>  (541) 
nan

>  <Num_H_Atoms_ProtBoundConf>  (541) 
nan

>  <Num_Resolved_Atoms>  (541) 
nan

>  <Num_Not_Resolved_Atoms>  (541) 
nan

$$$$
CHEMBL1527249
     RDKit          3D

  0  0  0  0  0  0  0  0  0  0999 V3000
M  V30 BEGIN CTAB
M  V30 COUNTS 40 42 0 0 0
M  V30 BEGIN ATOM
M  V30 1 C 3.119830 -6.302977 -2.338920 0
M  V30 2 C 2.305300 -5.056340 -2.353884 0
M  V30 3 O 3.015060 -3.952540 -2.938006 0
M  V30 4 C 2.399422 -2.722882 -3.028155 0
M  V30 5 O 1.236756 -2.652184 -2.584413 0
M  V30 6 C 3.087972 -1.536015 -3.626175 0
M  V30 7 C 4.353405 -1.173171 -2.881136 0
M  V30 8 S 2.004196 -0.105426 -3.633379 0
M  V30 9 C 1.622889 0.461475 -1.981263 0
M  V30 10 N 2.058658 1.198871 -1.200928 0
M  V30 11 N 1.605692 1.465935 -0.020822 0
M  V30 12 C 0.606437 0.937150 0.428420 0
M  V30 13 N -0.116447 1.034966 1.678498 0
M  V30 14 C -1.163332 1.905652 1.993201 0
M  V30 15 O -1.486965 2.680126 1.055067 0
M  V30 16 C -1.772901 1.854483 3.320470 0
M  V30 17 C -1.435383 1.010521 4.376383 0
M  V30 18 C -2.136441 1.117205 5.561932 0
M  V30 19 C -3.152571 2.011711 5.762087 0
M  V30 20 C -3.494630 2.852518 4.721831 0
M  V30 21 C -2.806591 2.765809 3.521244 0
M  V30 22 O -4.546253 3.655900 5.180494 0
M  V30 23 C -5.155804 2.993758 6.299273 0
M  V30 24 O -4.000805 2.325652 6.816879 0
M  V30 25 S 0.124436 -0.160896 -0.979079 0
M  V30 26 H 2.541146 -7.219414 -2.584666 0
M  V30 27 H 4.031462 -6.244989 -2.973903 0
M  V30 28 H 3.499713 -6.468046 -1.310808 0
M  V30 29 H 1.400417 -5.238710 -2.966403 0
M  V30 30 H 2.016632 -4.787793 -1.322828 0
M  V30 31 H 3.288443 -1.795785 -4.685091 0
M  V30 32 H 4.226108 -0.216049 -2.335302 0
M  V30 33 H 4.604790 -1.934218 -2.102190 0
M  V30 34 H 5.158934 -1.055163 -3.624686 0
M  V30 35 H 0.277632 0.328682 2.337350 0
M  V30 36 H -0.636989 0.336315 4.160737 0
M  V30 37 H -1.843579 0.442036 6.360822 0
M  V30 38 H -3.140885 3.461970 2.761736 0
M  V30 39 H -5.623993 3.678112 7.002414 0
M  V30 40 H -5.868282 2.255303 5.839029 0
M  V30 END ATOM
M  V30 BEGIN BOND
M  V30 1 1 1 2
M  V30 2 1 2 3
M  V30 3 1 3 4
M  V30 4 2 4 5
M  V30 5 1 4 6
M  V30 6 1 6 7
M  V30 7 1 6 8
M  V30 8 1 8 9
M  V30 9 2 9 10
M  V30 10 1 10 11
M  V30 11 2 11 12
M  V30 12 1 12 13
M  V30 13 1 13 14
M  V30 14 2 14 15
M  V30 15 1 14 16
M  V30 16 2 16 17
M  V30 17 1 17 18
M  V30 18 2 18 19
M  V30 19 1 19 20
M  V30 20 2 20 21
M  V30 21 1 20 22
M  V30 22 1 22 23
M  V30 23 1 23 24
M  V30 24 1 12 25
M  V30 25 1 25 9
M  V30 26 1 21 16
M  V30 27 1 24 19
M  V30 28 1 1 26
M  V30 29 1 1 27
M  V30 30 1 1 28
M  V30 31 1 2 29
M  V30 32 1 2 30
M  V30 33 1 6 31
M  V30 34 1 7 32
M  V30 35 1 7 33
M  V30 36 1 7 34
M  V30 37 1 13 35
M  V30 38 1 17 36
M  V30 39 1 18 37
M  V30 40 1 21 38
M  V30 41 1 23 39
M  V30 42 1 23 40
M  V30 END BOND
M  V30 END CTAB
M  END
>  <Dataset>  (542) 
ChEMBL_Kinases

>  <Ligand_Instance>  (542) 
nan

>  <PDB_ID>  (542) 
nan

>  <Standardized_SMILES>  (542) 
CCOC(=O)C(C)Sc1nnc(NC(=O)c2ccc3c(c2)OCO3)s1

>  <Name>  (542) 
nan

>  <Pocket>  (542) 
nan

>  <ATP_Site>  (542) 
nan

>  <Peripheral>  (542) 
nan

>  <Num_H_Atoms_ProtBoundConf>  (542) 
nan

>  <Num_Resolved_Atoms>  (542) 
nan

>  <Num_Not_Resolved_Atoms>  (542) 
nan

$$$$
CHEMBL1527332
     RDKit          3D

  0  0  0  0  0  0  0  0  0  0999 V3000
M  V30 BEGIN CTAB
M  V30 COUNTS 42 45 0 0 0
M  V30 BEGIN ATOM
M  V30 1 C -0.306035 -7.032218 2.041960 0
M  V30 2 C 0.124717 -5.920008 1.180665 0
M  V30 3 C -0.538534 -5.405466 0.084569 0
M  V30 4 N -0.061993 -4.383897 -0.641106 0
M  V30 5 C 1.123208 -3.820907 -0.294827 0
M  V30 6 C 1.722443 -2.699400 -1.029983 0
M  V30 7 N 1.298683 -1.411189 -0.503901 0
M  V30 8 C 1.798085 -0.230654 -1.115917 0
M  V30 9 N 2.642521 -0.309723 -2.156932 0
M  V30 10 C 3.161796 0.747348 -2.793827 0
M  V30 11 N 2.828178 1.975276 -2.379011 0
M  V30 12 C 1.989195 2.187107 -1.344324 0
M  V30 13 C 1.621925 3.438093 -0.887943 0
M  V30 14 C 0.754597 3.598005 0.181547 0
M  V30 15 C 0.238554 2.466232 0.814237 0
M  V30 16 C -0.676053 2.623490 1.942019 0
M  V30 17 C -0.365351 1.777056 2.995908 0
M  V30 18 C -1.144292 1.808308 4.142482 0
M  V30 19 C -2.226064 2.660303 4.269562 0
M  V30 20 C -2.507559 3.489728 3.201381 0
M  V30 21 C -1.751294 3.482201 2.046842 0
M  V30 22 Cl -2.036571 4.495661 0.651026 0
M  V30 23 C 0.631288 1.236916 0.326532 0
M  V30 24 C 1.490856 1.057422 -0.733451 0
M  V30 25 C 1.783131 -4.334171 0.797187 0
M  V30 26 N 1.312656 -5.347585 1.518900 0
M  V30 27 H 0.327855 -7.929088 1.815327 0
M  V30 28 H -1.347427 -7.339366 1.905417 0
M  V30 29 H -0.184477 -6.800130 3.139387 0
M  V30 30 H -1.477244 -5.922285 -0.112568 0
M  V30 31 H 1.489104 -2.765072 -2.124670 0
M  V30 32 H 2.827832 -2.810313 -0.960921 0
M  V30 33 H 0.644811 -1.452872 0.301852 0
M  V30 34 H 3.830154 0.556577 -3.618156 0
M  V30 35 H 2.070162 4.273846 -1.437946 0
M  V30 36 H 0.508515 4.605214 0.487835 0
M  V30 37 H 0.451093 1.073205 3.010188 0
M  V30 38 H -0.931002 1.154906 4.997065 0
M  V30 39 H -2.851974 2.703317 5.158441 0
M  V30 40 H -3.333827 4.191736 3.205591 0
M  V30 41 H 0.193197 0.409091 0.864054 0
M  V30 42 H 2.740033 -3.889242 1.087220 0
M  V30 END ATOM
M  V30 BEGIN BOND
M  V30 1 1 1 2
M  V30 2 2 2 3
M  V30 3 1 3 4
M  V30 4 2 4 5
M  V30 5 1 5 6
M  V30 6 1 6 7
M  V30 7 1 7 8
M  V30 8 2 8 9
M  V30 9 1 9 10
M  V30 10 2 10 11
M  V30 11 1 11 12
M  V30 12 2 12 13
M  V30 13 1 13 14
M  V30 14 2 14 15
M  V30 15 1 15 16
M  V30 16 2 16 17
M  V30 17 1 17 18
M  V30 18 2 18 19
M  V30 19 1 19 20
M  V30 20 2 20 21
M  V30 21 1 21 22
M  V30 22 1 15 23
M  V30 23 2 23 24
M  V30 24 1 5 25
M  V30 25 2 25 26
M  V30 26 1 26 2
M  V30 27 1 24 8
M  V30 28 1 24 12
M  V30 29 1 21 16
M  V30 30 1 1 27
M  V30 31 1 1 28
M  V30 32 1 1 29
M  V30 33 1 3 30
M  V30 34 1 6 31
M  V30 35 1 6 32
M  V30 36 1 7 33
M  V30 37 1 10 34
M  V30 38 1 13 35
M  V30 39 1 14 36
M  V30 40 1 17 37
M  V30 41 1 18 38
M  V30 42 1 19 39
M  V30 43 1 20 40
M  V30 44 1 23 41
M  V30 45 1 25 42
M  V30 END BOND
M  V30 END CTAB
M  END
>  <Dataset>  (543) 
ChEMBL_Kinases

>  <Ligand_Instance>  (543) 
nan

>  <PDB_ID>  (543) 
nan

>  <Standardized_SMILES>  (543) 
Cc1cnc(CNc2ncnc3ccc(-c4ccccc4Cl)cc23)cn1

>  <Name>  (543) 
nan

>  <Pocket>  (543) 
nan

>  <ATP_Site>  (543) 
nan

>  <Peripheral>  (543) 
nan

>  <Num_H_Atoms_ProtBoundConf>  (543) 
nan

>  <Num_Resolved_Atoms>  (543) 
nan

>  <Num_Not_Resolved_Atoms>  (543) 
nan

$$$$
CHEMBL1527359
     RDKit          3D

  0  0  0  0  0  0  0  0  0  0999 V3000
M  V30 BEGIN CTAB
M  V30 COUNTS 33 34 0 0 0
M  V30 BEGIN ATOM
M  V30 1 C -3.156648 -3.304256 2.872305 0
M  V30 2 C -2.036410 -3.157920 1.891346 0
M  V30 3 C -1.042192 -2.251552 2.185172 0
M  V30 4 C 0.039684 -2.026717 1.363947 0
M  V30 5 C 0.159986 -2.734516 0.174590 0
M  V30 6 O 1.127683 -2.706213 -0.815453 0
M  V30 7 C 2.223598 -1.831450 -0.693836 0
M  V30 8 C 1.892533 -0.406883 -0.664316 0
M  V30 9 O 2.975291 0.268433 -0.543928 0
M  V30 10 N 0.711581 0.353528 -0.736289 0
M  V30 11 C 0.769827 1.774125 -0.669901 0
M  V30 12 C 0.694819 2.516660 0.504197 0
M  V30 13 C 0.784941 3.877497 0.193582 0
M  V30 14 C 0.754099 5.060151 1.105190 0
M  V30 15 O 0.908069 3.903675 -1.124740 0
M  V30 16 N 0.900615 2.710345 -1.627380 0
M  V30 17 C -0.878874 -3.643347 -0.074906 0
M  V30 18 N -0.901152 -4.440374 -1.248672 0 CHG=1 VAL=4
M  V30 19 O -1.943742 -4.869217 -1.780750 0
M  V30 20 O 0.020901 -4.953157 -2.096489 0 CHG=-1 VAL=1
M  V30 21 N -1.953652 -3.868468 0.738165 0
M  V30 22 H -3.688508 -4.239192 2.600389 0
M  V30 23 H -3.824627 -2.429590 2.842502 0
M  V30 24 H -2.768753 -3.464388 3.911881 0
M  V30 25 H -1.013132 -1.641264 3.067449 0
M  V30 26 H 0.865726 -1.345111 1.501694 0
M  V30 27 H 2.991467 -2.016258 -1.481190 0
M  V30 28 H 2.770470 -2.070872 0.264599 0
M  V30 29 H -0.125016 -0.261529 -0.846438 0
M  V30 30 H 0.583685 2.183512 1.542357 0
M  V30 31 H 0.191723 4.784930 2.041514 0
M  V30 32 H 1.761350 5.371935 1.393739 0
M  V30 33 H 0.145635 5.875414 0.644779 0
M  V30 END ATOM
M  V30 BEGIN BOND
M  V30 1 1 1 2
M  V30 2 2 2 3
M  V30 3 1 3 4
M  V30 4 2 4 5
M  V30 5 1 5 6
M  V30 6 1 6 7
M  V30 7 1 7 8
M  V30 8 2 8 9
M  V30 9 1 8 10
M  V30 10 1 10 11
M  V30 11 1 11 12
M  V30 12 2 12 13
M  V30 13 1 13 14
M  V30 14 1 13 15
M  V30 15 1 15 16
M  V30 16 1 5 17
M  V30 17 1 17 18
M  V30 18 2 18 19
M  V30 19 1 18 20
M  V30 20 2 17 21
M  V30 21 1 21 2
M  V30 22 2 16 11
M  V30 23 1 1 22
M  V30 24 1 1 23
M  V30 25 1 1 24
M  V30 26 1 3 25
M  V30 27 1 4 26
M  V30 28 1 7 27
M  V30 29 1 7 28
M  V30 30 1 10 29
M  V30 31 1 12 30
M  V30 32 1 14 31
M  V30 33 1 14 32
M  V30 34 1 14 33
M  V30 END BOND
M  V30 END CTAB
M  END
>  <Dataset>  (544) 
ChEMBL_Kinases

>  <Ligand_Instance>  (544) 
nan

>  <PDB_ID>  (544) 
nan

>  <Standardized_SMILES>  (544) 
Cc1ccc(OCC(=O)Nc2cc(C)on2)c([N+](=O)[O-])n1

>  <Name>  (544) 
nan

>  <Pocket>  (544) 
nan

>  <ATP_Site>  (544) 
nan

>  <Peripheral>  (544) 
nan

>  <Num_H_Atoms_ProtBoundConf>  (544) 
nan

>  <Num_Resolved_Atoms>  (544) 
nan

>  <Num_Not_Resolved_Atoms>  (544) 
nan

$$$$
CHEMBL1527443
     RDKit          3D

  0  0  0  0  0  0  0  0  0  0999 V3000
M  V30 BEGIN CTAB
M  V30 COUNTS 90 96 0 0 0
M  V30 BEGIN ATOM
M  V30 1 C -4.231237 1.222081 1.630360 0
M  V30 2 O -2.890227 1.064128 2.104690 0
M  V30 3 C -1.836042 0.812747 1.238511 0
M  V30 4 O -1.437012 0.633568 0.101614 0
M  V30 5 C -0.619963 0.702613 2.012134 0 CFG=1
M  V30 6 C -0.375108 1.937179 2.838277 0
M  V30 7 C -0.171371 3.170372 2.058266 0
M  V30 8 C 1.192965 3.436664 1.773769 0
M  V30 9 C 1.397607 4.600577 1.005171 0
M  V30 10 C 0.420120 5.477771 0.519376 0
M  V30 11 O 1.141818 6.437284 -0.167808 0
M  V30 12 C 0.536443 7.509334 -0.836391 0
M  V30 13 C -0.920212 5.169413 0.832172 0
M  V30 14 C -1.117351 4.033054 1.581569 0
M  V30 15 C -0.678884 -0.492848 2.907142 0 CFG=1
M  V30 16 C -1.041173 -1.753929 2.181556 0
M  V30 17 C -1.959509 -2.232895 1.281921 0
M  V30 18 C -1.618076 -3.556299 0.978189 0
M  V30 19 C -2.487701 -4.234373 0.033129 0
M  V30 20 O -2.869294 -5.185035 0.810223 0
M  V30 21 N -2.820152 -3.953910 -1.300058 0
M  V30 22 C -2.456796 -2.922818 -2.284427 0
M  V30 23 C -3.800492 -2.635445 -2.949391 0
M  V30 24 C -4.390387 -4.024959 -3.077058 0
M  V30 25 C -3.756417 -4.808826 -1.978880 0
M  V30 26 N -0.534842 -3.815720 1.690289 0
M  V30 27 C 0.251790 -5.083555 1.551972 0
M  V30 28 C 1.330072 -4.713297 0.536215 0
M  V30 29 C 2.520894 -4.317435 1.092716 0
M  V30 30 C 3.415616 -3.771113 0.162604 0
M  V30 31 C 3.066703 -3.670983 -1.167502 0
M  V30 32 O 4.129420 -3.083002 -1.869005 0
M  V30 33 C 1.829114 -4.099996 -1.684708 0
M  V30 34 O 1.817748 -3.860861 -3.005000 0
M  V30 35 C 0.833648 -4.214373 -3.962696 0
M  V30 36 C 0.929810 -4.649960 -0.758007 0
M  V30 37 C -0.117059 -2.784515 2.454102 0
M  V30 38 C 0.827312 -2.223460 3.461939 0
M  V30 39 C 0.788458 -0.720999 3.212110 0 CFG=1
M  V30 40 C 1.542711 -0.388622 1.938655 0
M  V30 41 N 0.573802 0.397163 1.207225 0
M  V30 42 C 1.132044 0.614088 -0.055041 0
M  V30 43 O 2.165102 -0.063839 0.290273 0
M  V30 44 C 1.293501 1.066645 -1.386680 0
M  V30 45 C 2.414635 1.862247 -1.556416 0
M  V30 46 C 2.804380 2.429151 -2.786694 0
M  V30 47 C 1.912504 2.079154 -3.794521 0
M  V30 48 C 0.789499 1.300511 -3.699732 0
M  V30 49 C 0.490482 0.796319 -2.473197 0
M  V30 50 H -4.634871 2.220498 1.760656 0
M  V30 51 H -4.199624 0.987691 0.523278 0
M  V30 52 H -4.885628 0.431020 2.044471 0
M  V30 53 H -1.238076 2.080912 3.513131 0
M  V30 54 H 0.494828 1.787828 3.512075 0
M  V30 55 H 1.931960 2.775114 2.139027 0
M  V30 56 H 2.496365 4.681330 0.866150 0
M  V30 57 H 0.942540 8.448061 -0.402249 0
M  V30 58 H -0.556793 7.518970 -0.706231 0
M  V30 59 H 0.811824 7.535702 -1.922605 0
M  V30 60 H -1.537940 5.903072 0.413360 0
M  V30 61 H -2.153659 3.839064 1.791098 0
M  V30 62 H -1.264133 -0.358680 3.805219 0
M  V30 63 H -2.780073 -1.616333 0.929091 0
M  V30 64 H -1.810878 -3.337222 -3.079070 0
M  V30 65 H -2.113091 -1.998914 -1.824353 0
M  V30 66 H -4.451805 -1.984313 -2.367249 0
M  V30 67 H -3.693824 -2.194253 -3.947740 0
M  V30 68 H -4.141942 -4.395637 -4.092699 0
M  V30 69 H -5.507238 -4.001875 -3.010123 0
M  V30 70 H -4.590864 -5.025674 -1.244299 0
M  V30 71 H -3.295296 -5.764063 -2.339015 0
M  V30 72 H -0.384200 -5.822186 1.079893 0
M  V30 73 H 0.662053 -5.379641 2.501509 0
M  V30 74 H 2.713951 -4.435996 2.133427 0
M  V30 75 H 4.367247 -3.462612 0.614352 0
M  V30 76 H 4.131846 -2.061060 -1.806981 0
M  V30 77 H 1.208418 -4.772099 -4.821310 0
M  V30 78 H 0.031307 -4.830404 -3.507572 0
M  V30 79 H 0.344527 -3.254152 -4.270538 0
M  V30 80 H 0.023971 -4.953071 -1.234605 0
M  V30 81 H 1.814942 -2.664146 3.414805 0
M  V30 82 H 0.384677 -2.409620 4.453668 0
M  V30 83 H 1.131612 -0.134084 4.051523 0
M  V30 84 H 2.495459 0.130220 2.149581 0
M  V30 85 H 1.792701 -1.370803 1.485746 0
M  V30 86 H 3.097830 2.117923 -0.745777 0
M  V30 87 H 3.670894 3.036923 -2.864481 0
M  V30 88 H 2.223289 2.515066 -4.760648 0
M  V30 89 H 0.229666 1.150039 -4.623770 0
M  V30 90 H -0.374611 0.183329 -2.354192 0
M  V30 END ATOM
M  V30 BEGIN BOND
M  V30 1 1 1 2
M  V30 2 1 2 3
M  V30 3 2 3 4
M  V30 4 1 3 5
M  V30 5 1 5 6 CFG=1
M  V30 6 1 6 7
M  V30 7 2 7 8
M  V30 8 1 8 9
M  V30 9 2 9 10
M  V30 10 1 10 11
M  V30 11 1 11 12
M  V30 12 1 10 13
M  V30 13 2 13 14
M  V30 14 1 5 15
M  V30 15 1 15 16
M  V30 16 1 16 17
M  V30 17 2 17 18
M  V30 18 1 18 19
M  V30 19 2 19 20
M  V30 20 1 19 21
M  V30 21 1 21 22
M  V30 22 1 22 23
M  V30 23 1 23 24
M  V30 24 1 24 25
M  V30 25 1 18 26
M  V30 26 1 26 27
M  V30 27 1 27 28
M  V30 28 2 28 29
M  V30 29 1 29 30
M  V30 30 2 30 31
M  V30 31 1 31 32
M  V30 32 1 31 33
M  V30 33 1 33 34
M  V30 34 1 34 35
M  V30 35 2 33 36
M  V30 36 1 26 37
M  V30 37 1 37 38
M  V30 38 1 38 39
M  V30 39 1 39 40
M  V30 40 1 40 41
M  V30 41 1 41 42
M  V30 42 2 42 43
M  V30 43 1 42 44
M  V30 44 2 44 45
M  V30 45 1 45 46
M  V30 46 2 46 47
M  V30 47 1 47 48
M  V30 48 2 48 49
M  V30 49 1 41 5
M  V30 50 1 49 44
M  V30 51 1 14 7
M  V30 52 1 39 15
M  V30 53 2 37 16
M  V30 54 1 25 21
M  V30 55 1 36 28
M  V30 56 1 1 50
M  V30 57 1 1 51
M  V30 58 1 1 52
M  V30 59 1 6 53
M  V30 60 1 6 54
M  V30 61 1 8 55
M  V30 62 1 9 56
M  V30 63 1 12 57
M  V30 64 1 12 58
M  V30 65 1 12 59
M  V30 66 1 13 60
M  V30 67 1 14 61
M  V30 68 1 15 62 CFG=1
M  V30 69 1 17 63
M  V30 70 1 22 64
M  V30 71 1 22 65
M  V30 72 1 23 66
M  V30 73 1 23 67
M  V30 74 1 24 68
M  V30 75 1 24 69
M  V30 76 1 25 70
M  V30 77 1 25 71
M  V30 78 1 27 72
M  V30 79 1 27 73
M  V30 80 1 29 74
M  V30 81 1 30 75
M  V30 82 1 32 76
M  V30 83 1 35 77
M  V30 84 1 35 78
M  V30 85 1 35 79
M  V30 86 1 36 80
M  V30 87 1 38 81
M  V30 88 1 38 82
M  V30 89 1 39 83 CFG=1
M  V30 90 1 40 84
M  V30 91 1 40 85
M  V30 92 1 45 86
M  V30 93 1 46 87
M  V30 94 1 47 88
M  V30 95 1 48 89
M  V30 96 1 49 90
M  V30 END BOND
M  V30 END CTAB
M  END
>  <Dataset>  (545) 
ChEMBL_Kinases

>  <Ligand_Instance>  (545) 
nan

>  <PDB_ID>  (545) 
nan

>  <Standardized_SMILES>  (545) 
COC(=O)[C@@]1(Cc2ccc(OC)cc2)[C@H]2c3cc(C(=O)N4CCCC4)n(Cc4ccc(O)c(OC)c4)c3C[C@H]2CN1C(=O)c1ccccc1

>  <Name>  (545) 
nan

>  <Pocket>  (545) 
nan

>  <ATP_Site>  (545) 
nan

>  <Peripheral>  (545) 
nan

>  <Num_H_Atoms_ProtBoundConf>  (545) 
nan

>  <Num_Resolved_Atoms>  (545) 
nan

>  <Num_Not_Resolved_Atoms>  (545) 
nan

$$$$
CHEMBL1527530
     RDKit          3D

  0  0  0  0  0  0  0  0  0  0999 V3000
M  V30 BEGIN CTAB
M  V30 COUNTS 58 61 0 0 0
M  V30 BEGIN ATOM
M  V30 1 C 2.829848 -4.225113 0.569433 0
M  V30 2 C 3.178265 -2.898380 1.202195 0
M  V30 3 O 2.927128 -1.855198 0.247858 0
M  V30 4 C 3.175012 -0.557956 0.610871 0
M  V30 5 O 3.592836 -0.706468 1.803582 0
M  V30 6 C 3.001189 0.643594 -0.168844 0
M  V30 7 C 3.954079 1.239281 -0.997751 0
M  V30 8 C 5.348175 0.783793 -1.267487 0
M  V30 9 N 3.419393 2.351915 -1.560564 0
M  V30 10 C 4.100348 3.251564 -2.489402 0
M  V30 11 C 2.142259 2.530614 -1.143725 0
M  V30 12 C 1.130139 3.442520 -1.360311 0
M  V30 13 C -0.107945 3.283273 -0.720010 0
M  V30 14 C -0.354652 2.206491 0.149715 0
M  V30 15 O -1.633287 2.359998 0.586560 0
M  V30 16 C -2.360877 1.553967 1.450562 0
M  V30 17 C -2.620825 0.154660 1.009671 0
M  V30 18 O -3.340103 0.210242 -0.185209 0
M  V30 19 C -3.448612 -0.615338 2.043711 0
M  V30 20 N -3.678751 -1.967633 1.577361 0
M  V30 21 C -4.750549 -2.345902 0.821504 0
M  V30 22 C -5.878715 -1.496092 0.324571 0
M  V30 23 N -4.653621 -3.676437 0.563495 0
M  V30 24 C -3.538878 -4.157898 1.140427 0
M  V30 25 C -3.046560 -5.440438 1.139453 0
M  V30 26 C -1.866122 -5.641669 1.824275 0
M  V30 27 C -1.244224 -4.582373 2.463666 0
M  V30 28 C -1.769998 -3.290542 2.446090 0
M  V30 29 C -2.948429 -3.078847 1.765040 0
M  V30 30 C 0.686498 1.330010 0.329389 0
M  V30 31 C 1.905658 1.473043 -0.291651 0
M  V30 32 H 3.640328 -4.973194 0.793975 0
M  V30 33 H 1.920300 -4.679623 1.042088 0
M  V30 34 H 2.745632 -4.121946 -0.530626 0
M  V30 35 H 2.589555 -2.701468 2.138005 0
M  V30 36 H 4.262718 -2.896891 1.506418 0
M  V30 37 H 5.581107 0.968250 -2.344289 0
M  V30 38 H 5.435313 -0.322394 -1.144005 0
M  V30 39 H 6.090481 1.310321 -0.624503 0
M  V30 40 H 3.618453 4.249901 -2.478743 0
M  V30 41 H 5.158056 3.287222 -2.168331 0
M  V30 42 H 3.975407 2.830251 -3.494852 0
M  V30 43 H 1.418123 4.228878 -2.041389 0
M  V30 44 H -0.746212 4.111092 -1.036029 0
M  V30 45 H -1.733495 1.465141 2.389128 0
M  V30 46 H -3.284957 2.082005 1.784957 0
M  V30 47 H -1.680722 -0.371229 0.807329 0
M  V30 48 H -3.208213 -0.596765 -0.750821 0
M  V30 49 H -2.950793 -0.611949 3.028912 0
M  V30 50 H -4.433503 -0.128483 2.162307 0
M  V30 51 H -6.053975 -0.608155 0.988520 0
M  V30 52 H -6.801112 -2.096428 0.318985 0
M  V30 53 H -5.704984 -1.180541 -0.733638 0
M  V30 54 H -3.581559 -6.223628 0.619967 0
M  V30 55 H -1.469480 -6.650686 1.829398 0
M  V30 56 H -0.321904 -4.771727 2.990943 0
M  V30 57 H -1.291866 -2.466247 2.940016 0
M  V30 58 H 0.423227 0.551760 1.009066 0
M  V30 END ATOM
M  V30 BEGIN BOND
M  V30 1 1 1 2
M  V30 2 1 2 3
M  V30 3 1 3 4
M  V30 4 2 4 5
M  V30 5 1 4 6
M  V30 6 2 6 7
M  V30 7 1 7 8
M  V30 8 1 7 9
M  V30 9 1 9 10
M  V30 10 1 9 11
M  V30 11 2 11 12
M  V30 12 1 12 13
M  V30 13 2 13 14
M  V30 14 1 14 15
M  V30 15 1 15 16
M  V30 16 1 16 17
M  V30 17 1 17 18
M  V30 18 1 17 19
M  V30 19 1 19 20
M  V30 20 1 20 21
M  V30 21 1 21 22
M  V30 22 2 21 23
M  V30 23 1 23 24
M  V30 24 2 24 25
M  V30 25 1 25 26
M  V30 26 2 26 27
M  V30 27 1 27 28
M  V30 28 2 28 29
M  V30 29 1 14 30
M  V30 30 2 30 31
M  V30 31 1 31 6
M  V30 32 1 31 11
M  V30 33 1 29 20
M  V30 34 1 29 24
M  V30 35 1 1 32
M  V30 36 1 1 33
M  V30 37 1 1 34
M  V30 38 1 2 35
M  V30 39 1 2 36
M  V30 40 1 8 37
M  V30 41 1 8 38
M  V30 42 1 8 39
M  V30 43 1 10 40
M  V30 44 1 10 41
M  V30 45 1 10 42
M  V30 46 1 12 43
M  V30 47 1 13 44
M  V30 48 1 16 45
M  V30 49 1 16 46
M  V30 50 1 17 47
M  V30 51 1 18 48
M  V30 52 1 19 49
M  V30 53 1 19 50
M  V30 54 1 22 51
M  V30 55 1 22 52
M  V30 56 1 22 53
M  V30 57 1 25 54
M  V30 58 1 26 55
M  V30 59 1 27 56
M  V30 60 1 28 57
M  V30 61 1 30 58
M  V30 END BOND
M  V30 END CTAB
M  END
>  <Dataset>  (546) 
ChEMBL_Kinases

>  <Ligand_Instance>  (546) 
nan

>  <PDB_ID>  (546) 
nan

>  <Standardized_SMILES>  (546) 
CCOC(=O)c1c(C)n(C)c2ccc(OCC(O)Cn3c(C)nc4ccccc43)cc12

>  <Name>  (546) 
nan

>  <Pocket>  (546) 
nan

>  <ATP_Site>  (546) 
nan

>  <Peripheral>  (546) 
nan

>  <Num_H_Atoms_ProtBoundConf>  (546) 
nan

>  <Num_Resolved_Atoms>  (546) 
nan

>  <Num_Not_Resolved_Atoms>  (546) 
nan

$$$$
CHEMBL1528299
     RDKit          3D

  0  0  0  0  0  0  0  0  0  0999 V3000
M  V30 BEGIN CTAB
M  V30 COUNTS 31 33 0 0 0
M  V30 BEGIN ATOM
M  V30 1 C -3.384774 -3.311331 2.848431 0
M  V30 2 C -1.998677 -3.067084 2.376966 0
M  V30 3 C -1.480194 -2.819170 1.123637 0
M  V30 4 N -0.120161 -2.651858 1.159356 0
M  V30 5 S 0.637553 -2.322207 -0.353214 0
M  V30 6 O -0.011893 -3.071862 -1.467743 0
M  V30 7 O 2.079649 -2.832670 -0.310080 0
M  V30 8 C 0.665524 -0.610358 -0.653880 0
M  V30 9 C -0.104967 -0.149561 -1.721193 0
M  V30 10 C -0.239741 1.164525 -2.100486 0
M  V30 11 C 0.437690 2.121528 -1.375027 0
M  V30 12 Br 0.358634 3.984219 -1.766641 0
M  V30 13 C 1.212410 1.709465 -0.311157 0
M  V30 14 C 1.928728 2.607993 0.458860 0
M  V30 15 C 2.707399 2.179413 1.515442 0
M  V30 16 C 2.808535 0.830686 1.854287 0
M  V30 17 C 2.095474 -0.045106 1.085305 0
M  V30 18 C 1.318560 0.380070 0.033086 0
M  V30 19 C 0.178238 -2.803402 2.460547 0
M  V30 20 N -0.918409 -3.049109 3.195343 0
M  V30 21 H -3.637827 -4.384307 2.754744 0
M  V30 22 H -4.093284 -2.716142 2.202602 0
M  V30 23 H -3.477503 -2.910943 3.859527 0
M  V30 24 H -2.217113 -2.794547 0.310976 0
M  V30 25 H -0.664281 -0.847424 -2.334781 0
M  V30 26 H -0.844811 1.469793 -2.929632 0
M  V30 27 H 1.854807 3.660457 0.200501 0
M  V30 28 H 3.229019 2.960485 2.056678 0
M  V30 29 H 3.439934 0.594379 2.693040 0
M  V30 30 H 2.174539 -1.086084 1.328585 0
M  V30 31 H 1.221576 -2.714158 2.721387 0
M  V30 END ATOM
M  V30 BEGIN BOND
M  V30 1 1 1 2
M  V30 2 2 2 3
M  V30 3 1 3 4
M  V30 4 1 4 5
M  V30 5 2 5 6
M  V30 6 2 5 7
M  V30 7 1 5 8
M  V30 8 2 8 9
M  V30 9 1 9 10
M  V30 10 2 10 11
M  V30 11 1 11 12
M  V30 12 1 11 13
M  V30 13 2 13 14
M  V30 14 1 14 15
M  V30 15 2 15 16
M  V30 16 1 16 17
M  V30 17 2 17 18
M  V30 18 1 4 19
M  V30 19 2 19 20
M  V30 20 1 20 2
M  V30 21 1 18 8
M  V30 22 1 18 13
M  V30 23 1 1 21
M  V30 24 1 1 22
M  V30 25 1 1 23
M  V30 26 1 3 24
M  V30 27 1 9 25
M  V30 28 1 10 26
M  V30 29 1 14 27
M  V30 30 1 15 28
M  V30 31 1 16 29
M  V30 32 1 17 30
M  V30 33 1 19 31
M  V30 END BOND
M  V30 END CTAB
M  END
>  <Dataset>  (547) 
ChEMBL_Kinases

>  <Ligand_Instance>  (547) 
nan

>  <PDB_ID>  (547) 
nan

>  <Standardized_SMILES>  (547) 
Cc1cn(S(=O)(=O)c2ccc(Br)c3ccccc23)cn1

>  <Name>  (547) 
nan

>  <Pocket>  (547) 
nan

>  <ATP_Site>  (547) 
nan

>  <Peripheral>  (547) 
nan

>  <Num_H_Atoms_ProtBoundConf>  (547) 
nan

>  <Num_Resolved_Atoms>  (547) 
nan

>  <Num_Not_Resolved_Atoms>  (547) 
nan

$$$$
CHEMBL1527671
     RDKit          3D

  0  0  0  0  0  0  0  0  0  0999 V3000
M  V30 BEGIN CTAB
M  V30 COUNTS 66 71 0 0 0
M  V30 BEGIN ATOM
M  V30 1 C 1.045512 -1.847506 5.692323 0
M  V30 2 C 2.333882 -2.065302 4.977530 0
M  V30 3 C 3.425887 -2.476282 5.704911 0
M  V30 4 C 4.633408 -2.680939 5.038116 0
M  V30 5 C 4.654091 -2.452896 3.663065 0
M  V30 6 N 3.547623 -2.051491 3.014499 0
M  V30 7 C 3.614431 -1.843615 1.686646 0
M  V30 8 O 4.665452 -2.008306 1.027144 0
M  V30 9 C 2.499065 -1.431268 0.987374 0
M  V30 10 C 1.283752 -1.215955 1.603468 0
M  V30 11 N 1.256584 -1.437292 2.949155 0
M  V30 12 C 2.354784 -1.840056 3.618607 0
M  V30 13 N 0.108986 -0.787469 0.901159 0
M  V30 14 C -1.183701 -0.919860 1.515178 0
M  V30 15 C -2.191189 -1.484618 0.555434 0
M  V30 16 C -1.981899 -1.067788 -0.858182 0
M  V30 17 C -2.887878 -1.936239 -1.738556 0
M  V30 18 C -4.300300 -1.732432 -1.345284 0
M  V30 19 C -5.001334 -2.441686 -0.401449 0
M  V30 20 C -6.333193 -2.109208 -0.160252 0
M  V30 21 C -6.982662 -1.088603 -0.835697 0
M  V30 22 C -6.262950 -0.391460 -1.776035 0
M  V30 23 C -4.941541 -0.709946 -2.025855 0
M  V30 24 C -0.564294 -1.110242 -1.341655 0
M  V30 25 C 0.237361 -0.225932 -0.419216 0
M  V30 26 C 1.650652 -0.007669 -0.832345 0
M  V30 27 C 2.538487 -1.192786 -0.478172 0
M  V30 28 C 1.742599 0.282597 -2.270438 0
M  V30 29 O 2.250061 -0.367226 -3.226791 0
M  V30 30 N 1.145599 1.535236 -2.658631 0
M  V30 31 C 0.598472 1.814835 -3.984646 0
M  V30 32 C 1.064973 2.608543 -1.700841 0
M  V30 33 O 0.544514 3.711915 -2.026600 0
M  V30 34 N 1.573439 2.429320 -0.378411 0
M  V30 35 C 1.484516 3.525233 0.579804 0
M  V30 36 C 2.159903 1.163171 -0.036883 0
M  V30 37 O 3.032182 1.183467 0.889376 0
M  V30 38 H 0.791188 -0.759584 5.541976 0
M  V30 39 H 1.129387 -2.108191 6.765771 0
M  V30 40 H 0.224516 -2.434499 5.225119 0
M  V30 41 H 3.430939 -2.656220 6.756754 0
M  V30 42 H 5.571484 -3.004752 5.490627 0
M  V30 43 H 5.562434 -2.600473 3.124027 0
M  V30 44 H -1.472487 0.105031 1.880895 0
M  V30 45 H -1.129968 -1.604826 2.403970 0
M  V30 46 H -3.195913 -1.106074 0.872140 0
M  V30 47 H -2.225679 -2.588867 0.678998 0
M  V30 48 H -2.333811 -0.014782 -0.969391 0
M  V30 49 H -2.739240 -1.730589 -2.818905 0
M  V30 50 H -2.672660 -3.008981 -1.584193 0
M  V30 51 H -4.470948 -3.220469 0.099618 0
M  V30 52 H -6.881648 -2.684320 0.596847 0
M  V30 53 H -8.013782 -0.839973 -0.640844 0
M  V30 54 H -6.778507 0.406038 -2.300514 0
M  V30 55 H -4.465142 -0.092692 -2.792221 0
M  V30 56 H -0.560917 -0.730740 -2.377244 0
M  V30 57 H -0.135726 -2.130519 -1.271075 0
M  V30 58 H -0.253694 0.787467 -0.364581 0
M  V30 59 H 2.160528 -2.061320 -1.056367 0
M  V30 60 H 3.567229 -0.956820 -0.793841 0
M  V30 61 H -0.409246 2.268251 -3.842027 0
M  V30 62 H 0.489600 0.893743 -4.563235 0
M  V30 63 H 1.209904 2.558778 -4.536000 0
M  V30 64 H 2.140829 4.355299 0.272399 0
M  V30 65 H 0.437443 3.886211 0.635853 0
M  V30 66 H 1.765396 3.169326 1.574834 0
M  V30 END ATOM
M  V30 BEGIN BOND
M  V30 1 1 1 2
M  V30 2 2 2 3
M  V30 3 1 3 4
M  V30 4 2 4 5
M  V30 5 1 5 6
M  V30 6 1 6 7
M  V30 7 2 7 8
M  V30 8 1 7 9
M  V30 9 2 9 10
M  V30 10 1 10 11
M  V30 11 2 11 12
M  V30 12 1 10 13
M  V30 13 1 13 14
M  V30 14 1 14 15
M  V30 15 1 15 16
M  V30 16 1 16 17
M  V30 17 1 17 18
M  V30 18 2 18 19
M  V30 19 1 19 20
M  V30 20 2 20 21
M  V30 21 1 21 22
M  V30 22 2 22 23
M  V30 23 1 16 24
M  V30 24 1 24 25
M  V30 25 1 25 26
M  V30 26 1 26 27
M  V30 27 1 26 28
M  V30 28 2 28 29
M  V30 29 1 28 30
M  V30 30 1 30 31
M  V30 31 1 30 32
M  V30 32 2 32 33
M  V30 33 1 32 34
M  V30 34 1 34 35
M  V30 35 1 34 36
M  V30 36 2 36 37
M  V30 37 1 12 2
M  V30 38 1 25 13
M  V30 39 1 36 26
M  V30 40 1 12 6
M  V30 41 1 23 18
M  V30 42 1 27 9
M  V30 43 1 1 38
M  V30 44 1 1 39
M  V30 45 1 1 40
M  V30 46 1 3 41
M  V30 47 1 4 42
M  V30 48 1 5 43
M  V30 49 1 14 44
M  V30 50 1 14 45
M  V30 51 1 15 46
M  V30 52 1 15 47
M  V30 53 1 16 48
M  V30 54 1 17 49
M  V30 55 1 17 50
M  V30 56 1 19 51
M  V30 57 1 20 52
M  V30 58 1 21 53
M  V30 59 1 22 54
M  V30 60 1 23 55
M  V30 61 1 24 56
M  V30 62 1 24 57
M  V30 63 1 25 58
M  V30 64 1 27 59
M  V30 65 1 27 60
M  V30 66 1 31 61
M  V30 67 1 31 62
M  V30 68 1 31 63
M  V30 69 1 35 64
M  V30 70 1 35 65
M  V30 71 1 35 66
M  V30 END BOND
M  V30 END CTAB
M  END
>  <Dataset>  (548) 
ChEMBL_Kinases

>  <Ligand_Instance>  (548) 
nan

>  <PDB_ID>  (548) 
nan

>  <Standardized_SMILES>  (548) 
Cc1cccn2c(=O)c3c(nc12)N1CCC(Cc2ccccc2)CC1C1(C3)C(=O)N(C)C(=O)N(C)C1=O

>  <Name>  (548) 
nan

>  <Pocket>  (548) 
nan

>  <ATP_Site>  (548) 
nan

>  <Peripheral>  (548) 
nan

>  <Num_H_Atoms_ProtBoundConf>  (548) 
nan

>  <Num_Resolved_Atoms>  (548) 
nan

>  <Num_Not_Resolved_Atoms>  (548) 
nan

$$$$
CHEMBL1527714
     RDKit          3D

  0  0  0  0  0  0  0  0  0  0999 V3000
M  V30 BEGIN CTAB
M  V30 COUNTS 45 47 0 0 0
M  V30 BEGIN ATOM
M  V30 1 C 0.200584 -6.890659 0.882245 0
M  V30 2 O -0.513898 -5.865550 0.205790 0
M  V30 3 C 0.137364 -4.741675 -0.238998 0
M  V30 4 C 1.500700 -4.635890 -0.019167 0
M  V30 5 C 2.159979 -3.502663 -0.464336 0
M  V30 6 C 1.420861 -2.537549 -1.105508 0
M  V30 7 C 2.148128 -1.322132 -1.591421 0
M  V30 8 N 2.244161 -0.353305 -0.525710 0
M  V30 9 C 1.247883 0.510296 -0.011620 0
M  V30 10 O 0.102628 0.460368 -0.523618 0
M  V30 11 C 1.538010 1.431903 1.080388 0
M  V30 12 C 2.714915 1.707004 1.748476 0
M  V30 13 N 2.416904 2.641831 2.663552 0
M  V30 14 N 1.168382 2.996085 2.650488 0
M  V30 15 C 0.498936 3.893483 3.406605 0
M  V30 16 C 1.081843 4.723501 4.467762 0
M  V30 17 F 0.919815 6.086554 4.199117 0
M  V30 18 F 0.481654 4.464561 5.704690 0
M  V30 19 C -0.865089 4.053665 3.152221 0
M  V30 20 C -1.440942 3.291591 2.150523 0
M  V30 21 C -2.866987 3.308065 1.724632 0
M  V30 22 N -0.726082 2.398895 1.411229 0
M  V30 23 C 0.599999 2.267564 1.685015 0
M  V30 24 C 0.066649 -2.597400 -1.347361 0
M  V30 25 C -0.568237 -3.755073 -0.884460 0
M  V30 26 O -1.951199 -3.944044 -1.067814 0
M  V30 27 C -2.714866 -2.935755 -1.738712 0
M  V30 28 H 0.861095 -7.374320 0.154022 0
M  V30 29 H -0.476679 -7.578787 1.431900 0
M  V30 30 H 0.858575 -6.444292 1.676214 0
M  V30 31 H 2.123656 -5.378567 0.483925 0
M  V30 32 H 3.213054 -3.370661 -0.319610 0
M  V30 33 H 1.639190 -0.879607 -2.473543 0
M  V30 34 H 3.156379 -1.643828 -1.885751 0
M  V30 35 H 3.183887 -0.246663 -0.030096 0
M  V30 36 H 3.654435 1.226143 1.526272 0
M  V30 37 H 2.163928 4.561444 4.610900 0
M  V30 38 H -1.544636 4.723931 3.663271 0
M  V30 39 H -3.344799 2.304837 1.908508 0
M  V30 40 H -2.939233 3.532766 0.640300 0
M  V30 41 H -3.476176 4.045731 2.260697 0
M  V30 42 H -0.532866 -1.859818 -1.842858 0
M  V30 43 H -3.703755 -3.401039 -1.909942 0
M  V30 44 H -2.266622 -2.690187 -2.720660 0
M  V30 45 H -2.742693 -2.053759 -1.067411 0
M  V30 END ATOM
M  V30 BEGIN BOND
M  V30 1 1 1 2
M  V30 2 1 2 3
M  V30 3 2 3 4
M  V30 4 1 4 5
M  V30 5 2 5 6
M  V30 6 1 6 7
M  V30 7 1 7 8
M  V30 8 1 8 9
M  V30 9 2 9 10
M  V30 10 1 9 11
M  V30 11 1 11 12
M  V30 12 2 12 13
M  V30 13 1 13 14
M  V30 14 1 14 15
M  V30 15 1 15 16
M  V30 16 1 16 17
M  V30 17 1 16 18
M  V30 18 2 15 19
M  V30 19 1 19 20
M  V30 20 1 20 21
M  V30 21 2 20 22
M  V30 22 1 22 23
M  V30 23 1 6 24
M  V30 24 2 24 25
M  V30 25 1 25 26
M  V30 26 1 26 27
M  V30 27 1 25 3
M  V30 28 2 23 11
M  V30 29 1 23 14
M  V30 30 1 1 28
M  V30 31 1 1 29
M  V30 32 1 1 30
M  V30 33 1 4 31
M  V30 34 1 5 32
M  V30 35 1 7 33
M  V30 36 1 7 34
M  V30 37 1 8 35
M  V30 38 1 12 36
M  V30 39 1 16 37
M  V30 40 1 19 38
M  V30 41 1 21 39
M  V30 42 1 21 40
M  V30 43 1 21 41
M  V30 44 1 24 42
M  V30 45 1 27 43
M  V30 46 1 27 44
M  V30 47 1 27 45
M  V30 END BOND
M  V30 END CTAB
M  END
>  <Dataset>  (549) 
ChEMBL_Kinases

>  <Ligand_Instance>  (549) 
nan

>  <PDB_ID>  (549) 
nan

>  <Standardized_SMILES>  (549) 
COc1ccc(CNC(=O)c2cnn3c(C(F)F)cc(C)nc23)cc1OC

>  <Name>  (549) 
nan

>  <Pocket>  (549) 
nan

>  <ATP_Site>  (549) 
nan

>  <Peripheral>  (549) 
nan

>  <Num_H_Atoms_ProtBoundConf>  (549) 
nan

>  <Num_Resolved_Atoms>  (549) 
nan

>  <Num_Not_Resolved_Atoms>  (549) 
nan

$$$$
CHEMBL1527817
     RDKit          3D

  0  0  0  0  0  0  0  0  0  0999 V3000
M  V30 BEGIN CTAB
M  V30 COUNTS 37 41 0 0 0
M  V30 BEGIN ATOM
M  V30 1 Cl -0.107883 -6.785624 1.869384 0
M  V30 2 C 0.590553 -5.214366 1.619336 0
M  V30 3 C 1.938303 -5.067047 1.774420 0
M  V30 4 C 2.456821 -3.815167 1.569961 0
M  V30 5 C 1.784079 -2.662014 1.221462 0
M  V30 6 C 2.381894 -1.327450 1.007139 0
M  V30 7 N 1.530668 -0.399023 0.689101 0
M  V30 8 N 1.880558 0.915687 0.445652 0
M  V30 9 C 3.182239 1.239711 0.547084 0
M  V30 10 N 3.365064 2.537422 0.282067 0
M  V30 11 N 2.163142 3.077142 0.001403 0
M  V30 12 C 1.272120 2.063215 0.108775 0
M  V30 13 C -0.137450 2.268205 -0.126919 0
M  V30 14 N -0.585344 3.514488 -0.469486 0
M  V30 15 N -1.917356 3.548195 -0.653563 0
M  V30 16 C -2.411579 2.318079 -0.439378 0
M  V30 17 C -1.308929 1.559126 -0.120677 0
M  V30 18 C -1.740523 0.176382 0.141606 0
M  V30 19 C -3.250923 0.213735 0.149713 0
M  V30 20 C -3.660751 1.526163 -0.425681 0
M  V30 21 S 4.569483 0.202471 0.963599 0
M  V30 22 C 3.853967 -1.434186 1.226705 0
M  V30 23 C 0.437729 -2.929308 1.093025 0
M  V30 24 C -0.193569 -4.137308 1.272119 0
M  V30 25 Cl -1.920169 -4.341359 1.076813 0
M  V30 26 H 2.587019 -5.886851 2.045909 0
M  V30 27 H 3.544927 -3.719143 1.700303 0
M  V30 28 H -0.180043 4.470953 -0.633194 0
M  V30 29 H -1.459361 -0.156480 1.183312 0
M  V30 30 H -1.331802 -0.552870 -0.553321 0
M  V30 31 H -3.635222 -0.652231 -0.458994 0
M  V30 32 H -3.700387 0.088495 1.145488 0
M  V30 33 H -4.429415 2.054501 0.166202 0
M  V30 34 H -4.036215 1.354299 -1.472983 0
M  V30 35 H 4.068140 -1.770559 2.248044 0
M  V30 36 H 4.230850 -2.098643 0.426095 0
M  V30 37 H -0.232986 -2.135065 0.822451 0
M  V30 END ATOM
M  V30 BEGIN BOND
M  V30 1 1 1 2
M  V30 2 2 2 3
M  V30 3 1 3 4
M  V30 4 2 4 5
M  V30 5 1 5 6
M  V30 6 2 6 7
M  V30 7 1 7 8
M  V30 8 1 8 9
M  V30 9 2 9 10
M  V30 10 1 10 11
M  V30 11 2 11 12
M  V30 12 1 12 13
M  V30 13 1 13 14
M  V30 14 1 14 15
M  V30 15 2 15 16
M  V30 16 1 16 17
M  V30 17 1 17 18
M  V30 18 1 18 19
M  V30 19 1 19 20
M  V30 20 1 9 21
M  V30 21 1 21 22
M  V30 22 1 5 23
M  V30 23 2 23 24
M  V30 24 1 24 25
M  V30 25 1 24 2
M  V30 26 1 22 6
M  V30 27 1 12 8
M  V30 28 2 17 13
M  V30 29 1 20 16
M  V30 30 1 3 26
M  V30 31 1 4 27
M  V30 32 1 14 28
M  V30 33 1 18 29
M  V30 34 1 18 30
M  V30 35 1 19 31
M  V30 36 1 19 32
M  V30 37 1 20 33
M  V30 38 1 20 34
M  V30 39 1 22 35
M  V30 40 1 22 36
M  V30 41 1 23 37
M  V30 END BOND
M  V30 END CTAB
M  END
>  <Dataset>  (550) 
ChEMBL_Kinases

>  <Ligand_Instance>  (550) 
nan

>  <PDB_ID>  (550) 
nan

>  <Standardized_SMILES>  (550) 
Clc1ccc(C2=Nn3c(nnc3-c3[nH]nc4c3CCC4)SC2)cc1Cl

>  <Name>  (550) 
nan

>  <Pocket>  (550) 
nan

>  <ATP_Site>  (550) 
nan

>  <Peripheral>  (550) 
nan

>  <Num_H_Atoms_ProtBoundConf>  (550) 
nan

>  <Num_Resolved_Atoms>  (550) 
nan

>  <Num_Not_Resolved_Atoms>  (550) 
nan

$$$$
CHEMBL1527911
     RDKit          3D

  0  0  0  0  0  0  0  0  0  0999 V3000
M  V30 BEGIN CTAB
M  V30 COUNTS 57 59 0 0 0
M  V30 BEGIN ATOM
M  V30 1 C 2.062505 -7.888928 -2.515713 0
M  V30 2 O 3.104439 -6.919843 -2.583052 0
M  V30 3 C 2.785663 -5.549956 -2.488445 0
M  V30 4 C 3.888870 -4.740330 -2.572921 0
M  V30 5 C 3.637841 -3.363104 -2.487731 0
M  V30 6 C 2.328012 -2.907020 -2.326526 0
M  V30 7 S 1.885804 -1.226069 -2.221254 0
M  V30 8 O 2.748489 -0.365496 -3.131394 0
M  V30 9 O 0.448418 -1.081676 -2.704363 0
M  V30 10 N 1.998719 -0.578927 -0.638349 0
M  V30 11 C 3.361693 -0.629921 -0.134913 0
M  V30 12 C 3.557438 0.632020 0.678801 0
M  V30 13 C 2.206893 1.216956 1.097914 0
M  V30 14 N 1.570096 0.416857 2.081870 0
M  V30 15 C 0.530726 0.973757 2.846897 0
M  V30 16 C -0.729727 1.271745 2.150516 0
M  V30 17 O -1.285141 1.227712 1.037984 0
M  V30 18 N -1.677501 1.809232 3.096582 0
M  V30 19 C -2.998575 2.173880 2.700408 0
M  V30 20 C -3.619068 3.326152 2.226510 0
M  V30 21 C -4.974648 3.228156 1.951809 0
M  V30 22 C -5.729097 2.109721 2.108777 0
M  V30 23 O -7.062706 2.137092 1.800755 0
M  V30 24 C -7.741637 3.280922 1.311413 0
M  V30 25 C -5.147203 0.952483 2.576704 0
M  V30 26 Cl -6.152913 -0.455115 2.763896 0
M  V30 27 C -3.778175 1.016813 2.863368 0
M  V30 28 C 1.402236 -0.960666 1.724096 0
M  V30 29 C 1.088181 -1.221560 0.285070 0
M  V30 30 C 1.262715 -3.817878 -2.249557 0
M  V30 31 C 1.466821 -5.200798 -2.330324 0
M  V30 32 H 2.413937 -8.897194 -2.731219 0
M  V30 33 H 1.536597 -7.877678 -1.541522 0
M  V30 34 H 1.286969 -7.618162 -3.289489 0
M  V30 35 H 4.898710 -5.104073 -2.696922 0
M  V30 36 H 4.422565 -2.629844 -2.541791 0
M  V30 37 H 3.612388 -1.554036 0.389741 0
M  V30 38 H 4.010003 -0.553612 -1.029115 0
M  V30 39 H 4.163721 0.345427 1.558169 0
M  V30 40 H 4.124395 1.351507 0.082478 0
M  V30 41 H 2.462066 2.195129 1.575154 0
M  V30 42 H 1.635289 1.453133 0.198557 0
M  V30 43 H 0.906175 1.862314 3.421677 0
M  V30 44 H 0.265041 0.222210 3.648320 0
M  V30 45 H -1.570116 1.999056 4.113718 0
M  V30 46 H -2.891312 4.105218 2.164129 0
M  V30 47 H -5.356131 4.187445 1.588675 0
M  V30 48 H -8.001598 3.972490 2.134762 0
M  V30 49 H -8.726817 2.876353 0.937998 0
M  V30 50 H -7.187716 3.823411 0.529189 0
M  V30 51 H -3.455985 0.020548 3.226460 0
M  V30 52 H 2.354254 -1.478590 1.981378 0
M  V30 53 H 0.622542 -1.440415 2.349605 0
M  V30 54 H 1.131701 -2.324635 0.102014 0
M  V30 55 H 0.056777 -0.925028 -0.000520 0
M  V30 56 H 0.231292 -3.461540 -2.122006 0
M  V30 57 H 0.678099 -5.929396 -2.277182 0
M  V30 END ATOM
M  V30 BEGIN BOND
M  V30 1 1 1 2
M  V30 2 1 2 3
M  V30 3 2 3 4
M  V30 4 1 4 5
M  V30 5 2 5 6
M  V30 6 1 6 7
M  V30 7 2 7 8
M  V30 8 2 7 9
M  V30 9 1 7 10
M  V30 10 1 10 11
M  V30 11 1 11 12
M  V30 12 1 12 13
M  V30 13 1 13 14
M  V30 14 1 14 15
M  V30 15 1 15 16
M  V30 16 2 16 17
M  V30 17 1 16 18
M  V30 18 1 18 19
M  V30 19 2 19 20
M  V30 20 1 20 21
M  V30 21 2 21 22
M  V30 22 1 22 23
M  V30 23 1 23 24
M  V30 24 1 22 25
M  V30 25 1 25 26
M  V30 26 2 25 27
M  V30 27 1 14 28
M  V30 28 1 28 29
M  V30 29 1 6 30
M  V30 30 2 30 31
M  V30 31 1 31 3
M  V30 32 1 29 10
M  V30 33 1 27 19
M  V30 34 1 1 32
M  V30 35 1 1 33
M  V30 36 1 1 34
M  V30 37 1 4 35
M  V30 38 1 5 36
M  V30 39 1 11 37
M  V30 40 1 11 38
M  V30 41 1 12 39
M  V30 42 1 12 40
M  V30 43 1 13 41
M  V30 44 1 13 42
M  V30 45 1 15 43
M  V30 46 1 15 44
M  V30 47 1 18 45
M  V30 48 1 20 46
M  V30 49 1 21 47
M  V30 50 1 24 48
M  V30 51 1 24 49
M  V30 52 1 24 50
M  V30 53 1 27 51
M  V30 54 1 28 52
M  V30 55 1 28 53
M  V30 56 1 29 54
M  V30 57 1 29 55
M  V30 58 1 30 56
M  V30 59 1 31 57
M  V30 END BOND
M  V30 END CTAB
M  END
>  <Dataset>  (551) 
ChEMBL_Kinases

>  <Ligand_Instance>  (551) 
nan

>  <PDB_ID>  (551) 
nan

>  <Standardized_SMILES>  (551) 
COc1ccc(S(=O)(=O)N2CCCN(CC(=O)Nc3ccc(OC)c(Cl)c3)CC2)cc1

>  <Name>  (551) 
nan

>  <Pocket>  (551) 
nan

>  <ATP_Site>  (551) 
nan

>  <Peripheral>  (551) 
nan

>  <Num_H_Atoms_ProtBoundConf>  (551) 
nan

>  <Num_Resolved_Atoms>  (551) 
nan

>  <Num_Not_Resolved_Atoms>  (551) 
nan

$$$$
CHEMBL1527986
     RDKit          3D

  0  0  0  0  0  0  0  0  0  0999 V3000
M  V30 BEGIN CTAB
M  V30 COUNTS 41 43 0 0 0
M  V30 BEGIN ATOM
M  V30 1 C -0.543313 -5.940567 2.654951 0
M  V30 2 C 0.378159 -5.205178 1.709904 0
M  V30 3 O 0.742815 -3.929374 2.236749 0
M  V30 4 C 1.570551 -3.088656 1.551989 0
M  V30 5 O 1.929910 -3.603096 0.449975 0
M  V30 6 C 2.000366 -1.752463 2.019531 0
M  V30 7 N 1.131923 -0.678340 1.617811 0
M  V30 8 C 1.282416 0.026459 0.494432 0
M  V30 9 O 2.257108 -0.361397 -0.144787 0
M  V30 10 C 0.513427 1.048829 0.038626 0
M  V30 11 C 0.618583 1.845665 -1.154732 0
M  V30 12 C -0.334175 2.825740 -1.338401 0
M  V30 13 C -0.403420 3.680616 -2.403915 0
M  V30 14 Br -1.775840 4.991050 -2.532509 0
M  V30 15 C 0.531128 3.598626 -3.404395 0
M  V30 16 C 1.489284 2.650676 -3.270266 0
M  V30 17 C 1.506579 1.827861 -2.186068 0
M  V30 18 N 2.568654 0.905879 -2.209292 0
M  V30 19 N -0.487736 1.305845 0.884339 0
M  V30 20 C -0.710970 0.656840 2.019036 0
M  V30 21 C -1.808309 1.083000 2.747179 0
M  V30 22 C -2.051656 0.412118 3.929191 0
M  V30 23 C -1.276521 -0.627943 4.400081 0
M  V30 24 C -0.213726 -0.976335 3.609182 0
M  V30 25 C 0.105608 -0.366810 2.419811 0
M  V30 26 H -0.319978 -5.733502 3.711333 0
M  V30 27 H -0.466330 -7.034600 2.498687 0
M  V30 28 H -1.610484 -5.627552 2.515772 0
M  V30 29 H 1.242337 -5.863595 1.521081 0
M  V30 30 H -0.103027 -5.003205 0.731130 0
M  V30 31 H 2.988627 -1.565872 1.498686 0
M  V30 32 H 2.207593 -1.680432 3.087001 0
M  V30 33 H -1.139902 2.992333 -0.604700 0
M  V30 34 H 0.460345 4.279968 -4.235085 0
M  V30 35 H 2.221269 2.602412 -4.075313 0
M  V30 36 H 2.133672 0.088010 -2.721274 0
M  V30 37 H 3.328876 1.435850 -1.716016 0
M  V30 38 H -2.449875 1.904073 2.410327 0
M  V30 39 H -2.903311 0.718597 4.526857 0
M  V30 40 H -1.471524 -1.148352 5.324202 0
M  V30 41 H 0.413701 -1.789232 3.943971 0
M  V30 END ATOM
M  V30 BEGIN BOND
M  V30 1 1 1 2
M  V30 2 1 2 3
M  V30 3 1 3 4
M  V30 4 2 4 5
M  V30 5 1 4 6
M  V30 6 1 6 7
M  V30 7 1 7 8
M  V30 8 2 8 9
M  V30 9 1 8 10
M  V30 10 1 10 11
M  V30 11 2 11 12
M  V30 12 1 12 13
M  V30 13 1 13 14
M  V30 14 2 13 15
M  V30 15 1 15 16
M  V30 16 2 16 17
M  V30 17 1 17 18
M  V30 18 2 10 19
M  V30 19 1 19 20
M  V30 20 2 20 21
M  V30 21 1 21 22
M  V30 22 2 22 23
M  V30 23 1 23 24
M  V30 24 2 24 25
M  V30 25 1 25 7
M  V30 26 1 17 11
M  V30 27 1 25 20
M  V30 28 1 1 26
M  V30 29 1 1 27
M  V30 30 1 1 28
M  V30 31 1 2 29
M  V30 32 1 2 30
M  V30 33 1 6 31
M  V30 34 1 6 32
M  V30 35 1 12 33
M  V30 36 1 15 34
M  V30 37 1 16 35
M  V30 38 1 18 36
M  V30 39 1 18 37
M  V30 40 1 21 38
M  V30 41 1 22 39
M  V30 42 1 23 40
M  V30 43 1 24 41
M  V30 END BOND
M  V30 END CTAB
M  END
>  <Dataset>  (552) 
ChEMBL_Kinases

>  <Ligand_Instance>  (552) 
nan

>  <PDB_ID>  (552) 
nan

>  <Standardized_SMILES>  (552) 
CCOC(=O)Cn1c(=O)c(-c2cc(Br)ccc2N)nc2ccccc21

>  <Name>  (552) 
nan

>  <Pocket>  (552) 
nan

>  <ATP_Site>  (552) 
nan

>  <Peripheral>  (552) 
nan

>  <Num_H_Atoms_ProtBoundConf>  (552) 
nan

>  <Num_Resolved_Atoms>  (552) 
nan

>  <Num_Not_Resolved_Atoms>  (552) 
nan

$$$$
CHEMBL1528011
     RDKit          3D

  0  0  0  0  0  0  0  0  0  0999 V3000
M  V30 BEGIN CTAB
M  V30 COUNTS 47 49 0 0 0
M  V30 BEGIN ATOM
M  V30 1 O -0.445201 -1.568356 3.808493 0
M  V30 2 C -0.484445 -0.994457 2.501441 0
M  V30 3 C -0.167338 -2.111712 1.580323 0
M  V30 4 C -0.148558 -1.843990 0.126277 0
M  V30 5 N 0.820325 -0.889021 -0.356742 0
M  V30 6 C 0.433937 -0.617469 -1.753504 0
M  V30 7 C 0.908799 -1.686649 -2.706393 0
M  V30 8 C 2.382400 -1.389653 -2.978498 0
M  V30 9 C 2.936035 -0.897154 -1.640940 0
M  V30 10 C 2.138695 -1.518931 -0.493931 0
M  V30 11 C 0.483135 0.109497 2.588535 0
M  V30 12 C 0.000999 1.419937 2.608172 0
M  V30 13 C 0.860965 2.508222 2.700863 0
M  V30 14 C 2.239700 2.328063 2.777523 0
M  V30 15 C 2.741336 1.038579 2.759199 0
M  V30 16 C 1.848707 -0.008366 2.666010 0
M  V30 17 C -1.879392 -0.513484 2.331820 0
M  V30 18 C -2.310140 0.211167 1.234872 0
M  V30 19 C -3.606315 0.660279 1.057488 0
M  V30 20 C -4.550290 0.372678 2.036866 0
M  V30 21 C -4.193748 -0.341228 3.150565 0
M  V30 22 C -2.887991 -0.756963 3.263474 0
M  V30 23 H 0.507542 -1.623895 4.100868 0
M  V30 24 H 0.744198 -2.662531 1.899510 0
M  V30 25 H -0.991731 -2.871289 1.745223 0
M  V30 26 H -1.167962 -1.715038 -0.298041 0
M  V30 27 H 0.185843 -2.825643 -0.352437 0
M  V30 28 H 0.935769 0.349688 -2.012797 0
M  V30 29 H -0.658128 -0.588611 -1.838857 0
M  V30 30 H 0.347587 -1.500023 -3.659465 0
M  V30 31 H 0.727998 -2.705575 -2.371390 0
M  V30 32 H 2.897446 -2.281034 -3.351692 0
M  V30 33 H 2.390651 -0.543196 -3.698238 0
M  V30 34 H 2.982881 0.192497 -1.604709 0
M  V30 35 H 3.959575 -1.353062 -1.549370 0
M  V30 36 H 1.975828 -2.581540 -0.776897 0
M  V30 37 H 2.767553 -1.443523 0.399311 0
M  V30 38 H -1.017696 1.743511 2.565537 0
M  V30 39 H 0.547650 3.548771 2.721951 0
M  V30 40 H 2.921481 3.164499 2.851295 0
M  V30 41 H 3.808429 0.812818 2.810740 0
M  V30 42 H 2.150569 -1.062757 2.650812 0
M  V30 43 H -1.602142 0.460199 0.458262 0
M  V30 44 H -3.852067 1.226567 0.155156 0
M  V30 45 H -5.568981 0.712355 1.918800 0
M  V30 46 H -4.907654 -0.587770 3.947049 0
M  V30 47 H -2.616169 -1.320681 4.149063 0
M  V30 END ATOM
M  V30 BEGIN BOND
M  V30 1 1 1 2
M  V30 2 1 2 3
M  V30 3 1 3 4
M  V30 4 1 4 5
M  V30 5 1 5 6
M  V30 6 1 6 7
M  V30 7 1 7 8
M  V30 8 1 8 9
M  V30 9 1 9 10
M  V30 10 1 2 11
M  V30 11 2 11 12
M  V30 12 1 12 13
M  V30 13 2 13 14
M  V30 14 1 14 15
M  V30 15 2 15 16
M  V30 16 1 2 17
M  V30 17 2 17 18
M  V30 18 1 18 19
M  V30 19 2 19 20
M  V30 20 1 20 21
M  V30 21 2 21 22
M  V30 22 1 10 5
M  V30 23 1 16 11
M  V30 24 1 22 17
M  V30 25 1 1 23
M  V30 26 1 3 24
M  V30 27 1 3 25
M  V30 28 1 4 26
M  V30 29 1 4 27
M  V30 30 1 6 28
M  V30 31 1 6 29
M  V30 32 1 7 30
M  V30 33 1 7 31
M  V30 34 1 8 32
M  V30 35 1 8 33
M  V30 36 1 9 34
M  V30 37 1 9 35
M  V30 38 1 10 36
M  V30 39 1 10 37
M  V30 40 1 12 38
M  V30 41 1 13 39
M  V30 42 1 14 40
M  V30 43 1 15 41
M  V30 44 1 16 42
M  V30 45 1 18 43
M  V30 46 1 19 44
M  V30 47 1 20 45
M  V30 48 1 21 46
M  V30 49 1 22 47
M  V30 END BOND
M  V30 END CTAB
M  END
>  <Dataset>  (553) 
ChEMBL_Kinases

>  <Ligand_Instance>  (553) 
nan

>  <PDB_ID>  (553) 
nan

>  <Standardized_SMILES>  (553) 
OC(CCN1CCCCC1)(c1ccccc1)c1ccccc1

>  <Name>  (553) 
PRIDINOL METHANESULFONATE

>  <Pocket>  (553) 
nan

>  <ATP_Site>  (553) 
nan

>  <Peripheral>  (553) 
nan

>  <Num_H_Atoms_ProtBoundConf>  (553) 
nan

>  <Num_Resolved_Atoms>  (553) 
nan

>  <Num_Not_Resolved_Atoms>  (553) 
nan

$$$$
CHEMBL1528235
     RDKit          3D

  0  0  0  0  0  0  0  0  0  0999 V3000
M  V30 BEGIN CTAB
M  V30 COUNTS 31 32 0 0 0
M  V30 BEGIN ATOM
M  V30 1 C -3.854753 -2.969797 3.707898 0
M  V30 2 C -2.611868 -2.163470 3.566343 0
M  V30 3 C -1.452912 -2.824825 3.186077 0
M  V30 4 C -0.274850 -2.122035 3.041318 0
M  V30 5 S 1.301700 -2.765668 2.568861 0
M  V30 6 C 1.519577 -2.716561 0.755958 0
M  V30 7 N 1.570871 -1.351453 0.300637 0
M  V30 8 C 1.731745 -0.969873 -1.048626 0
M  V30 9 O 1.833957 -1.922623 -1.882927 0
M  V30 10 C 1.789202 0.394958 -1.554936 0
M  V30 11 C 1.949509 0.543062 -2.917234 0
M  V30 12 C 2.001935 1.863562 -3.381000 0
M  V30 13 C 1.908775 2.990291 -2.606226 0
M  V30 14 C 1.749013 2.757980 -1.247743 0
M  V30 15 C 1.687611 1.475669 -0.708685 0
M  V30 16 N -0.289616 -0.800043 3.277122 0
M  V30 17 C -1.427785 -0.170077 3.647127 0
M  V30 18 N -2.591603 -0.838060 3.794757 0
M  V30 19 H -3.586012 -4.008524 3.949483 0
M  V30 20 H -4.399618 -2.973677 2.748904 0
M  V30 21 H -4.541896 -2.520641 4.467817 0
M  V30 22 H -1.375502 -3.882498 2.982461 0
M  V30 23 H 2.455658 -3.256076 0.502595 0
M  V30 24 H 0.690662 -3.271345 0.267158 0
M  V30 25 H 1.485556 -0.579916 0.996785 0
M  V30 26 H 2.034147 -0.271701 -3.624504 0
M  V30 27 H 2.126948 1.981419 -4.446767 0
M  V30 28 H 1.958352 3.970498 -3.041117 0
M  V30 29 H 1.670887 3.626115 -0.596229 0
M  V30 30 H 1.561044 1.357174 0.367261 0
M  V30 31 H -1.466094 0.893823 3.842892 0
M  V30 END ATOM
M  V30 BEGIN BOND
M  V30 1 1 1 2
M  V30 2 2 2 3
M  V30 3 1 3 4
M  V30 4 1 4 5
M  V30 5 1 5 6
M  V30 6 1 6 7
M  V30 7 1 7 8
M  V30 8 2 8 9
M  V30 9 1 8 10
M  V30 10 2 10 11
M  V30 11 1 11 12
M  V30 12 2 12 13
M  V30 13 1 13 14
M  V30 14 2 14 15
M  V30 15 2 4 16
M  V30 16 1 16 17
M  V30 17 2 17 18
M  V30 18 1 18 2
M  V30 19 1 15 10
M  V30 20 1 1 19
M  V30 21 1 1 20
M  V30 22 1 1 21
M  V30 23 1 3 22
M  V30 24 1 6 23
M  V30 25 1 6 24
M  V30 26 1 7 25
M  V30 27 1 11 26
M  V30 28 1 12 27
M  V30 29 1 13 28
M  V30 30 1 14 29
M  V30 31 1 15 30
M  V30 32 1 17 31
M  V30 END BOND
M  V30 END CTAB
M  END
>  <Dataset>  (554) 
ChEMBL_Kinases

>  <Ligand_Instance>  (554) 
nan

>  <PDB_ID>  (554) 
nan

>  <Standardized_SMILES>  (554) 
Cc1cc(SCNC(=O)c2ccccc2)ncn1

>  <Name>  (554) 
nan

>  <Pocket>  (554) 
nan

>  <ATP_Site>  (554) 
nan

>  <Peripheral>  (554) 
nan

>  <Num_H_Atoms_ProtBoundConf>  (554) 
nan

>  <Num_Resolved_Atoms>  (554) 
nan

>  <Num_Not_Resolved_Atoms>  (554) 
nan

$$$$
CHEMBL1528298
     RDKit          3D

  0  0  0  0  0  0  0  0  0  0999 V3000
M  V30 BEGIN CTAB
M  V30 COUNTS 28 29 0 0 0
M  V30 BEGIN ATOM
M  V30 1 C -1.717837 -1.876534 1.942550 0
M  V30 2 C -0.785288 -1.197150 2.948881 0
M  V30 3 S 0.925626 -1.395620 2.379622 0
M  V30 4 C 0.917306 -2.020865 0.679329 0
M  V30 5 C 1.025880 -3.401710 0.580873 0
M  V30 6 C 1.019651 -3.879025 -0.715695 0
M  V30 7 C 0.917372 -3.101980 -1.842167 0
M  V30 8 C 0.811240 -1.740164 -1.703668 0
M  V30 9 C 0.809822 -1.186679 -0.446872 0
M  V30 10 C 0.702239 0.212628 -0.089317 0
M  V30 11 O 1.913190 0.499344 0.254157 0
M  V30 12 N -0.218262 1.260197 0.001136 0
M  V30 13 C 0.470347 2.451904 0.487349 0
M  V30 14 N 1.060995 3.462590 0.344222 0
M  V30 15 N 1.505481 4.199343 1.287471 0
M  V30 16 C 1.402286 3.997368 2.475522 0
M  V30 17 S 0.449519 2.373867 2.395932 0
M  V30 18 H -1.151125 -2.747040 1.546020 0
M  V30 19 H -2.655772 -2.218276 2.364881 0
M  V30 20 H -1.845139 -1.195670 1.065579 0
M  V30 21 H -1.049543 -0.133601 3.125772 0
M  V30 22 H -0.877368 -1.794989 3.891544 0
M  V30 23 H 1.112758 -4.063215 1.436796 0
M  V30 24 H 1.098841 -4.937515 -0.887252 0
M  V30 25 H 0.907009 -3.446360 -2.860560 0
M  V30 26 H 0.729383 -1.026270 -2.502180 0
M  V30 27 H -1.122078 0.920474 -0.296928 0
M  V30 28 H 1.849073 4.731961 3.239613 0
M  V30 END ATOM
M  V30 BEGIN BOND
M  V30 1 1 1 2
M  V30 2 1 2 3
M  V30 3 1 3 4
M  V30 4 2 4 5
M  V30 5 1 5 6
M  V30 6 2 6 7
M  V30 7 1 7 8
M  V30 8 2 8 9
M  V30 9 1 9 10
M  V30 10 2 10 11
M  V30 11 1 10 12
M  V30 12 1 12 13
M  V30 13 2 13 14
M  V30 14 1 14 15
M  V30 15 2 15 16
M  V30 16 1 16 17
M  V30 17 1 9 4
M  V30 18 1 17 13
M  V30 19 1 1 18
M  V30 20 1 1 19
M  V30 21 1 1 20
M  V30 22 1 2 21
M  V30 23 1 2 22
M  V30 24 1 5 23
M  V30 25 1 6 24
M  V30 26 1 7 25
M  V30 27 1 8 26
M  V30 28 1 12 27
M  V30 29 1 16 28
M  V30 END BOND
M  V30 END CTAB
M  END
>  <Dataset>  (555) 
ChEMBL_Kinases

>  <Ligand_Instance>  (555) 
nan

>  <PDB_ID>  (555) 
nan

>  <Standardized_SMILES>  (555) 
CCSc1ccccc1C(=O)Nc1nncs1

>  <Name>  (555) 
nan

>  <Pocket>  (555) 
nan

>  <ATP_Site>  (555) 
nan

>  <Peripheral>  (555) 
nan

>  <Num_H_Atoms_ProtBoundConf>  (555) 
nan

>  <Num_Resolved_Atoms>  (555) 
nan

>  <Num_Not_Resolved_Atoms>  (555) 
nan

$$$$
CHEMBL152767
     RDKit          3D

  0  0  0  0  0  0  0  0  0  0999 V3000
M  V30 BEGIN CTAB
M  V30 COUNTS 41 43 0 0 0
M  V30 BEGIN ATOM
M  V30 1 C -0.288909 -4.401470 -2.476154 0
M  V30 2 C 0.614512 -4.409201 -1.295730 0
M  V30 3 C 0.648953 -5.605246 -0.600069 0
M  V30 4 C 1.470878 -5.694791 0.518814 0
M  V30 5 C 2.215363 -4.583961 0.883697 0
M  V30 6 C 2.198625 -3.382173 0.207955 0
M  V30 7 C 1.370419 -3.322957 -0.902605 0
M  V30 8 C 1.297882 -2.099816 -1.662702 0
M  V30 9 O 1.308921 -1.754719 -2.871802 0
M  V30 10 C 1.175956 -0.887232 -0.836764 0
M  V30 11 C 0.283387 -0.884717 0.219023 0
M  V30 12 C 0.123564 0.220227 1.029181 0
M  V30 13 C 0.904876 1.309223 0.718565 0
M  V30 14 N 0.789575 2.482476 1.512509 0
M  V30 15 C -0.041352 2.798367 2.621655 0
M  V30 16 C 0.465808 3.137205 3.882030 0
M  V30 17 C -0.344983 3.444661 4.955510 0
M  V30 18 C -1.716044 3.424437 4.806275 0
M  V30 19 C -2.262565 3.096798 3.584357 0
M  V30 20 C -1.418186 2.794682 2.532033 0
M  V30 21 N -2.067861 2.469757 1.307554 0
M  V30 22 C 1.816516 1.393973 -0.310660 0
M  V30 23 C 1.944252 0.249285 -1.105224 0
M  V30 24 Cl 3.063057 0.217257 -2.444814 0
M  V30 25 H -1.320890 -4.590143 -2.070308 0
M  V30 26 H -0.296405 -3.459918 -3.029361 0
M  V30 27 H -0.039288 -5.289556 -3.082357 0
M  V30 28 H 0.087843 -6.485434 -0.851714 0
M  V30 29 H 1.535385 -6.609911 1.100754 0
M  V30 30 H 2.846746 -4.675057 1.755335 0
M  V30 31 H 2.796437 -2.539851 0.528012 0
M  V30 32 H -0.314892 -1.776127 0.424476 0
M  V30 33 H -0.576457 0.164132 1.825837 0
M  V30 34 H 1.340680 3.358175 1.391839 0
M  V30 35 H 1.556871 3.145828 3.973627 0
M  V30 36 H 0.152139 3.696808 5.900023 0
M  V30 37 H -2.295408 3.675029 5.685853 0
M  V30 38 H -3.337058 3.095822 3.521492 0
M  V30 39 H -1.990104 3.318357 0.687922 0
M  V30 40 H -2.546135 1.580166 1.021557 0
M  V30 41 H 2.400730 2.283562 -0.500539 0
M  V30 END ATOM
M  V30 BEGIN BOND
M  V30 1 1 1 2
M  V30 2 2 2 3
M  V30 3 1 3 4
M  V30 4 2 4 5
M  V30 5 1 5 6
M  V30 6 2 6 7
M  V30 7 1 7 8
M  V30 8 2 8 9
M  V30 9 1 8 10
M  V30 10 2 10 11
M  V30 11 1 11 12
M  V30 12 2 12 13
M  V30 13 1 13 14
M  V30 14 1 14 15
M  V30 15 2 15 16
M  V30 16 1 16 17
M  V30 17 2 17 18
M  V30 18 1 18 19
M  V30 19 2 19 20
M  V30 20 1 20 21
M  V30 21 1 13 22
M  V30 22 2 22 23
M  V30 23 1 23 24
M  V30 24 1 7 2
M  V30 25 1 23 10
M  V30 26 1 20 15
M  V30 27 1 1 25
M  V30 28 1 1 26
M  V30 29 1 1 27
M  V30 30 1 3 28
M  V30 31 1 4 29
M  V30 32 1 5 30
M  V30 33 1 6 31
M  V30 34 1 11 32
M  V30 35 1 12 33
M  V30 36 1 14 34
M  V30 37 1 16 35
M  V30 38 1 17 36
M  V30 39 1 18 37
M  V30 40 1 19 38
M  V30 41 1 21 39
M  V30 42 1 21 40
M  V30 43 1 22 41
M  V30 END BOND
M  V30 END CTAB
M  END
>  <Dataset>  (556) 
ChEMBL_Kinases

>  <Ligand_Instance>  (556) 
nan

>  <PDB_ID>  (556) 
nan

>  <Standardized_SMILES>  (556) 
Cc1ccccc1C(=O)c1ccc(Nc2ccccc2N)cc1Cl

>  <Name>  (556) 
nan

>  <Pocket>  (556) 
nan

>  <ATP_Site>  (556) 
nan

>  <Peripheral>  (556) 
nan

>  <Num_H_Atoms_ProtBoundConf>  (556) 
nan

>  <Num_Resolved_Atoms>  (556) 
nan

>  <Num_Not_Resolved_Atoms>  (556) 
nan

$$$$
CHEMBL1521096
     RDKit          3D

  0  0  0  0  0  0  0  0  0  0999 V3000
M  V30 BEGIN CTAB
M  V30 COUNTS 66 70 0 0 0
M  V30 BEGIN ATOM
M  V30 1 C 6.643032 -1.457632 6.725839 0
M  V30 2 C 5.912595 -1.073615 5.482960 0
M  V30 3 C 6.135275 -1.850234 4.364539 0
M  V30 4 C 5.480360 -1.528237 3.197540 0
M  V30 5 C 4.630156 -0.441606 3.195645 0
M  V30 6 N 3.994869 -0.167799 1.938493 0
M  V30 7 N 4.636665 0.308983 0.873475 0
M  V30 8 C 3.794613 0.471958 -0.157929 0
M  V30 9 C 4.039439 0.963928 -1.522833 0
M  V30 10 C 2.543699 0.087029 0.248960 0
M  V30 11 C 1.204151 -0.059483 -0.135579 0
M  V30 12 C 1.011133 0.323631 -1.561905 0
M  V30 13 O -0.094904 0.342022 -2.147541 0
M  V30 14 O -0.287565 0.305787 -2.132058 0
M  V30 15 C -0.546999 0.719728 -3.462133 0
M  V30 16 C -1.987885 0.498380 -3.729315 0
M  V30 17 O -2.148739 0.967379 -4.914605 0
M  V30 18 N -3.134449 -0.053674 -3.069831 0
M  V30 19 C -3.265417 -0.650432 -1.771093 0
M  V30 20 C -4.415060 -0.046141 -3.768117 0
M  V30 21 C -5.496967 0.683076 -3.092305 0
M  V30 22 C -6.418546 -0.199512 -2.348480 0
M  V30 23 S -6.320417 -1.740540 -3.208507 0
M  V30 24 O -6.241106 -2.930214 -2.306907 0
M  V30 25 O -7.502615 -1.935141 -4.120847 0
M  V30 26 C -4.845098 -1.445996 -4.133321 0
M  V30 27 C 0.309642 -0.567560 0.857136 0
M  V30 28 C 0.526520 -0.977409 2.240733 0
M  V30 29 C -0.888338 -1.361546 2.439612 0
M  V30 30 C -0.719584 -2.043785 3.672314 0
M  V30 31 C -1.802730 -2.628578 4.366729 0
M  V30 32 C -3.065854 -2.500812 3.775757 0
M  V30 33 C -3.163288 -1.832637 2.588337 0
M  V30 34 C -2.117278 -1.266506 1.913487 0
M  V30 35 N 1.683512 -0.716202 2.174510 0
M  V30 36 C 2.718920 -0.301775 1.554131 0
M  V30 37 C 4.371401 0.374005 4.294709 0
M  V30 38 C 5.046143 0.029065 5.470257 0
M  V30 39 H 6.195574 -2.324191 7.245657 0
M  V30 40 H 6.667834 -0.624280 7.474352 0
M  V30 41 H 7.698922 -1.726281 6.545790 0
M  V30 42 H 6.796304 -2.689332 4.402724 0
M  V30 43 H 5.651811 -2.133032 2.320052 0
M  V30 44 H 3.237542 0.790084 -2.244651 0
M  V30 45 H 4.356814 2.048225 -1.505857 0
M  V30 46 H 4.955468 0.445272 -1.950858 0
M  V30 47 H -0.279543 1.804981 -3.616304 0
M  V30 48 H 0.086495 0.181466 -4.205333 0
M  V30 49 H -3.941439 -1.534351 -1.819566 0
M  V30 50 H -2.297644 -1.061128 -1.392979 0
M  V30 51 H -3.646550 0.043306 -1.005440 0
M  V30 52 H -4.212832 0.446735 -4.757748 0
M  V30 53 H -6.073150 1.388079 -3.762498 0
M  V30 54 H -5.034186 1.384247 -2.330803 0
M  V30 55 H -6.230416 -0.289931 -1.262695 0
M  V30 56 H -7.470412 0.182747 -2.482272 0
M  V30 57 H -4.043848 -2.189320 -3.899240 0
M  V30 58 H -5.062299 -1.581649 -5.204879 0
M  V30 59 H -0.569425 -0.516465 0.128300 0
M  V30 60 H 0.116255 -2.290871 4.346908 0
M  V30 61 H -1.888295 -3.173660 5.290017 0
M  V30 62 H -4.011841 -2.868807 4.140534 0
M  V30 63 H -4.111627 -1.685773 2.049724 0
M  V30 64 H -2.139780 -0.736674 1.006420 0
M  V30 65 H 3.694762 1.216636 4.245791 0
M  V30 66 H 4.893002 0.621762 6.370232 0
M  V30 END ATOM
M  V30 BEGIN BOND
M  V30 1 1 1 2
M  V30 2 2 2 3
M  V30 3 1 3 4
M  V30 4 2 4 5
M  V30 5 1 5 6
M  V30 6 1 6 7
M  V30 7 2 7 8
M  V30 8 1 8 9
M  V30 9 1 8 10
M  V30 10 2 10 11
M  V30 11 1 11 12
M  V30 12 2 12 13
M  V30 13 1 12 14
M  V30 14 1 14 15
M  V30 15 1 15 16
M  V30 16 2 16 17
M  V30 17 1 16 18
M  V30 18 1 18 19
M  V30 19 1 18 20
M  V30 20 1 20 21
M  V30 21 1 21 22
M  V30 22 1 22 23
M  V30 23 2 23 24
M  V30 24 2 23 25
M  V30 25 1 23 26
M  V30 26 1 11 27
M  V30 27 2 27 28
M  V30 28 1 28 29
M  V30 29 2 29 30
M  V30 30 1 30 31
M  V30 31 2 31 32
M  V30 32 1 32 33
M  V30 33 2 33 34
M  V30 34 1 28 35
M  V30 35 2 35 36
M  V30 36 1 5 37
M  V30 37 2 37 38
M  V30 38 1 38 2
M  V30 39 1 36 6
M  V30 40 1 36 10
M  V30 41 1 26 20
M  V30 42 1 34 29
M  V30 43 1 1 39
M  V30 44 1 1 40
M  V30 45 1 1 41
M  V30 46 1 3 42
M  V30 47 1 4 43
M  V30 48 1 9 44
M  V30 49 1 9 45
M  V30 50 1 9 46
M  V30 51 1 15 47
M  V30 52 1 15 48
M  V30 53 1 19 49
M  V30 54 1 19 50
M  V30 55 1 19 51
M  V30 56 1 20 52
M  V30 57 1 21 53
M  V30 58 1 21 54
M  V30 59 1 22 55
M  V30 60 1 22 56
M  V30 61 1 26 57
M  V30 62 1 26 58
M  V30 63 1 27 59
M  V30 64 1 30 60
M  V30 65 1 31 61
M  V30 66 1 32 62
M  V30 67 1 33 63
M  V30 68 1 34 64
M  V30 69 1 37 65
M  V30 70 1 38 66
M  V30 END BOND
M  V30 END CTAB
M  END
>  <Dataset>  (557) 
ChEMBL_Kinases

>  <Ligand_Instance>  (557) 
nan

>  <PDB_ID>  (557) 
nan

>  <Standardized_SMILES>  (557) 
Cc1ccc(-n2nc(C)c3c(C(=O)OCC(=O)N(C)C4CCS(=O)(=O)C4)cc(-c4ccccc4)nc32)cc1

>  <Name>  (557) 
nan

>  <Pocket>  (557) 
nan

>  <ATP_Site>  (557) 
nan

>  <Peripheral>  (557) 
nan

>  <Num_H_Atoms_ProtBoundConf>  (557) 
nan

>  <Num_Resolved_Atoms>  (557) 
nan

>  <Num_Not_Resolved_Atoms>  (557) 
nan

$$$$
CHEMBL1521091
     RDKit          3D

  0  0  0  0  0  0  0  0  0  0999 V3000
M  V30 BEGIN CTAB
M  V30 COUNTS 57 61 0 0 0
M  V30 BEGIN ATOM
M  V30 1 C 3.323279 -4.714051 -2.185877 0
M  V30 2 C 3.408749 -3.535445 -1.270206 0
M  V30 3 C 2.236692 -2.893063 -0.906871 0
M  V30 4 C 2.350478 -1.818673 -0.062901 0
M  V30 5 C 3.533224 -1.315958 0.460724 0
M  V30 6 C 3.443678 -0.159053 1.354007 0
M  V30 7 N 3.511383 1.127453 0.710388 0
M  V30 8 N 4.512823 1.937885 0.416402 0
M  V30 9 N 4.061116 3.035547 -0.181050 0
M  V30 10 C 2.723598 2.947896 -0.285506 0
M  V30 11 C 1.820818 3.836381 -0.829662 0
M  V30 12 O 2.139916 5.057527 -1.402282 0
M  V30 13 N 0.509371 3.470368 -0.793928 0
M  V30 14 C 0.138865 2.296476 -0.250225 0
M  V30 15 C -1.228167 1.717848 -0.117083 0
M  V30 16 C -1.526125 1.427437 1.335914 0
M  V30 17 C -2.816942 0.700251 1.550576 0
M  V30 18 N -3.409756 0.305236 0.299797 0
M  V30 19 S -4.812017 -0.664627 0.582491 0
M  V30 20 O -5.576272 -0.954715 -0.653534 0
M  V30 21 O -5.699550 0.101168 1.530075 0
M  V30 22 C -4.335276 -2.129863 1.448133 0
M  V30 23 C -3.972750 -3.207992 0.664459 0
M  V30 24 C -3.582609 -4.409135 1.253803 0
M  V30 25 C -3.580674 -4.453192 2.646497 0
M  V30 26 C -3.944308 -3.370265 3.431738 0
M  V30 27 C -4.323654 -2.203103 2.828763 0
M  V30 28 C -2.451599 -0.403147 -0.535522 0
M  V30 29 C -1.315151 0.462545 -0.961786 0
M  V30 30 N 1.058397 1.461106 0.270003 0
M  V30 31 C 2.382192 1.739642 0.279567 0
M  V30 32 C 4.685438 -1.988352 0.071020 0
M  V30 33 C 4.631841 -3.084465 -0.782666 0
M  V30 34 H 3.089742 -5.654890 -1.603838 0
M  V30 35 H 4.295802 -4.926444 -2.688464 0
M  V30 36 H 2.476153 -4.606574 -2.906087 0
M  V30 37 H 1.276716 -3.227405 -1.274827 0
M  V30 38 H 1.412161 -1.343290 0.195806 0
M  V30 39 H 2.498299 -0.274296 1.953027 0
M  V30 40 H 4.255978 -0.274816 2.127818 0
M  V30 41 H 1.810797 5.925266 -1.018301 0
M  V30 42 H -1.995271 2.440829 -0.480526 0
M  V30 43 H -0.661520 0.806001 1.716084 0
M  V30 44 H -1.484740 2.352138 1.953283 0
M  V30 45 H -3.494748 1.375597 2.135196 0
M  V30 46 H -2.615656 -0.213801 2.145274 0
M  V30 47 H -3.974422 -3.171835 -0.404183 0
M  V30 48 H -3.284826 -5.305135 0.732130 0
M  V30 49 H -3.276701 -5.387387 3.131478 0
M  V30 50 H -3.933384 -3.435228 4.519279 0
M  V30 51 H -4.622122 -1.308345 3.362768 0
M  V30 52 H -2.062608 -1.240232 0.079787 0
M  V30 53 H -2.943442 -0.848795 -1.426069 0
M  V30 54 H -0.372116 -0.088256 -0.850795 0
M  V30 55 H -1.376708 0.753510 -2.035062 0
M  V30 56 H 5.609965 -1.606734 0.471286 0
M  V30 57 H 5.537661 -3.573296 -1.059235 0
M  V30 END ATOM
M  V30 BEGIN BOND
M  V30 1 1 1 2
M  V30 2 2 2 3
M  V30 3 1 3 4
M  V30 4 2 4 5
M  V30 5 1 5 6
M  V30 6 1 6 7
M  V30 7 1 7 8
M  V30 8 2 8 9
M  V30 9 1 9 10
M  V30 10 2 10 11
M  V30 11 1 11 12
M  V30 12 1 11 13
M  V30 13 2 13 14
M  V30 14 1 14 15
M  V30 15 1 15 16
M  V30 16 1 16 17
M  V30 17 1 17 18
M  V30 18 1 18 19
M  V30 19 2 19 20
M  V30 20 2 19 21
M  V30 21 1 19 22
M  V30 22 2 22 23
M  V30 23 1 23 24
M  V30 24 2 24 25
M  V30 25 1 25 26
M  V30 26 2 26 27
M  V30 27 1 18 28
M  V30 28 1 28 29
M  V30 29 1 14 30
M  V30 30 2 30 31
M  V30 31 1 5 32
M  V30 32 2 32 33
M  V30 33 1 33 2
M  V30 34 1 31 7
M  V30 35 1 31 10
M  V30 36 1 29 15
M  V30 37 1 27 22
M  V30 38 1 1 34
M  V30 39 1 1 35
M  V30 40 1 1 36
M  V30 41 1 3 37
M  V30 42 1 4 38
M  V30 43 1 6 39
M  V30 44 1 6 40
M  V30 45 1 12 41
M  V30 46 1 15 42
M  V30 47 1 16 43
M  V30 48 1 16 44
M  V30 49 1 17 45
M  V30 50 1 17 46
M  V30 51 1 23 47
M  V30 52 1 24 48
M  V30 53 1 25 49
M  V30 54 1 26 50
M  V30 55 1 27 51
M  V30 56 1 28 52
M  V30 57 1 28 53
M  V30 58 1 29 54
M  V30 59 1 29 55
M  V30 60 1 32 56
M  V30 61 1 33 57
M  V30 END BOND
M  V30 END CTAB
M  END
>  <Dataset>  (558) 
ChEMBL_Kinases

>  <Ligand_Instance>  (558) 
nan

>  <PDB_ID>  (558) 
nan

>  <Standardized_SMILES>  (558) 
Cc1ccc(Cn2nnc3c(O)nc(C4CCN(S(=O)(=O)c5ccccc5)CC4)nc32)cc1

>  <Name>  (558) 
nan

>  <Pocket>  (558) 
nan

>  <ATP_Site>  (558) 
nan

>  <Peripheral>  (558) 
nan

>  <Num_H_Atoms_ProtBoundConf>  (558) 
nan

>  <Num_Resolved_Atoms>  (558) 
nan

>  <Num_Not_Resolved_Atoms>  (558) 
nan

$$$$
CHEMBL1520998
     RDKit          3D

  0  0  0  0  0  0  0  0  0  0999 V3000
M  V30 BEGIN CTAB
M  V30 COUNTS 39 41 0 0 0
M  V30 BEGIN ATOM
M  V30 1 C 2.523238 -6.381493 1.803595 0
M  V30 2 C 1.579176 -5.321165 2.279189 0
M  V30 3 O 1.093340 -5.329890 3.445944 0
M  V30 4 C 1.223473 -4.252609 1.345707 0
M  V30 5 C 1.736965 -4.210539 0.057934 0
M  V30 6 C 1.412033 -3.213012 -0.830408 0
M  V30 7 C 0.543777 -2.215691 -0.429840 0
M  V30 8 N 0.085260 -1.093401 -1.208839 0
M  V30 9 C 0.876875 0.085733 -1.128159 0
M  V30 10 O 1.922019 0.333252 -0.490572 0
M  V30 11 C 0.429439 1.280632 -1.928776 0
M  V30 12 C -0.792310 1.901880 -1.258770 0
M  V30 13 C -0.128586 2.572694 -0.107963 0
M  V30 14 C -0.743210 2.924692 1.167977 0
M  V30 15 C 0.022163 3.547592 2.132677 0
M  V30 16 C -0.490215 3.909760 3.361617 0
M  V30 17 C -1.838490 3.611907 3.585747 0
M  V30 18 F -2.472059 3.917617 4.763408 0
M  V30 19 C -2.623808 2.984908 2.625099 0
M  V30 20 C -2.072972 2.632568 1.392977 0
M  V30 21 N 1.117541 2.809071 -0.408933 0
M  V30 22 O 1.366632 2.345223 -1.698822 0
M  V30 23 C 0.005217 -2.219388 0.853573 0
M  V30 24 C 0.360492 -3.246750 1.719565 0
M  V30 25 H 2.506271 -7.275902 2.452451 0
M  V30 26 H 2.241670 -6.716813 0.770348 0
M  V30 27 H 3.571193 -6.001748 1.811992 0
M  V30 28 H 2.408088 -4.969465 -0.271577 0
M  V30 29 H 1.769368 -3.117841 -1.836134 0
M  V30 30 H -0.764863 -1.087313 -1.811592 0
M  V30 31 H 0.290330 1.055218 -2.983064 0
M  V30 32 H -1.533019 1.166349 -0.928422 0
M  V30 33 H -1.187039 2.654305 -1.971200 0
M  V30 34 H 1.064919 3.771726 1.944386 0
M  V30 35 H 0.063163 4.398333 4.151062 0
M  V30 36 H -3.666170 2.755553 2.800572 0
M  V30 37 H -2.612458 2.144217 0.594389 0
M  V30 38 H -0.678842 -1.490926 1.264443 0
M  V30 39 H -0.021638 -3.300086 2.714535 0
M  V30 END ATOM
M  V30 BEGIN BOND
M  V30 1 1 1 2
M  V30 2 2 2 3
M  V30 3 1 2 4
M  V30 4 2 4 5
M  V30 5 1 5 6
M  V30 6 2 6 7
M  V30 7 1 7 8
M  V30 8 1 8 9
M  V30 9 2 9 10
M  V30 10 1 9 11
M  V30 11 1 11 12
M  V30 12 1 12 13
M  V30 13 1 13 14
M  V30 14 2 14 15
M  V30 15 1 15 16
M  V30 16 2 16 17
M  V30 17 1 17 18
M  V30 18 1 17 19
M  V30 19 2 19 20
M  V30 20 2 13 21
M  V30 21 1 21 22
M  V30 22 1 7 23
M  V30 23 2 23 24
M  V30 24 1 24 4
M  V30 25 1 22 11
M  V30 26 1 20 14
M  V30 27 1 1 25
M  V30 28 1 1 26
M  V30 29 1 1 27
M  V30 30 1 5 28
M  V30 31 1 6 29
M  V30 32 1 8 30
M  V30 33 1 11 31
M  V30 34 1 12 32
M  V30 35 1 12 33
M  V30 36 1 15 34
M  V30 37 1 16 35
M  V30 38 1 19 36
M  V30 39 1 20 37
M  V30 40 1 23 38
M  V30 41 1 24 39
M  V30 END BOND
M  V30 END CTAB
M  END
>  <Dataset>  (559) 
ChEMBL_Kinases

>  <Ligand_Instance>  (559) 
nan

>  <PDB_ID>  (559) 
nan

>  <Standardized_SMILES>  (559) 
CC(=O)c1ccc(NC(=O)C2CC(c3ccc(F)cc3)=NO2)cc1

>  <Name>  (559) 
nan

>  <Pocket>  (559) 
nan

>  <ATP_Site>  (559) 
nan

>  <Peripheral>  (559) 
nan

>  <Num_H_Atoms_ProtBoundConf>  (559) 
nan

>  <Num_Resolved_Atoms>  (559) 
nan

>  <Num_Not_Resolved_Atoms>  (559) 
nan

$$$$
CHEMBL1520916
     RDKit          3D

  0  0  0  0  0  0  0  0  0  0999 V3000
M  V30 BEGIN CTAB
M  V30 COUNTS 43 46 0 0 0
M  V30 BEGIN ATOM
M  V30 1 C -2.850580 -5.032867 3.711161 0
M  V30 2 C -1.548329 -5.488939 3.039872 0
M  V30 3 N -1.008456 -4.268250 2.430863 0
M  V30 4 C 0.203151 -4.336257 1.722752 0
M  V30 5 O 0.843603 -5.425627 1.595579 0
M  V30 6 C 0.789039 -3.152393 1.094903 0
M  V30 7 C 1.969806 -3.123995 0.382539 0
M  V30 8 C 2.128219 -1.810154 -0.020279 0
M  V30 9 C 1.026751 -1.101977 0.471941 0
M  V30 10 C 0.968428 0.350962 0.166081 0
M  V30 11 C -0.294566 0.919772 0.786878 0
M  V30 12 C -0.354646 2.411979 0.642424 0
M  V30 13 C -0.348241 2.737441 -0.843631 0
M  V30 14 C 0.886009 2.133345 -1.474779 0
M  V30 15 C 2.082603 2.815609 -0.837178 0
M  V30 16 C 2.089268 2.517197 0.643496 0
M  V30 17 C 0.853897 2.987391 1.340558 0
M  V30 18 C 2.174087 1.019906 0.792450 0
M  V30 19 C 0.919429 0.628479 -1.303588 0
M  V30 20 O 0.253626 -1.936845 1.129803 0
M  V30 21 H -2.653762 -4.150026 4.367804 0
M  V30 22 H -3.378515 -5.836963 4.220423 0
M  V30 23 H -3.497184 -4.634961 2.895323 0
M  V30 24 H -0.906929 -5.893449 3.821210 0
M  V30 25 H -1.854784 -6.235398 2.276779 0
M  V30 26 H -1.453319 -3.316867 2.473504 0
M  V30 27 H 2.618562 -3.959240 0.190686 0
M  V30 28 H 2.995315 -1.512271 -0.608382 0
M  V30 29 H -0.303070 0.614408 1.857049 0
M  V30 30 H -1.146175 0.485455 0.218944 0
M  V30 31 H -1.299728 2.754903 1.103322 0
M  V30 32 H -0.257220 3.833935 -0.924154 0
M  V30 33 H -1.295523 2.345865 -1.262188 0
M  V30 34 H 0.879568 2.342090 -2.559189 0
M  V30 35 H 3.043152 2.467584 -1.250570 0
M  V30 36 H 1.929958 3.900247 -1.010344 0
M  V30 37 H 2.952593 2.976642 1.126684 0
M  V30 38 H 0.868501 2.561430 2.365467 0
M  V30 39 H 0.796285 4.087070 1.453290 0
M  V30 40 H 3.102480 0.671014 0.325994 0
M  V30 41 H 2.199263 0.761423 1.884468 0
M  V30 42 H 0.002799 0.240343 -1.754212 0
M  V30 43 H 1.849601 0.272607 -1.794962 0
M  V30 END ATOM
M  V30 BEGIN BOND
M  V30 1 1 1 2
M  V30 2 1 2 3
M  V30 3 1 3 4
M  V30 4 2 4 5
M  V30 5 1 4 6
M  V30 6 2 6 7
M  V30 7 1 7 8
M  V30 8 2 8 9
M  V30 9 1 9 10
M  V30 10 1 10 11
M  V30 11 1 11 12
M  V30 12 1 12 13
M  V30 13 1 13 14
M  V30 14 1 14 15
M  V30 15 1 15 16
M  V30 16 1 16 17
M  V30 17 1 16 18
M  V30 18 1 14 19
M  V30 19 1 9 20
M  V30 20 1 20 6
M  V30 21 1 18 10
M  V30 22 1 19 10
M  V30 23 1 17 12
M  V30 24 1 1 21
M  V30 25 1 1 22
M  V30 26 1 1 23
M  V30 27 1 2 24
M  V30 28 1 2 25
M  V30 29 1 3 26
M  V30 30 1 7 27
M  V30 31 1 8 28
M  V30 32 1 11 29
M  V30 33 1 11 30
M  V30 34 1 12 31
M  V30 35 1 13 32
M  V30 36 1 13 33
M  V30 37 1 14 34
M  V30 38 1 15 35
M  V30 39 1 15 36
M  V30 40 1 16 37
M  V30 41 1 17 38
M  V30 42 1 17 39
M  V30 43 1 18 40
M  V30 44 1 18 41
M  V30 45 1 19 42
M  V30 46 1 19 43
M  V30 END BOND
M  V30 END CTAB
M  END
>  <Dataset>  (560) 
ChEMBL_Kinases

>  <Ligand_Instance>  (560) 
nan

>  <PDB_ID>  (560) 
nan

>  <Standardized_SMILES>  (560) 
CCNC(=O)c1ccc(C23CC4CC(CC(C4)C2)C3)o1

>  <Name>  (560) 
nan

>  <Pocket>  (560) 
nan

>  <ATP_Site>  (560) 
nan

>  <Peripheral>  (560) 
nan

>  <Num_H_Atoms_ProtBoundConf>  (560) 
nan

>  <Num_Resolved_Atoms>  (560) 
nan

>  <Num_Not_Resolved_Atoms>  (560) 
nan

$$$$
CHEMBL1520818
     RDKit          3D

  0  0  0  0  0  0  0  0  0  0999 V3000
M  V30 BEGIN CTAB
M  V30 COUNTS 32 35 0 0 0
M  V30 BEGIN ATOM
M  V30 1 F -0.736853 -2.628538 5.520189 0
M  V30 2 C -0.195675 -2.435589 4.299576 0
M  V30 3 C 0.200682 -1.174411 3.919298 0
M  V30 4 C 0.751351 -1.023546 2.657067 0
M  V30 5 C 0.938835 -2.037133 1.739861 0
M  V30 6 N 1.517399 -1.795815 0.459962 0
M  V30 7 C 1.848314 -0.432697 0.231356 0
M  V30 8 N 3.038520 -0.033959 0.653830 0
M  V30 9 C 3.543175 1.180393 0.545121 0
M  V30 10 N 2.752842 2.082392 -0.055960 0
M  V30 11 C 1.557069 1.718740 -0.489887 0
M  V30 12 S 0.277835 2.707186 -1.334044 0
M  V30 13 C -0.892198 1.394171 -1.497139 0
M  V30 14 C -0.285967 0.294282 -0.923864 0
M  V30 15 C 0.977117 0.425171 -0.393728 0
M  V30 16 C -1.258876 -0.851347 -1.061457 0
M  V30 17 C -2.577818 -0.081889 -0.975050 0
M  V30 18 C -2.246731 1.024205 -1.993207 0
M  V30 19 C 0.525519 -3.290658 2.164864 0
M  V30 20 C -0.027854 -3.489183 3.411103 0
M  V30 21 H 0.079111 -0.335217 4.597578 0
M  V30 22 H 1.038621 -0.005251 2.423586 0
M  V30 23 H 1.649106 -2.587790 -0.180712 0
M  V30 24 H 4.509499 1.426543 0.908636 0
M  V30 25 H -1.143997 -1.619351 -0.304734 0
M  V30 26 H -1.176287 -1.269067 -2.109483 0
M  V30 27 H -2.632201 0.330901 0.034610 0
M  V30 28 H -3.425374 -0.702990 -1.293540 0
M  V30 29 H -2.953354 1.841579 -1.806050 0
M  V30 30 H -2.236340 0.614386 -3.004746 0
M  V30 31 H 0.641470 -4.129591 1.498674 0
M  V30 32 H -0.359055 -4.460221 3.765662 0
M  V30 END ATOM
M  V30 BEGIN BOND
M  V30 1 1 1 2
M  V30 2 2 2 3
M  V30 3 1 3 4
M  V30 4 2 4 5
M  V30 5 1 5 6
M  V30 6 1 6 7
M  V30 7 2 7 8
M  V30 8 1 8 9
M  V30 9 2 9 10
M  V30 10 1 10 11
M  V30 11 1 11 12
M  V30 12 1 12 13
M  V30 13 2 13 14
M  V30 14 1 14 15
M  V30 15 1 14 16
M  V30 16 1 16 17
M  V30 17 1 17 18
M  V30 18 1 5 19
M  V30 19 2 19 20
M  V30 20 1 20 2
M  V30 21 1 15 7
M  V30 22 2 15 11
M  V30 23 1 18 13
M  V30 24 1 3 21
M  V30 25 1 4 22
M  V30 26 1 6 23
M  V30 27 1 9 24
M  V30 28 1 16 25
M  V30 29 1 16 26
M  V30 30 1 17 27
M  V30 31 1 17 28
M  V30 32 1 18 29
M  V30 33 1 18 30
M  V30 34 1 19 31
M  V30 35 1 20 32
M  V30 END BOND
M  V30 END CTAB
M  END
>  <Dataset>  (561) 
ChEMBL_Kinases

>  <Ligand_Instance>  (561) 
nan

>  <PDB_ID>  (561) 
nan

>  <Standardized_SMILES>  (561) 
Fc1ccc(Nc2ncnc3sc4c(c23)CCC4)cc1

>  <Name>  (561) 
nan

>  <Pocket>  (561) 
nan

>  <ATP_Site>  (561) 
nan

>  <Peripheral>  (561) 
nan

>  <Num_H_Atoms_ProtBoundConf>  (561) 
nan

>  <Num_Resolved_Atoms>  (561) 
nan

>  <Num_Not_Resolved_Atoms>  (561) 
nan

$$$$
CHEMBL1520681
     RDKit          3D

  0  0  0  0  0  0  0  0  0  0999 V3000
M  V30 BEGIN CTAB
M  V30 COUNTS 61 65 0 0 0
M  V30 BEGIN ATOM
M  V30 1 C 3.844995 -3.918211 3.645093 0
M  V30 2 N 4.772664 -2.862370 3.319803 0
M  V30 3 C 4.950632 -2.685570 1.909994 0
M  V30 4 C 3.671417 -2.204702 1.240031 0
M  V30 5 N 3.185857 -1.027778 1.974986 0
M  V30 6 C 2.124898 -0.251755 1.394332 0
M  V30 7 N 1.646566 0.851451 2.041955 0
M  V30 8 C 0.657294 1.619930 1.550341 0
M  V30 9 C 0.145041 1.222691 0.333475 0
M  V30 10 N -0.856178 2.013894 -0.149760 0
M  V30 11 C -1.430516 1.704373 -1.351699 0
M  V30 12 C -2.495216 2.559037 -1.852429 0
M  V30 13 C -3.883502 2.050811 -1.742994 0
M  V30 14 C -4.316487 1.773315 -0.357845 0
M  V30 15 C -4.156701 0.533901 0.270361 0
M  V30 16 C -4.589797 0.361284 1.572147 0
M  V30 17 C -5.187982 1.372586 2.307368 0
M  V30 18 C -5.349002 2.604323 1.689120 0
M  V30 19 C -4.912813 2.764723 0.389302 0
M  V30 20 C -0.945107 0.593836 -1.997502 0
M  V30 21 O -1.495330 0.338951 -3.098487 0
M  V30 22 N 0.050117 -0.220249 -1.550443 0
M  V30 23 C 0.512507 -1.361834 -2.268821 0
M  V30 24 C -0.162292 -2.626655 -1.982603 0
M  V30 25 C -1.268732 -2.960446 -2.737686 0
M  V30 26 C -1.968588 -4.139285 -2.535325 0
M  V30 27 C -1.563977 -5.023959 -1.551797 0
M  V30 28 F -2.163238 -6.212104 -1.253980 0
M  V30 29 C -0.454642 -4.708235 -0.781203 0
M  V30 30 C 0.226780 -3.521036 -1.005987 0
M  V30 31 C 0.602958 0.108439 -0.356738 0
M  V30 32 N 1.594822 -0.603724 0.206795 0
M  V30 33 C 3.728890 -0.616652 3.252039 0
M  V30 34 C 4.414979 -1.677768 4.028910 0
M  V30 35 H 3.966208 -4.716652 2.886603 0
M  V30 36 H 2.769864 -3.593785 3.548119 0
M  V30 37 H 4.065233 -4.250965 4.678962 0
M  V30 38 H 5.709051 -1.888874 1.778241 0
M  V30 39 H 5.320226 -3.606703 1.464375 0
M  V30 40 H 2.906070 -2.989138 1.161998 0
M  V30 41 H 3.927450 -1.882460 0.212575 0
M  V30 42 H 0.287682 2.492084 2.074318 0
M  V30 43 H -2.429701 3.605152 -1.453361 0
M  V30 44 H -2.299211 2.696289 -2.956727 0
M  V30 45 H -4.048244 1.212011 -2.446047 0
M  V30 46 H -4.550414 2.867265 -2.132314 0
M  V30 47 H -3.688155 -0.273380 -0.292542 0
M  V30 48 H -4.459099 -0.601860 2.042609 0
M  V30 49 H -5.535327 1.279436 3.313234 0
M  V30 50 H -5.818997 3.425450 2.245284 0
M  V30 51 H -5.068938 3.748333 -0.031415 0
M  V30 52 H 1.622407 -1.432893 -2.072619 0
M  V30 53 H 0.479496 -1.095554 -3.366414 0
M  V30 54 H -1.702821 -2.366558 -3.543377 0
M  V30 55 H -2.839988 -4.464695 -3.085853 0
M  V30 56 H -0.081314 -5.365131 0.013935 0
M  V30 57 H 1.089960 -3.288950 -0.397134 0
M  V30 58 H 2.895789 -0.123696 3.808712 0
M  V30 59 H 4.438814 0.225903 3.000054 0
M  V30 60 H 5.314917 -1.192108 4.511138 0
M  V30 61 H 3.770910 -1.930351 4.922321 0
M  V30 END ATOM
M  V30 BEGIN BOND
M  V30 1 1 1 2
M  V30 2 1 2 3
M  V30 3 1 3 4
M  V30 4 1 4 5
M  V30 5 1 5 6
M  V30 6 2 6 7
M  V30 7 1 7 8
M  V30 8 2 8 9
M  V30 9 1 9 10
M  V30 10 2 10 11
M  V30 11 1 11 12
M  V30 12 1 12 13
M  V30 13 1 13 14
M  V30 14 2 14 15
M  V30 15 1 15 16
M  V30 16 2 16 17
M  V30 17 1 17 18
M  V30 18 2 18 19
M  V30 19 1 11 20
M  V30 20 2 20 21
M  V30 21 1 20 22
M  V30 22 1 22 23
M  V30 23 1 23 24
M  V30 24 2 24 25
M  V30 25 1 25 26
M  V30 26 2 26 27
M  V30 27 1 27 28
M  V30 28 1 27 29
M  V30 29 2 29 30
M  V30 30 1 22 31
M  V30 31 2 31 32
M  V30 32 1 5 33
M  V30 33 1 33 34
M  V30 34 1 34 2
M  V30 35 1 32 6
M  V30 36 1 31 9
M  V30 37 1 19 14
M  V30 38 1 30 24
M  V30 39 1 1 35
M  V30 40 1 1 36
M  V30 41 1 1 37
M  V30 42 1 3 38
M  V30 43 1 3 39
M  V30 44 1 4 40
M  V30 45 1 4 41
M  V30 46 1 8 42
M  V30 47 1 12 43
M  V30 48 1 12 44
M  V30 49 1 13 45
M  V30 50 1 13 46
M  V30 51 1 15 47
M  V30 52 1 16 48
M  V30 53 1 17 49
M  V30 54 1 18 50
M  V30 55 1 19 51
M  V30 56 1 23 52
M  V30 57 1 23 53
M  V30 58 1 25 54
M  V30 59 1 26 55
M  V30 60 1 29 56
M  V30 61 1 30 57
M  V30 62 1 33 58
M  V30 63 1 33 59
M  V30 64 1 34 60
M  V30 65 1 34 61
M  V30 END BOND
M  V30 END CTAB
M  END
>  <Dataset>  (562) 
ChEMBL_Kinases

>  <Ligand_Instance>  (562) 
nan

>  <PDB_ID>  (562) 
nan

>  <Standardized_SMILES>  (562) 
CN1CCN(c2ncc3nc(CCc4ccccc4)c(=O)n(Cc4ccc(F)cc4)c3n2)CC1

>  <Name>  (562) 
nan

>  <Pocket>  (562) 
nan

>  <ATP_Site>  (562) 
nan

>  <Peripheral>  (562) 
nan

>  <Num_H_Atoms_ProtBoundConf>  (562) 
nan

>  <Num_Resolved_Atoms>  (562) 
nan

>  <Num_Not_Resolved_Atoms>  (562) 
nan

$$$$
CHEMBL1520242
     RDKit          3D

  0  0  0  0  0  0  0  0  0  0999 V3000
M  V30 BEGIN CTAB
M  V30 COUNTS 57 59 0 0 0
M  V30 BEGIN ATOM
M  V30 1 C 0.682994 -3.686449 2.518229 0
M  V30 2 C 1.518624 -2.414297 2.634473 0
M  V30 3 C 0.793395 -1.524379 3.608474 0
M  V30 4 C 2.839847 -2.837599 3.227720 0
M  V30 5 C 3.900577 -1.966675 2.693694 0
M  V30 6 O 5.147170 -2.237691 2.600126 0
M  V30 7 C 3.516475 -0.625315 2.203778 0
M  V30 8 C 2.399877 -0.468853 1.470160 0
M  V30 9 N 1.964242 0.789486 0.963902 0
M  V30 10 C 2.127442 0.864088 -0.469886 0
M  V30 11 C 1.674635 2.156598 -1.040213 0
M  V30 12 N 0.350568 2.548234 -0.895221 0
M  V30 13 C -0.193572 2.895764 0.343705 0
M  V30 14 C -1.173248 1.884763 0.911795 0
M  V30 15 N -1.768845 1.229153 -0.245079 0
M  V30 16 C -2.085158 -0.140287 -0.066743 0
M  V30 17 O -1.798210 -0.584537 1.071058 0
M  V30 18 N -2.669224 -0.799523 -1.177991 0
M  V30 19 C -3.141443 -2.105132 -1.484016 0
M  V30 20 C -2.113644 -2.879179 -2.028298 0
M  V30 21 C -2.336482 -4.203718 -2.409701 0
M  V30 22 C -3.610689 -4.750989 -2.239219 0
M  V30 23 Cl -3.924444 -6.409677 -2.707035 0
M  V30 24 C -4.609754 -3.967299 -1.699680 0
M  V30 25 Cl -6.222721 -4.598738 -1.463081 0
M  V30 26 C -4.395608 -2.657579 -1.320814 0
M  V30 27 C -1.936205 2.093469 -1.391851 0
M  V30 28 C -0.547480 2.327678 -1.971193 0
M  V30 29 C 1.739262 -1.786020 1.288916 0
M  V30 30 H 0.458926 -4.003514 3.549778 0
M  V30 31 H -0.269416 -3.512634 1.998544 0
M  V30 32 H 1.267618 -4.501193 2.041633 0
M  V30 33 H 0.766086 -0.491788 3.252586 0
M  V30 34 H -0.268423 -1.852963 3.737584 0
M  V30 35 H 1.305135 -1.537251 4.612868 0
M  V30 36 H 3.035085 -3.909206 3.035385 0
M  V30 37 H 2.754169 -2.722851 4.344950 0
M  V30 38 H 4.130371 0.265037 2.424879 0
M  V30 39 H 1.671512 1.219454 1.858210 0
M  V30 40 H 1.702853 -0.026406 -0.979710 0
M  V30 41 H 3.232278 0.791231 -0.667819 0
M  V30 42 H 2.330906 2.954733 -0.578304 0
M  V30 43 H 1.967011 2.199102 -2.124943 0
M  V30 44 H 0.606265 3.180748 1.052602 0
M  V30 45 H -0.771107 3.861219 0.199687 0
M  V30 46 H -0.713780 1.197899 1.619687 0
M  V30 47 H -2.036957 2.439426 1.387015 0
M  V30 48 H -2.851187 -0.293254 -2.070295 0
M  V30 49 H -1.085107 -2.576329 -2.212745 0
M  V30 50 H -1.578808 -4.846737 -2.835119 0
M  V30 51 H -5.093694 -1.972137 -0.897397 0
M  V30 52 H -2.291174 3.095579 -1.031835 0
M  V30 53 H -2.645768 1.732435 -2.140930 0
M  V30 54 H -0.256485 1.563475 -2.700614 0
M  V30 55 H -0.622097 3.298155 -2.540659 0
M  V30 56 H 2.391748 -2.510813 0.722187 0
M  V30 57 H 0.797676 -1.700466 0.707857 0
M  V30 END ATOM
M  V30 BEGIN BOND
M  V30 1 1 1 2
M  V30 2 1 2 3
M  V30 3 1 2 4
M  V30 4 1 4 5
M  V30 5 2 5 6
M  V30 6 1 5 7
M  V30 7 2 7 8
M  V30 8 1 8 9
M  V30 9 1 9 10
M  V30 10 1 10 11
M  V30 11 1 11 12
M  V30 12 1 12 13
M  V30 13 1 13 14
M  V30 14 1 14 15
M  V30 15 1 15 16
M  V30 16 2 16 17
M  V30 17 1 16 18
M  V30 18 1 18 19
M  V30 19 2 19 20
M  V30 20 1 20 21
M  V30 21 2 21 22
M  V30 22 1 22 23
M  V30 23 1 22 24
M  V30 24 1 24 25
M  V30 25 2 24 26
M  V30 26 1 15 27
M  V30 27 1 27 28
M  V30 28 1 8 29
M  V30 29 1 29 2
M  V30 30 1 28 12
M  V30 31 1 26 19
M  V30 32 1 1 30
M  V30 33 1 1 31
M  V30 34 1 1 32
M  V30 35 1 3 33
M  V30 36 1 3 34
M  V30 37 1 3 35
M  V30 38 1 4 36
M  V30 39 1 4 37
M  V30 40 1 7 38
M  V30 41 1 9 39
M  V30 42 1 10 40
M  V30 43 1 10 41
M  V30 44 1 11 42
M  V30 45 1 11 43
M  V30 46 1 13 44
M  V30 47 1 13 45
M  V30 48 1 14 46
M  V30 49 1 14 47
M  V30 50 1 18 48
M  V30 51 1 20 49
M  V30 52 1 21 50
M  V30 53 1 26 51
M  V30 54 1 27 52
M  V30 55 1 27 53
M  V30 56 1 28 54
M  V30 57 1 28 55
M  V30 58 1 29 56
M  V30 59 1 29 57
M  V30 END BOND
M  V30 END CTAB
M  END
>  <Dataset>  (563) 
ChEMBL_Kinases

>  <Ligand_Instance>  (563) 
nan

>  <PDB_ID>  (563) 
nan

>  <Standardized_SMILES>  (563) 
CC1(C)CC(=O)C=C(NCCN2CCN(C(=O)Nc3ccc(Cl)c(Cl)c3)CC2)C1

>  <Name>  (563) 
nan

>  <Pocket>  (563) 
nan

>  <ATP_Site>  (563) 
nan

>  <Peripheral>  (563) 
nan

>  <Num_H_Atoms_ProtBoundConf>  (563) 
nan

>  <Num_Resolved_Atoms>  (563) 
nan

>  <Num_Not_Resolved_Atoms>  (563) 
nan

$$$$
CHEMBL1520065
     RDKit          3D

  0  0  0  0  0  0  0  0  0  0999 V3000
M  V30 BEGIN CTAB
M  V30 COUNTS 26 27 0 0 0
M  V30 BEGIN ATOM
M  V30 1 C -1.133763 -3.247078 1.048541 0
M  V30 2 O -0.008346 -2.412705 1.115966 0
M  V30 3 C 1.101285 -2.646237 1.870894 0
M  V30 4 O 1.390455 -3.587288 2.641355 0
M  V30 5 C 2.096414 -1.565923 1.707238 0
M  V30 6 S 3.719220 -1.672400 2.658050 0
M  V30 7 C 4.312909 -0.094291 1.951925 0
M  V30 8 C 3.300089 0.332792 1.123454 0
M  V30 9 C 2.173491 -0.389477 0.982316 0
M  V30 10 N 1.051238 -0.079854 0.170985 0
M  V30 11 C 0.067575 0.693929 0.854063 0
M  V30 12 O 0.292912 1.006864 2.057943 0
M  V30 13 C -1.158359 1.107583 0.177077 0
M  V30 14 C -1.541669 0.838656 -1.139949 0
M  V30 15 C -2.773584 1.418108 -1.365658 0
M  V30 16 C -3.084006 2.021696 -0.152568 0
M  V30 17 Br -4.632877 3.022978 0.320634 0
M  V30 18 O -2.117380 1.811684 0.703563 0
M  V30 19 H -1.228251 -3.859322 1.986529 0
M  V30 20 H -2.027236 -2.569781 1.071279 0
M  V30 21 H -1.211595 -3.850858 0.127482 0
M  V30 22 H 5.244204 0.345643 2.171010 0
M  V30 23 H 3.441968 1.277464 0.584796 0
M  V30 24 H 0.876510 -0.350017 -0.838878 0
M  V30 25 H -0.977685 0.276965 -1.859270 0
M  V30 26 H -3.397561 1.433940 -2.250633 0
M  V30 END ATOM
M  V30 BEGIN BOND
M  V30 1 1 1 2
M  V30 2 1 2 3
M  V30 3 2 3 4
M  V30 4 1 3 5
M  V30 5 1 5 6
M  V30 6 1 6 7
M  V30 7 2 7 8
M  V30 8 1 8 9
M  V30 9 1 9 10
M  V30 10 1 10 11
M  V30 11 2 11 12
M  V30 12 1 11 13
M  V30 13 2 13 14
M  V30 14 1 14 15
M  V30 15 2 15 16
M  V30 16 1 16 17
M  V30 17 1 16 18
M  V30 18 2 9 5
M  V30 19 1 18 13
M  V30 20 1 1 19
M  V30 21 1 1 20
M  V30 22 1 1 21
M  V30 23 1 7 22
M  V30 24 1 8 23
M  V30 25 1 10 24
M  V30 26 1 14 25
M  V30 27 1 15 26
M  V30 END BOND
M  V30 END CTAB
M  END
>  <Dataset>  (564) 
ChEMBL_Kinases

>  <Ligand_Instance>  (564) 
nan

>  <PDB_ID>  (564) 
nan

>  <Standardized_SMILES>  (564) 
COC(=O)c1sccc1NC(=O)c1ccc(Br)o1

>  <Name>  (564) 
nan

>  <Pocket>  (564) 
nan

>  <ATP_Site>  (564) 
nan

>  <Peripheral>  (564) 
nan

>  <Num_H_Atoms_ProtBoundConf>  (564) 
nan

>  <Num_Resolved_Atoms>  (564) 
nan

>  <Num_Not_Resolved_Atoms>  (564) 
nan

$$$$
CHEMBL1520012
     RDKit          3D

  0  0  0  0  0  0  0  0  0  0999 V3000
M  V30 BEGIN CTAB
M  V30 COUNTS 49 52 0 0 0
M  V30 BEGIN ATOM
M  V30 1 O 3.199708 -1.710237 1.307803 0
M  V30 2 C 1.955521 -1.542302 1.359386 0
M  V30 3 O 1.353714 -0.692454 2.277375 0
M  V30 4 C 2.100817 0.050195 3.226429 0
M  V30 5 C 3.013562 0.918331 2.428851 0
M  V30 6 N 4.260484 0.711349 1.967452 0
M  V30 7 N 4.619670 1.811610 1.311469 0
M  V30 8 C 3.618111 2.708970 1.352366 0
M  V30 9 C 3.603273 4.047183 0.755472 0
M  V30 10 C 4.728479 4.476945 0.061016 0
M  V30 11 C 4.718207 5.739562 -0.503819 0
M  V30 12 C 3.612022 6.556622 -0.380110 0
M  V30 13 C 2.520990 6.083244 0.318810 0
M  V30 14 C 2.465562 4.819239 0.913505 0
M  V30 15 O 2.661530 2.130092 2.038995 0
M  V30 16 C 1.107827 -2.262437 0.424884 0
M  V30 17 C -0.261839 -2.123010 0.428466 0
M  V30 18 C -1.125016 -2.773007 -0.426373 0
M  V30 19 S -2.851507 -2.507779 -0.317962 0
M  V30 20 O -3.400391 -2.032569 -1.655012 0
M  V30 21 O -3.154347 -1.441131 0.666155 0
M  V30 22 N -3.640430 -3.988505 0.015563 0
M  V30 23 C -3.245029 -4.568711 1.260575 0
M  V30 24 C -4.143898 -4.118613 2.373807 0
M  V30 25 O -5.432284 -4.592820 2.054087 0
M  V30 26 C -5.907672 -3.833149 0.988724 0
M  V30 27 C -5.046970 -3.926384 -0.225306 0
M  V30 28 C -0.602632 -3.634430 -1.366588 0
M  V30 29 Cl -1.628814 -4.497395 -2.487645 0
M  V30 30 C 0.784541 -3.805054 -1.404386 0
M  V30 31 C 1.622423 -3.126532 -0.519338 0
M  V30 32 Cl 3.353165 -3.354786 -0.584368 0
M  V30 33 H 2.730994 -0.622802 3.843259 0
M  V30 34 H 1.412257 0.659179 3.821663 0
M  V30 35 H 5.566157 3.808876 -0.010410 0
M  V30 36 H 5.602856 6.053805 -1.039151 0
M  V30 37 H 3.590521 7.552216 -0.819523 0
M  V30 38 H 1.636374 6.689988 0.438786 0
M  V30 39 H 1.612275 4.461712 1.454398 0
M  V30 40 H -0.701275 -1.451492 1.157695 0
M  V30 41 H -3.194066 -5.679060 1.225706 0
M  V30 42 H -2.184660 -4.242913 1.436431 0
M  V30 43 H -3.876474 -4.604641 3.332310 0
M  V30 44 H -4.136263 -3.030014 2.468747 0
M  V30 45 H -6.923267 -4.209749 0.745740 0
M  V30 46 H -6.008215 -2.757133 1.290999 0
M  V30 47 H -5.405952 -4.803481 -0.820284 0
M  V30 48 H -5.232092 -2.982252 -0.815499 0
M  V30 49 H 1.244951 -4.471729 -2.125551 0
M  V30 END ATOM
M  V30 BEGIN BOND
M  V30 1 2 1 2
M  V30 2 1 2 3
M  V30 3 1 3 4
M  V30 4 1 4 5
M  V30 5 2 5 6
M  V30 6 1 6 7
M  V30 7 2 7 8
M  V30 8 1 8 9
M  V30 9 2 9 10
M  V30 10 1 10 11
M  V30 11 2 11 12
M  V30 12 1 12 13
M  V30 13 2 13 14
M  V30 14 1 8 15
M  V30 15 1 2 16
M  V30 16 2 16 17
M  V30 17 1 17 18
M  V30 18 1 18 19
M  V30 19 2 19 20
M  V30 20 2 19 21
M  V30 21 1 19 22
M  V30 22 1 22 23
M  V30 23 1 23 24
M  V30 24 1 24 25
M  V30 25 1 25 26
M  V30 26 1 26 27
M  V30 27 2 18 28
M  V30 28 1 28 29
M  V30 29 1 28 30
M  V30 30 2 30 31
M  V30 31 1 31 32
M  V30 32 1 15 5
M  V30 33 1 31 16
M  V30 34 1 14 9
M  V30 35 1 27 22
M  V30 36 1 4 33
M  V30 37 1 4 34
M  V30 38 1 10 35
M  V30 39 1 11 36
M  V30 40 1 12 37
M  V30 41 1 13 38
M  V30 42 1 14 39
M  V30 43 1 17 40
M  V30 44 1 23 41
M  V30 45 1 23 42
M  V30 46 1 24 43
M  V30 47 1 24 44
M  V30 48 1 26 45
M  V30 49 1 26 46
M  V30 50 1 27 47
M  V30 51 1 27 48
M  V30 52 1 30 49
M  V30 END BOND
M  V30 END CTAB
M  END
>  <Dataset>  (565) 
ChEMBL_Kinases

>  <Ligand_Instance>  (565) 
nan

>  <PDB_ID>  (565) 
nan

>  <Standardized_SMILES>  (565) 
O=C(OCc1nnc(-c2ccccc2)o1)c1cc(S(=O)(=O)N2CCOCC2)c(Cl)cc1Cl

>  <Name>  (565) 
nan

>  <Pocket>  (565) 
nan

>  <ATP_Site>  (565) 
nan

>  <Peripheral>  (565) 
nan

>  <Num_H_Atoms_ProtBoundConf>  (565) 
nan

>  <Num_Resolved_Atoms>  (565) 
nan

>  <Num_Not_Resolved_Atoms>  (565) 
nan

$$$$
CHEMBL1519940
     RDKit          3D

  0  0  0  0  0  0  0  0  0  0999 V3000
M  V30 BEGIN CTAB
M  V30 COUNTS 55 59 0 0 0
M  V30 BEGIN ATOM
M  V30 1 C -1.068372 -2.119415 3.121657 0
M  V30 2 C 0.155723 -1.444782 2.696179 0
M  V30 3 C 0.830596 -0.717873 3.634635 0
M  V30 4 C 2.000168 -0.089260 3.350546 0
M  V30 5 C 2.507301 -0.195376 2.081648 0
M  V30 6 S 4.009063 0.610706 1.696510 0
M  V30 7 O 4.867677 -0.230006 0.802671 0
M  V30 8 O 4.784109 0.800812 2.975474 0
M  V30 9 N 3.692639 2.148444 1.057703 0
M  V30 10 C 2.940332 2.177459 -0.160231 0
M  V30 11 C 2.747759 3.631792 -0.535788 0
M  V30 12 N 1.737238 4.186642 0.341926 0
M  V30 13 C 0.444855 3.928351 -0.264034 0
M  V30 14 C 1.744378 3.555313 1.644174 0
M  V30 15 C 3.110462 3.024735 2.013120 0
M  V30 16 C 1.806625 -0.932480 1.158376 0
M  V30 17 C 0.595329 -1.597392 1.405872 0
M  V30 18 C 0.019677 -2.335164 0.309734 0
M  V30 19 N 0.801818 -2.666970 -0.760677 0
M  V30 20 N 0.088267 -3.299213 -1.672582 0
M  V30 21 C -1.181584 -3.408931 -1.246580 0
M  V30 22 C -2.319433 -3.950922 -1.794463 0
M  V30 23 C -2.234279 -4.548975 -3.038839 0
M  V30 24 C -3.397657 -5.098889 -3.590317 0
M  V30 25 C -4.591468 -5.031804 -2.885344 0
M  V30 26 C -4.685550 -4.437202 -1.643604 0
M  V30 27 C -3.522847 -3.904530 -1.126564 0
M  V30 28 C -3.431419 -3.276046 0.095085 0
M  V30 29 C -4.679764 -3.157400 0.928135 0
M  V30 30 N -2.293770 -2.770790 0.570567 0
M  V30 31 N -1.165001 -2.811545 -0.048869 0
M  V30 32 H -1.936688 -1.499781 2.889800 0
M  V30 33 H -1.108546 -3.187689 2.876543 0
M  V30 34 H -1.084068 -2.147255 4.269217 0
M  V30 35 H 0.445060 -0.623233 4.640972 0
M  V30 36 H 2.503672 0.473217 4.121591 0
M  V30 37 H 1.922694 1.744477 0.024235 0
M  V30 38 H 3.418399 1.601703 -0.983069 0
M  V30 39 H 3.703116 4.149211 -0.292480 0
M  V30 40 H 2.513109 3.767548 -1.598678 0
M  V30 41 H 0.235934 2.853914 -0.248744 0
M  V30 42 H 0.427721 4.250544 -1.344042 0
M  V30 43 H -0.365331 4.503014 0.262124 0
M  V30 44 H 1.484386 4.336342 2.388198 0
M  V30 45 H 0.968770 2.768690 1.730073 0
M  V30 46 H 3.832283 3.849245 2.209119 0
M  V30 47 H 3.010499 2.498307 2.981732 0
M  V30 48 H 2.317850 -0.938221 0.180853 0
M  V30 49 H -1.299251 -4.600954 -3.589988 0
M  V30 50 H -3.363882 -5.578398 -4.571490 0
M  V30 51 H -5.493783 -5.456051 -3.308576 0
M  V30 52 H -5.577062 -4.352646 -1.047849 0
M  V30 53 H -5.521785 -2.816499 0.292648 0
M  V30 54 H -4.502523 -2.419092 1.754752 0
M  V30 55 H -4.898365 -4.156613 1.354187 0
M  V30 END ATOM
M  V30 BEGIN BOND
M  V30 1 1 1 2
M  V30 2 2 2 3
M  V30 3 1 3 4
M  V30 4 2 4 5
M  V30 5 1 5 6
M  V30 6 2 6 7
M  V30 7 2 6 8
M  V30 8 1 6 9
M  V30 9 1 9 10
M  V30 10 1 10 11
M  V30 11 1 11 12
M  V30 12 1 12 13
M  V30 13 1 12 14
M  V30 14 1 14 15
M  V30 15 1 5 16
M  V30 16 2 16 17
M  V30 17 1 17 18
M  V30 18 2 18 19
M  V30 19 1 19 20
M  V30 20 2 20 21
M  V30 21 1 21 22
M  V30 22 2 22 23
M  V30 23 1 23 24
M  V30 24 2 24 25
M  V30 25 1 25 26
M  V30 26 2 26 27
M  V30 27 1 27 28
M  V30 28 1 28 29
M  V30 29 2 28 30
M  V30 30 1 30 31
M  V30 31 1 17 2
M  V30 32 1 31 18
M  V30 33 1 15 9
M  V30 34 1 31 21
M  V30 35 1 27 22
M  V30 36 1 1 32
M  V30 37 1 1 33
M  V30 38 1 1 34
M  V30 39 1 3 35
M  V30 40 1 4 36
M  V30 41 1 10 37
M  V30 42 1 10 38
M  V30 43 1 11 39
M  V30 44 1 11 40
M  V30 45 1 13 41
M  V30 46 1 13 42
M  V30 47 1 13 43
M  V30 48 1 14 44
M  V30 49 1 14 45
M  V30 50 1 15 46
M  V30 51 1 15 47
M  V30 52 1 16 48
M  V30 53 1 23 49
M  V30 54 1 24 50
M  V30 55 1 25 51
M  V30 56 1 26 52
M  V30 57 1 29 53
M  V30 58 1 29 54
M  V30 59 1 29 55
M  V30 END BOND
M  V30 END CTAB
M  END
>  <Dataset>  (566) 
ChEMBL_Kinases

>  <Ligand_Instance>  (566) 
nan

>  <PDB_ID>  (566) 
nan

>  <Standardized_SMILES>  (566) 
Cc1ccc(S(=O)(=O)N2CCN(C)CC2)cc1-c1nnc2c3ccccc3c(C)nn12

>  <Name>  (566) 
nan

>  <Pocket>  (566) 
nan

>  <ATP_Site>  (566) 
nan

>  <Peripheral>  (566) 
nan

>  <Num_H_Atoms_ProtBoundConf>  (566) 
nan

>  <Num_Resolved_Atoms>  (566) 
nan

>  <Num_Not_Resolved_Atoms>  (566) 
nan

$$$$
CHEMBL1519914
     RDKit          3D

  0  0  0  0  0  0  0  0  0  0999 V3000
M  V30 BEGIN CTAB
M  V30 COUNTS 44 47 0 0 0
M  V30 BEGIN ATOM
M  V30 1 C -0.189644 -4.836920 1.941743 0
M  V30 2 C 0.891900 -4.917193 0.919012 0
M  V30 3 C 1.709668 -6.024200 0.723420 0
M  V30 4 C 2.685746 -6.018491 -0.241853 0
M  V30 5 C 2.907862 -4.925888 -1.062956 0
M  V30 6 C 2.111103 -3.791439 -0.903133 0
M  V30 7 N 2.074741 -2.597855 -1.524087 0
M  V30 8 C 1.109414 -1.818891 -1.002028 0
M  V30 9 C 0.687088 -0.530566 -1.295071 0
M  V30 10 O 1.354813 0.124513 -2.313239 0
M  V30 11 N -0.343265 0.046886 -0.597221 0
M  V30 12 C -0.665738 1.367046 -1.007096 0
M  V30 13 C 0.041143 2.483701 -0.347096 0
M  V30 14 N -0.080279 2.679238 1.021599 0
M  V30 15 C 0.715100 3.725089 1.603674 0
M  V30 16 C 0.695200 3.705191 3.108747 0
M  V30 17 N -0.570124 3.368403 3.670671 0
M  V30 18 C -1.160222 2.231099 3.034127 0
M  V30 19 C -1.396010 2.619414 1.589156 0
M  V30 20 C -0.869406 -0.739395 0.353186 0
M  V30 21 N -0.510696 -1.988387 0.687393 0
M  V30 22 C 0.501109 -2.632803 0.045457 0
M  V30 23 C 1.146998 -3.852480 0.080514 0
M  V30 24 H -0.048382 -3.941874 2.594441 0
M  V30 25 H -0.283555 -5.765059 2.501654 0
M  V30 26 H -1.154809 -4.642249 1.398789 0
M  V30 27 H 1.510480 -6.874744 1.388856 0
M  V30 28 H 3.279510 -6.938018 -0.320489 0
M  V30 29 H 3.685817 -4.951861 -1.816144 0
M  V30 30 H 1.070554 0.091805 -3.285054 0
M  V30 31 H -0.574129 1.430478 -2.120466 0
M  V30 32 H -1.775808 1.493477 -0.834730 0
M  V30 33 H 1.140427 2.346880 -0.569077 0
M  V30 34 H -0.202458 3.436987 -0.884272 0
M  V30 35 H 1.756179 3.593586 1.254746 0
M  V30 36 H 0.358683 4.716402 1.269710 0
M  V30 37 H 1.023041 4.671854 3.527936 0
M  V30 38 H 1.442001 2.944773 3.447067 0
M  V30 39 H -0.619123 3.394905 4.689271 0
M  V30 40 H -0.367693 1.424079 3.027909 0
M  V30 41 H -2.063124 1.853388 3.546816 0
M  V30 42 H -2.122636 2.000722 1.099194 0
M  V30 43 H -1.821615 3.667615 1.570293 0
M  V30 44 H -1.681974 -0.300037 0.906218 0
M  V30 END ATOM
M  V30 BEGIN BOND
M  V30 1 1 1 2
M  V30 2 2 2 3
M  V30 3 1 3 4
M  V30 4 2 4 5
M  V30 5 1 5 6
M  V30 6 2 6 7
M  V30 7 1 7 8
M  V30 8 2 8 9
M  V30 9 1 9 10
M  V30 10 1 9 11
M  V30 11 1 11 12
M  V30 12 1 12 13
M  V30 13 1 13 14
M  V30 14 1 14 15
M  V30 15 1 15 16
M  V30 16 1 16 17
M  V30 17 1 17 18
M  V30 18 1 18 19
M  V30 19 1 11 20
M  V30 20 2 20 21
M  V30 21 1 21 22
M  V30 22 2 22 23
M  V30 23 1 23 2
M  V30 24 1 23 6
M  V30 25 1 22 8
M  V30 26 1 19 14
M  V30 27 1 1 24
M  V30 28 1 1 25
M  V30 29 1 1 26
M  V30 30 1 3 27
M  V30 31 1 4 28
M  V30 32 1 5 29
M  V30 33 1 10 30
M  V30 34 1 12 31
M  V30 35 1 12 32
M  V30 36 1 13 33
M  V30 37 1 13 34
M  V30 38 1 15 35
M  V30 39 1 15 36
M  V30 40 1 16 37
M  V30 41 1 16 38
M  V30 42 1 17 39
M  V30 43 1 18 40
M  V30 44 1 18 41
M  V30 45 1 19 42
M  V30 46 1 19 43
M  V30 47 1 20 44
M  V30 END BOND
M  V30 END CTAB
M  END
>  <Dataset>  (567) 
ChEMBL_Kinases

>  <Ligand_Instance>  (567) 
nan

>  <PDB_ID>  (567) 
nan

>  <Standardized_SMILES>  (567) 
Cc1cccc2nc3c(O)n(CCN4CCNCC4)cnc-3c12

>  <Name>  (567) 
nan

>  <Pocket>  (567) 
nan

>  <ATP_Site>  (567) 
nan

>  <Peripheral>  (567) 
nan

>  <Num_H_Atoms_ProtBoundConf>  (567) 
nan

>  <Num_Resolved_Atoms>  (567) 
nan

>  <Num_Not_Resolved_Atoms>  (567) 
nan

$$$$
CHEMBL1519880
     RDKit          3D

  0  0  0  0  0  0  0  0  0  0999 V3000
M  V30 BEGIN CTAB
M  V30 COUNTS 33 35 0 0 0
M  V30 BEGIN ATOM
M  V30 1 O -2.273315 0.990611 1.076676 0
M  V30 2 S -1.243456 -0.085840 1.138153 0
M  V30 3 O -1.547194 -0.597454 2.540740 0
M  V30 4 C 0.396998 0.386124 1.217971 0
M  V30 5 C 1.157981 0.376924 2.403060 0
M  V30 6 C 2.487301 0.693306 2.573592 0
M  V30 7 C 3.173714 1.070208 1.442999 0
M  V30 8 C 2.529924 1.116424 0.228171 0
M  V30 9 C 3.263847 1.513822 -0.869126 0
M  V30 10 C 2.677779 1.596784 -2.115249 0
M  V30 11 C 1.321236 1.263862 -2.212865 0
M  V30 12 C 0.645435 0.874749 -1.081114 0
M  V30 13 Cl -1.030752 0.535806 -1.356430 0
M  V30 14 C 1.213374 0.784604 0.167472 0
M  V30 15 N -1.592556 -1.530169 0.275453 0
M  V30 16 C -0.925130 -2.627007 0.910234 0
M  V30 17 C -1.945499 -3.629402 1.343610 0
M  V30 18 C -3.141251 -3.303549 0.479697 0
M  V30 19 C -3.007876 -1.783792 0.352919 0
M  V30 20 H 0.639024 0.080373 3.325752 0
M  V30 21 H 2.950514 0.645981 3.532269 0
M  V30 22 H 4.208475 1.322540 1.536419 0
M  V30 23 H 4.309716 1.763628 -0.754748 0
M  V30 24 H 3.262865 1.909250 -2.969627 0
M  V30 25 H 0.900959 1.342787 -3.205704 0
M  V30 26 H -0.245569 -3.095601 0.149553 0
M  V30 27 H -0.275032 -2.269326 1.758751 0
M  V30 28 H -1.612833 -4.665173 1.130101 0
M  V30 29 H -2.243290 -3.559896 2.411986 0
M  V30 30 H -4.095674 -3.589186 0.970248 0
M  V30 31 H -3.032617 -3.789468 -0.505233 0
M  V30 32 H -3.459750 -1.473664 -0.614058 0
M  V30 33 H -3.526370 -1.250325 1.153435 0
M  V30 END ATOM
M  V30 BEGIN BOND
M  V30 1 2 1 2
M  V30 2 2 2 3
M  V30 3 1 2 4
M  V30 4 2 4 5
M  V30 5 1 5 6
M  V30 6 2 6 7
M  V30 7 1 7 8
M  V30 8 2 8 9
M  V30 9 1 9 10
M  V30 10 2 10 11
M  V30 11 1 11 12
M  V30 12 1 12 13
M  V30 13 2 12 14
M  V30 14 1 2 15
M  V30 15 1 15 16
M  V30 16 1 16 17
M  V30 17 1 17 18
M  V30 18 1 18 19
M  V30 19 1 14 4
M  V30 20 1 19 15
M  V30 21 1 14 8
M  V30 22 1 5 20
M  V30 23 1 6 21
M  V30 24 1 7 22
M  V30 25 1 9 23
M  V30 26 1 10 24
M  V30 27 1 11 25
M  V30 28 1 16 26
M  V30 29 1 16 27
M  V30 30 1 17 28
M  V30 31 1 17 29
M  V30 32 1 18 30
M  V30 33 1 18 31
M  V30 34 1 19 32
M  V30 35 1 19 33
M  V30 END BOND
M  V30 END CTAB
M  END
>  <Dataset>  (568) 
ChEMBL_Kinases

>  <Ligand_Instance>  (568) 
nan

>  <PDB_ID>  (568) 
nan

>  <Standardized_SMILES>  (568) 
O=S(=O)(c1cccc2cccc(Cl)c12)N1CCCC1

>  <Name>  (568) 
nan

>  <Pocket>  (568) 
nan

>  <ATP_Site>  (568) 
nan

>  <Peripheral>  (568) 
nan

>  <Num_H_Atoms_ProtBoundConf>  (568) 
nan

>  <Num_Resolved_Atoms>  (568) 
nan

>  <Num_Not_Resolved_Atoms>  (568) 
nan

$$$$
CHEMBL1519579
     RDKit          3D

  0  0  0  0  0  0  0  0  0  0999 V3000
M  V30 BEGIN CTAB
M  V30 COUNTS 47 48 0 0 0
M  V30 BEGIN ATOM
M  V30 1 C 0.038377 -6.365978 -3.141681 0
M  V30 2 O 0.358488 -5.137809 -3.749356 0
M  V30 3 C -0.221147 -4.133253 -2.946204 0
M  V30 4 C 0.121347 -2.834764 -3.595205 0
M  V30 5 N -0.392191 -1.671778 -2.909624 0
M  V30 6 C -0.030836 -1.364564 -1.566335 0
M  V30 7 O 0.764146 -2.166883 -1.011072 0
M  V30 8 C -0.620828 -0.153502 -0.978871 0
M  V30 9 C -0.195718 0.129983 0.435613 0
M  V30 10 N 1.207890 0.296805 0.471026 0
M  V30 11 S 1.783056 1.848439 0.839542 0
M  V30 12 O 1.407095 2.911778 -0.135168 0
M  V30 13 O 3.286175 1.770509 0.811713 0
M  V30 14 C 1.295265 2.395474 2.429551 0
M  V30 15 C 2.126757 2.110875 3.500680 0
M  V30 16 C 1.758925 2.536878 4.779652 0
M  V30 17 C 0.582926 3.235419 4.993748 0
M  V30 18 C 0.309696 3.630488 6.403723 0
M  V30 19 C -0.222530 3.503872 3.913968 0
M  V30 20 C 0.122068 3.091974 2.640966 0
M  V30 21 C -0.757290 -0.795237 1.418959 0
M  V30 22 C -1.846809 -0.748076 2.270223 0
M  V30 23 C -1.856990 -1.941109 2.962780 0
M  V30 24 C -0.769193 -2.648845 2.491822 0
M  V30 25 O -0.121249 -1.954530 1.571198 0
M  V30 26 H -1.084973 -6.455126 -3.109563 0
M  V30 27 H 0.401436 -7.220184 -3.731829 0
M  V30 28 H 0.424977 -6.395945 -2.087365 0
M  V30 29 H 0.197858 -4.221906 -1.946823 0
M  V30 30 H -1.321521 -4.330158 -2.926422 0
M  V30 31 H 1.231746 -2.777721 -3.641272 0
M  V30 32 H -0.231783 -2.857688 -4.625004 0
M  V30 33 H -1.058314 -1.032668 -3.430274 0
M  V30 34 H -0.408011 0.692718 -1.664534 0
M  V30 35 H -1.744190 -0.261144 -1.058026 0
M  V30 36 H -0.631018 1.145723 0.677501 0
M  V30 37 H 1.779315 -0.244060 -0.181991 0
M  V30 38 H 3.055466 1.557140 3.319526 0
M  V30 39 H 2.447207 2.288360 5.590770 0
M  V30 40 H 0.880318 4.503893 6.733839 0
M  V30 41 H -0.787291 3.792546 6.482954 0
M  V30 42 H 0.537829 2.707985 7.012419 0
M  V30 43 H -1.124157 4.048208 4.129340 0
M  V30 44 H -0.518463 3.312630 1.824076 0
M  V30 45 H -2.499260 0.112232 2.302704 0
M  V30 46 H -2.596111 -2.202627 3.708648 0
M  V30 47 H -0.488404 -3.652645 2.841274 0
M  V30 END ATOM
M  V30 BEGIN BOND
M  V30 1 1 1 2
M  V30 2 1 2 3
M  V30 3 1 3 4
M  V30 4 1 4 5
M  V30 5 1 5 6
M  V30 6 2 6 7
M  V30 7 1 6 8
M  V30 8 1 8 9
M  V30 9 1 9 10
M  V30 10 1 10 11
M  V30 11 2 11 12
M  V30 12 2 11 13
M  V30 13 1 11 14
M  V30 14 2 14 15
M  V30 15 1 15 16
M  V30 16 2 16 17
M  V30 17 1 17 18
M  V30 18 1 17 19
M  V30 19 2 19 20
M  V30 20 1 9 21
M  V30 21 2 21 22
M  V30 22 1 22 23
M  V30 23 2 23 24
M  V30 24 1 24 25
M  V30 25 1 20 14
M  V30 26 1 25 21
M  V30 27 1 1 26
M  V30 28 1 1 27
M  V30 29 1 1 28
M  V30 30 1 3 29
M  V30 31 1 3 30
M  V30 32 1 4 31
M  V30 33 1 4 32
M  V30 34 1 5 33
M  V30 35 1 8 34
M  V30 36 1 8 35
M  V30 37 1 9 36
M  V30 38 1 10 37
M  V30 39 1 15 38
M  V30 40 1 16 39
M  V30 41 1 18 40
M  V30 42 1 18 41
M  V30 43 1 18 42
M  V30 44 1 19 43
M  V30 45 1 20 44
M  V30 46 1 22 45
M  V30 47 1 23 46
M  V30 48 1 24 47
M  V30 END BOND
M  V30 END CTAB
M  END
>  <Dataset>  (569) 
ChEMBL_Kinases

>  <Ligand_Instance>  (569) 
nan

>  <PDB_ID>  (569) 
nan

>  <Standardized_SMILES>  (569) 
COCCNC(=O)CC(NS(=O)(=O)c1ccc(C)cc1)c1ccco1

>  <Name>  (569) 
nan

>  <Pocket>  (569) 
nan

>  <ATP_Site>  (569) 
nan

>  <Peripheral>  (569) 
nan

>  <Num_H_Atoms_ProtBoundConf>  (569) 
nan

>  <Num_Resolved_Atoms>  (569) 
nan

>  <Num_Not_Resolved_Atoms>  (569) 
nan

$$$$
CHEMBL1519501
     RDKit          3D

  0  0  0  0  0  0  0  0  0  0999 V3000
M  V30 BEGIN CTAB
M  V30 COUNTS 30 32 0 0 0
M  V30 BEGIN ATOM
M  V30 1 O 2.902134 -2.430746 2.633663 0
M  V30 2 C 1.814118 -1.761272 2.525045 0
M  V30 3 C 1.357608 -1.427026 1.184158 0
M  V30 4 C 0.296634 -0.761384 0.767077 0
M  V30 5 C -0.112141 -0.455621 -0.590589 0
M  V30 6 C -1.267189 0.259869 -0.823184 0
M  V30 7 C -1.659744 0.552743 -2.107419 0
M  V30 8 C -0.938267 0.156929 -3.201176 0
M  V30 9 C 0.223081 -0.560702 -3.010058 0
M  V30 10 C 0.592414 -0.840004 -1.710787 0
M  V30 11 O 0.715153 -0.809169 -4.277048 0
M  V30 12 C 0.067237 0.004087 -5.234118 0
M  V30 13 O -1.146141 0.340855 -4.580414 0
M  V30 14 C 1.115318 -1.384413 3.745263 0
M  V30 15 C 1.646621 -1.759123 4.961145 0
M  V30 16 C 1.114309 -1.484714 6.198882 0
M  V30 17 C -0.061296 -0.768396 6.250915 0
M  V30 18 C -0.609746 -0.383705 5.047124 0
M  V30 19 N -0.027290 -0.691664 3.880022 0
M  V30 20 H 1.966473 -1.764006 0.330613 0
M  V30 21 H -0.326982 -0.413815 1.582318 0
M  V30 22 H -1.856378 0.584107 0.045785 0
M  V30 23 H -2.594919 1.127518 -2.186344 0
M  V30 24 H 1.507990 -1.403746 -1.609229 0
M  V30 25 H -0.158638 -0.483688 -6.181317 0
M  V30 26 H 0.602903 0.980948 -5.358221 0
M  V30 27 H 2.574502 -2.327847 5.001397 0
M  V30 28 H 1.577483 -1.805682 7.120547 0
M  V30 29 H -0.574065 -0.492474 7.161542 0
M  V30 30 H -1.538307 0.185000 5.017313 0
M  V30 END ATOM
M  V30 BEGIN BOND
M  V30 1 2 1 2
M  V30 2 1 2 3
M  V30 3 2 3 4
M  V30 4 1 4 5
M  V30 5 2 5 6
M  V30 6 1 6 7
M  V30 7 2 7 8
M  V30 8 1 8 9
M  V30 9 2 9 10
M  V30 10 1 9 11
M  V30 11 1 11 12
M  V30 12 1 12 13
M  V30 13 1 2 14
M  V30 14 2 14 15
M  V30 15 1 15 16
M  V30 16 2 16 17
M  V30 17 1 17 18
M  V30 18 2 18 19
M  V30 19 1 10 5
M  V30 20 1 19 14
M  V30 21 1 13 8
M  V30 22 1 3 20
M  V30 23 1 4 21
M  V30 24 1 6 22
M  V30 25 1 7 23
M  V30 26 1 10 24
M  V30 27 1 12 25
M  V30 28 1 12 26
M  V30 29 1 15 27
M  V30 30 1 16 28
M  V30 31 1 17 29
M  V30 32 1 18 30
M  V30 END BOND
M  V30 END CTAB
M  END
>  <Dataset>  (570) 
ChEMBL_Kinases

>  <Ligand_Instance>  (570) 
nan

>  <PDB_ID>  (570) 
nan

>  <Standardized_SMILES>  (570) 
O=C(/C=C/c1ccc2c(c1)OCO2)c1ccccn1

>  <Name>  (570) 
nan

>  <Pocket>  (570) 
nan

>  <ATP_Site>  (570) 
nan

>  <Peripheral>  (570) 
nan

>  <Num_H_Atoms_ProtBoundConf>  (570) 
nan

>  <Num_Resolved_Atoms>  (570) 
nan

>  <Num_Not_Resolved_Atoms>  (570) 
nan

$$$$
CHEMBL1519490
     RDKit          3D

  0  0  0  0  0  0  0  0  0  0999 V3000
M  V30 BEGIN CTAB
M  V30 COUNTS 60 64 0 0 0
M  V30 BEGIN ATOM
M  V30 1 C 1.125708 -2.760757 4.052601 0
M  V30 2 C 2.062650 -1.736048 3.397079 0 CFG=2
M  V30 3 C 1.690414 -0.345311 3.765920 0
M  V30 4 C 1.291570 0.571029 2.666354 0
M  V30 5 C 0.486448 -0.224300 1.651879 0 CFG=1
M  V30 6 C -0.158642 0.625288 0.648893 0
M  V30 7 O -0.595356 1.779995 0.946558 0
M  V30 8 N -0.309922 0.181510 -0.669922 0
M  V30 9 C 0.623325 -0.755081 -1.253851 0 CFG=1
M  V30 10 C 1.128656 -0.162286 -2.527413 0
M  V30 11 C 0.722574 1.293696 -2.681705 0
M  V30 12 C -0.773461 1.499212 -2.581602 0 CFG=1
M  V30 13 C -1.371850 1.220017 -3.944747 0
M  V30 14 C -1.393006 0.623139 -1.525058 0 CFG=2
M  V30 15 C -2.532203 1.205542 -0.822582 0
M  V30 16 C -2.944616 0.480045 0.301613 0
M  V30 17 C -4.010251 0.909354 1.065985 0
M  V30 18 C -4.720489 2.056159 0.775821 0
M  V30 19 Br -6.172159 2.577200 1.876422 0
M  V30 20 C -4.308570 2.765543 -0.332859 0
M  V30 21 C -3.245320 2.349760 -1.107188 0
M  V30 22 C 1.691696 -1.154416 -0.313848 0
M  V30 23 O 2.823867 -1.505668 -0.752246 0
M  V30 24 N 1.451687 -1.145658 1.089591 0
M  V30 25 C 2.160824 -2.045358 1.955972 0 CFG=2
M  V30 26 C 1.708634 -3.423266 1.617908 0
M  V30 27 C 2.604534 -4.459854 1.474625 0
M  V30 28 C 2.163594 -5.741870 1.158315 0
M  V30 29 C 0.844631 -6.035613 0.976468 0
M  V30 30 Br 0.189565 -7.776230 0.541886 0
M  V30 31 C -0.071173 -5.017735 1.113930 0
M  V30 32 C 0.382197 -3.752985 1.427626 0
M  V30 33 H 0.054007 -2.502005 3.843520 0
M  V30 34 H 1.408152 -3.772279 3.746954 0
M  V30 35 H 1.229914 -2.651858 5.153251 0
M  V30 36 H 3.048545 -1.953888 3.880212 0
M  V30 37 H 0.813729 -0.398821 4.473908 0
M  V30 38 H 2.472454 0.176437 4.375370 0
M  V30 39 H 2.170616 0.972471 2.114662 0
M  V30 40 H 0.681424 1.395812 3.095477 0
M  V30 41 H -0.311732 -0.705989 2.241693 0
M  V30 42 H 0.047282 -1.679964 -1.483808 0
M  V30 43 H 2.247214 -0.143386 -2.444434 0
M  V30 44 H 0.828092 -0.769185 -3.389934 0
M  V30 45 H 1.015160 1.558208 -3.739335 0
M  V30 46 H 1.307752 1.959237 -2.046050 0
M  V30 47 H -0.918588 2.584542 -2.404572 0
M  V30 48 H -2.252992 0.533734 -3.784962 0
M  V30 49 H -1.780085 2.121176 -4.435403 0
M  V30 50 H -0.644961 0.737252 -4.627271 0
M  V30 51 H -1.753215 -0.299312 -2.062858 0
M  V30 52 H -2.459321 -0.441187 0.627721 0
M  V30 53 H -4.321060 0.340976 1.933319 0
M  V30 54 H -4.840705 3.670687 -0.592912 0
M  V30 55 H -2.892669 2.877711 -1.982737 0
M  V30 56 H 3.242232 -1.970616 1.634655 0
M  V30 57 H 3.677732 -4.304744 1.604489 0
M  V30 58 H 2.852410 -6.571722 1.041027 0
M  V30 59 H -1.130400 -5.209060 0.977562 0
M  V30 60 H -0.379870 -2.994243 1.522901 0
M  V30 END ATOM
M  V30 BEGIN BOND
M  V30 1 1 1 2
M  V30 2 1 2 3
M  V30 3 1 3 4
M  V30 4 1 4 5
M  V30 5 1 5 6
M  V30 6 2 6 7
M  V30 7 1 6 8
M  V30 8 1 8 9
M  V30 9 1 9 10
M  V30 10 1 10 11
M  V30 11 1 11 12
M  V30 12 1 12 13
M  V30 13 1 12 14
M  V30 14 1 14 15
M  V30 15 2 15 16
M  V30 16 1 16 17
M  V30 17 2 17 18
M  V30 18 1 18 19
M  V30 19 1 18 20
M  V30 20 2 20 21
M  V30 21 1 9 22
M  V30 22 2 22 23
M  V30 23 1 22 24
M  V30 24 1 24 25
M  V30 25 1 25 26
M  V30 26 2 26 27
M  V30 27 1 27 28
M  V30 28 2 28 29
M  V30 29 1 29 30
M  V30 30 1 29 31
M  V30 31 2 31 32
M  V30 32 1 25 2
M  V30 33 1 32 26
M  V30 34 1 24 5
M  V30 35 1 14 8
M  V30 36 1 21 15
M  V30 37 1 1 33
M  V30 38 1 1 34
M  V30 39 1 1 35
M  V30 40 1 2 36 CFG=1
M  V30 41 1 3 37
M  V30 42 1 3 38
M  V30 43 1 4 39
M  V30 44 1 4 40
M  V30 45 1 5 41 CFG=1
M  V30 46 1 9 42 CFG=3
M  V30 47 1 10 43
M  V30 48 1 10 44
M  V30 49 1 11 45
M  V30 50 1 11 46
M  V30 51 1 12 47 CFG=1
M  V30 52 1 13 48
M  V30 53 1 13 49
M  V30 54 1 13 50
M  V30 55 1 14 51 CFG=3
M  V30 56 1 16 52
M  V30 57 1 17 53
M  V30 58 1 20 54
M  V30 59 1 21 55
M  V30 60 1 25 56 CFG=3
M  V30 61 1 27 57
M  V30 62 1 28 58
M  V30 63 1 31 59
M  V30 64 1 32 60
M  V30 END BOND
M  V30 END CTAB
M  END
>  <Dataset>  (571) 
ChEMBL_Kinases

>  <Ligand_Instance>  (571) 
nan

>  <PDB_ID>  (571) 
nan

>  <Standardized_SMILES>  (571) 
C[C@@H]1CC[C@H]2C(=O)N3[C@@H](CC[C@@H](C)[C@@H]3c3ccc(Br)cc3)C(=O)N2[C@@H]1c1ccc(Br)cc1

>  <Name>  (571) 
nan

>  <Pocket>  (571) 
nan

>  <ATP_Site>  (571) 
nan

>  <Peripheral>  (571) 
nan

>  <Num_H_Atoms_ProtBoundConf>  (571) 
nan

>  <Num_Resolved_Atoms>  (571) 
nan

>  <Num_Not_Resolved_Atoms>  (571) 
nan

$$$$
CHEMBL1524331
     RDKit          3D

  0  0  0  0  0  0  0  0  0  0999 V3000
M  V30 BEGIN CTAB
M  V30 COUNTS 54 57 0 0 0
M  V30 BEGIN ATOM
M  V30 1 C -1.659170 -0.198061 -2.743318 0
M  V30 2 C -0.462797 0.044025 -2.098570 0
M  V30 3 C 0.146923 1.283658 -2.679681 0
M  V30 4 O 0.026530 2.214320 -3.531739 0
M  V30 5 C 1.426917 1.536840 -1.968907 0
M  V30 6 C 1.503747 0.528659 -1.080052 0
M  V30 7 C 2.278669 -0.142638 0.036848 0
M  V30 8 N 1.197227 -0.044126 1.037298 0
M  V30 9 C 1.364176 0.551674 2.347772 0
M  V30 10 O 0.280432 0.470235 3.007048 0
M  V30 11 C 2.592489 1.140503 2.784654 0
M  V30 12 C 3.169063 2.148569 1.992165 0
M  V30 13 C 4.354042 2.627629 2.521989 0
M  V30 14 C 4.973164 2.235591 3.675368 0
M  V30 15 C 4.319958 1.237731 4.380129 0
M  V30 16 C 3.117876 0.658963 3.966456 0
M  V30 17 C 0.055073 -0.668225 0.309169 0 CFG=1
M  V30 18 C 0.094187 -2.150269 0.659840 0
M  V30 19 C -0.951068 -2.970368 0.072961 0
M  V30 20 C -1.003234 -3.624914 -1.121089 0
M  V30 21 C -1.997163 -4.437303 -1.680285 0
M  V30 22 C -3.073085 -4.524731 -0.770602 0
M  V30 23 O -4.166500 -5.312735 -1.171845 0
M  V30 24 C -5.281980 -5.451543 -0.290924 0
M  V30 25 C -3.160172 -3.911976 0.481808 0
M  V30 26 C -2.078879 -3.157425 0.839171 0
M  V30 27 C -1.173593 -0.116969 0.835781 0
M  V30 28 O -1.148485 1.158446 0.979752 0
M  V30 29 O -1.143599 1.266784 0.990980 0
M  V30 30 C -2.262794 1.997035 1.498928 0
M  V30 31 C 0.406750 -0.502437 -1.078828 0 CFG=1
M  V30 32 H -2.027795 0.425541 -3.506653 0
M  V30 33 H -1.961608 -1.127982 -2.200400 0
M  V30 34 H 2.295531 2.207398 -1.902135 0
M  V30 35 H 3.189115 0.358224 0.308420 0
M  V30 36 H 2.382664 -1.196606 -0.265361 0
M  V30 37 H 2.761337 2.529858 1.087159 0
M  V30 38 H 4.853069 3.412492 1.947914 0
M  V30 39 H 5.897314 2.635993 4.055933 0
M  V30 40 H 4.777645 0.897992 5.295976 0
M  V30 41 H 2.613600 -0.118284 4.516596 0
M  V30 42 H 0.047887 -2.230571 1.792686 0
M  V30 43 H 1.087530 -2.616759 0.394646 0
M  V30 44 H -0.134869 -3.512836 -1.765724 0
M  V30 45 H -1.933462 -4.900868 -2.633973 0
M  V30 46 H -6.027033 -6.074270 -0.788980 0
M  V30 47 H -5.730568 -4.472148 -0.021051 0
M  V30 48 H -4.958816 -5.967210 0.647334 0
M  V30 49 H -4.036618 -4.062650 1.062347 0
M  V30 50 H -2.188499 -2.693043 1.823763 0
M  V30 51 H -2.186584 1.966683 2.601929 0
M  V30 52 H -3.233821 1.504359 1.226896 0
M  V30 53 H -2.270288 3.021631 1.079641 0
M  V30 54 H 0.930525 -1.397338 -1.550542 0
M  V30 END ATOM
M  V30 BEGIN BOND
M  V30 1 2 1 2
M  V30 2 1 2 3
M  V30 3 2 3 4
M  V30 4 1 3 5
M  V30 5 2 5 6
M  V30 6 1 6 7
M  V30 7 1 7 8
M  V30 8 1 8 9
M  V30 9 2 9 10
M  V30 10 1 9 11
M  V30 11 2 11 12
M  V30 12 1 12 13
M  V30 13 2 13 14
M  V30 14 1 14 15
M  V30 15 2 15 16
M  V30 16 1 8 17
M  V30 17 1 17 18 CFG=1
M  V30 18 1 18 19
M  V30 19 2 19 20
M  V30 20 1 20 21
M  V30 21 2 21 22
M  V30 22 1 22 23
M  V30 23 1 23 24
M  V30 24 1 22 25
M  V30 25 2 25 26
M  V30 26 1 17 27
M  V30 27 2 27 28
M  V30 28 1 27 29
M  V30 29 1 29 30
M  V30 30 1 17 31
M  V30 31 1 31 2
M  V30 32 1 31 6
M  V30 33 1 16 11
M  V30 34 1 26 19
M  V30 35 1 1 32
M  V30 36 1 1 33
M  V30 37 1 5 34
M  V30 38 1 7 35
M  V30 39 1 7 36
M  V30 40 1 12 37
M  V30 41 1 13 38
M  V30 42 1 14 39
M  V30 43 1 15 40
M  V30 44 1 16 41
M  V30 45 1 18 42
M  V30 46 1 18 43
M  V30 47 1 20 44
M  V30 48 1 21 45
M  V30 49 1 24 46
M  V30 50 1 24 47
M  V30 51 1 24 48
M  V30 52 1 25 49
M  V30 53 1 26 50
M  V30 54 1 30 51
M  V30 55 1 30 52
M  V30 56 1 30 53
M  V30 57 1 31 54 CFG=3
M  V30 END BOND
M  V30 END CTAB
M  END
>  <Dataset>  (572) 
ChEMBL_Kinases

>  <Ligand_Instance>  (572) 
nan

>  <PDB_ID>  (572) 
nan

>  <Standardized_SMILES>  (572) 
C=C1C(=O)C=C2CN(C(=O)c3ccccc3)[C@@](Cc3ccc(OC)cc3)(C(=O)OC)[C@@H]12

>  <Name>  (572) 
nan

>  <Pocket>  (572) 
nan

>  <ATP_Site>  (572) 
nan

>  <Peripheral>  (572) 
nan

>  <Num_H_Atoms_ProtBoundConf>  (572) 
nan

>  <Num_Resolved_Atoms>  (572) 
nan

>  <Num_Not_Resolved_Atoms>  (572) 
nan

$$$$
CHEMBL1517986
     RDKit          3D

  0  0  0  0  0  0  0  0  0  0999 V3000
M  V30 BEGIN CTAB
M  V30 COUNTS 45 48 0 0 0
M  V30 BEGIN ATOM
M  V30 1 O 4.672166 -1.204489 3.177879 0
M  V30 2 C 4.758563 -1.490855 1.931246 0
M  V30 3 O 5.824065 -1.962719 2.640589 0
M  V30 4 C 3.682049 -1.038191 1.088681 0
M  V30 5 C 3.804358 -1.340767 -0.248890 0
M  V30 6 C 2.811379 -0.935406 -1.111372 0
M  V30 7 C 2.947070 -1.244838 -2.446407 0
M  V30 8 C 1.927651 -0.818674 -3.271901 0
M  V30 9 C 0.812608 -0.112703 -2.803545 0
M  V30 10 C 0.798197 0.131773 -1.449848 0
M  V30 11 C 1.760707 -0.249040 -0.548948 0
M  V30 12 C 1.635938 0.057924 0.811632 0
M  V30 13 C 0.504084 0.809541 1.309871 0
M  V30 14 C -0.817063 0.226567 1.450159 0
M  V30 15 C -1.728278 1.274042 1.637392 0
M  V30 16 O -1.453642 2.648811 1.693582 0
M  V30 17 C -3.073097 1.054711 1.796139 0
M  V30 18 C -4.187766 1.954534 2.009517 0
M  V30 19 O -5.366865 2.198116 2.167771 0
M  V30 20 O -3.672880 3.267114 2.079413 0
M  V30 21 C -3.579796 -0.247768 1.775603 0
M  V30 22 C -2.728376 -1.324416 1.596056 0
M  V30 23 C -3.117187 -2.644476 1.572212 0
M  V30 24 C -2.235794 -3.692640 1.403883 0
M  V30 25 C -0.918409 -3.339651 1.258751 0
M  V30 26 C -0.522057 -2.034697 1.280625 0
M  V30 27 C -1.401746 -1.010227 1.445908 0
M  V30 28 C 2.651039 -0.360331 1.667711 0
M  V30 29 O 2.569932 -0.076303 3.025381 0
M  V30 30 H 6.299763 -2.816614 2.308271 0
M  V30 31 H 4.666736 -1.895129 -0.649726 0
M  V30 32 H 3.803624 -1.787420 -2.798871 0
M  V30 33 H 2.063685 -1.079875 -4.322810 0
M  V30 34 H 0.046884 0.194657 -3.509709 0
M  V30 35 H -0.086674 0.687703 -1.110285 0
M  V30 36 H 0.752240 1.353732 2.277999 0
M  V30 37 H 0.392983 1.726926 0.602397 0
M  V30 38 H -1.188822 3.095557 0.832725 0
M  V30 39 H -4.060644 4.035432 2.606271 0
M  V30 40 H -4.629089 -0.573745 1.889672 0
M  V30 41 H -4.164952 -2.873623 1.692830 0
M  V30 42 H -2.602407 -4.703740 1.393972 0
M  V30 43 H -0.231046 -4.176805 1.128498 0
M  V30 44 H 0.520061 -1.926414 1.170907 0
M  V30 45 H 2.889639 0.871412 3.268913 0
M  V30 END ATOM
M  V30 BEGIN BOND
M  V30 1 2 1 2
M  V30 2 1 2 3
M  V30 3 1 2 4
M  V30 4 2 4 5
M  V30 5 1 5 6
M  V30 6 2 6 7
M  V30 7 1 7 8
M  V30 8 2 8 9
M  V30 9 1 9 10
M  V30 10 2 10 11
M  V30 11 1 11 12
M  V30 12 1 12 13
M  V30 13 1 13 14
M  V30 14 2 14 15
M  V30 15 1 15 16
M  V30 16 1 15 17
M  V30 17 1 17 18
M  V30 18 2 18 19
M  V30 19 1 18 20
M  V30 20 2 17 21
M  V30 21 1 21 22
M  V30 22 2 22 23
M  V30 23 1 23 24
M  V30 24 2 24 25
M  V30 25 1 25 26
M  V30 26 2 26 27
M  V30 27 2 12 28
M  V30 28 1 28 29
M  V30 29 1 28 4
M  V30 30 1 11 6
M  V30 31 1 27 14
M  V30 32 1 27 22
M  V30 33 1 3 30
M  V30 34 1 5 31
M  V30 35 1 7 32
M  V30 36 1 8 33
M  V30 37 1 9 34
M  V30 38 1 10 35
M  V30 39 1 13 36
M  V30 40 1 13 37
M  V30 41 1 16 38
M  V30 42 1 20 39
M  V30 43 1 21 40
M  V30 44 1 23 41
M  V30 45 1 24 42
M  V30 46 1 25 43
M  V30 47 1 26 44
M  V30 48 1 29 45
M  V30 END BOND
M  V30 END CTAB
M  END
>  <Dataset>  (573) 
ChEMBL_Kinases

>  <Ligand_Instance>  (573) 
nan

>  <PDB_ID>  (573) 
nan

>  <Standardized_SMILES>  (573) 
O=C(O)c1cc2ccccc2c(Cc2c(O)c(C(=O)O)cc3ccccc23)c1O

>  <Name>  (573) 
nan

>  <Pocket>  (573) 
nan

>  <ATP_Site>  (573) 
nan

>  <Peripheral>  (573) 
nan

>  <Num_H_Atoms_ProtBoundConf>  (573) 
nan

>  <Num_Resolved_Atoms>  (573) 
nan

>  <Num_Not_Resolved_Atoms>  (573) 
nan

$$$$
CHEMBL1518047
     RDKit          3D

  0  0  0  0  0  0  0  0  0  0999 V3000
M  V30 BEGIN CTAB
M  V30 COUNTS 54 56 0 0 0
M  V30 BEGIN ATOM
M  V30 1 C 2.172545 -4.693050 6.841837 0
M  V30 2 O 2.362054 -5.136872 5.498153 0
M  V30 3 C 2.748069 -4.164821 4.571507 0
M  V30 4 C 2.939542 -2.844589 4.922611 0
M  V30 5 C 3.319316 -1.864373 4.033475 0
M  V30 6 C 3.518700 -2.229598 2.715129 0
M  V30 7 C 3.928594 -1.301325 1.626222 0
M  V30 8 C 2.747165 -0.699889 0.956047 0
M  V30 9 O 1.874420 -1.278566 1.652678 0
M  V30 10 N 2.887643 0.208572 -0.105834 0
M  V30 11 C 1.596528 0.648533 -0.584833 0
M  V30 12 C 1.101346 1.780822 0.038966 0
M  V30 13 C -0.146547 2.260218 -0.377336 0
M  V30 14 C -0.836806 1.605480 -1.378135 0
M  V30 15 C -2.128715 2.146825 -1.771313 0
M  V30 16 O -2.530107 3.179593 -1.176191 0
M  V30 17 N -2.952246 1.585888 -2.773645 0
M  V30 18 C -4.198533 2.203216 -3.073967 0
M  V30 19 C -4.453327 3.192086 -4.002691 0
M  V30 20 C -5.737842 3.674124 -4.157022 0
M  V30 21 C -6.806730 3.215753 -3.421278 0
M  V30 22 C -6.532477 2.223173 -2.493804 0
M  V30 23 C -5.264477 1.719417 -2.313374 0
M  V30 24 C -5.101671 0.663328 -1.292615 0
M  V30 25 O -6.086382 0.231581 -0.605814 0
M  V30 26 O -3.857623 0.104972 -1.049900 0
M  V30 27 C -0.282758 0.481416 -1.956520 0
M  V30 28 C 0.942083 -0.045846 -1.595358 0
M  V30 29 C 3.327142 -3.555040 2.359570 0
M  V30 30 C 2.947253 -4.535774 3.248895 0
M  V30 31 O 2.750002 -5.862970 2.919589 0
M  V30 32 C 2.949223 -6.260754 1.570558 0
M  V30 33 H 1.411842 -3.861057 6.814684 0
M  V30 34 H 3.153786 -4.328230 7.205213 0
M  V30 35 H 1.772387 -5.513898 7.470839 0
M  V30 36 H 2.784106 -2.545836 5.963407 0
M  V30 37 H 3.473010 -0.827017 4.292501 0
M  V30 38 H 4.477977 -0.466063 2.111838 0
M  V30 39 H 4.639292 -1.769118 0.920110 0
M  V30 40 H 3.865695 0.425437 -0.384286 0
M  V30 41 H 1.648912 2.284385 0.819791 0
M  V30 42 H -0.488912 3.146065 0.140423 0
M  V30 43 H -2.628804 0.722334 -3.278924 0
M  V30 44 H -3.585442 3.521734 -4.557389 0
M  V30 45 H -5.883702 4.454827 -4.904489 0
M  V30 46 H -7.806682 3.617333 -3.567968 0
M  V30 47 H -7.374222 1.847304 -1.899248 0
M  V30 48 H -3.816765 -0.847853 -0.671737 0
M  V30 49 H -0.814990 -0.040182 -2.742564 0
M  V30 50 H 1.378675 -0.920137 -2.041535 0
M  V30 51 H 3.479726 -3.868246 1.317852 0
M  V30 52 H 2.525977 -7.281264 1.392244 0
M  V30 53 H 2.437120 -5.587551 0.849717 0
M  V30 54 H 4.046586 -6.337953 1.332620 0
M  V30 END ATOM
M  V30 BEGIN BOND
M  V30 1 1 1 2
M  V30 2 1 2 3
M  V30 3 2 3 4
M  V30 4 1 4 5
M  V30 5 2 5 6
M  V30 6 1 6 7
M  V30 7 1 7 8
M  V30 8 2 8 9
M  V30 9 1 8 10
M  V30 10 1 10 11
M  V30 11 2 11 12
M  V30 12 1 12 13
M  V30 13 2 13 14
M  V30 14 1 14 15
M  V30 15 2 15 16
M  V30 16 1 15 17
M  V30 17 1 17 18
M  V30 18 2 18 19
M  V30 19 1 19 20
M  V30 20 2 20 21
M  V30 21 1 21 22
M  V30 22 2 22 23
M  V30 23 1 23 24
M  V30 24 2 24 25
M  V30 25 1 24 26
M  V30 26 1 14 27
M  V30 27 2 27 28
M  V30 28 1 6 29
M  V30 29 2 29 30
M  V30 30 1 30 31
M  V30 31 1 31 32
M  V30 32 1 30 3
M  V30 33 1 28 11
M  V30 34 1 23 18
M  V30 35 1 1 33
M  V30 36 1 1 34
M  V30 37 1 1 35
M  V30 38 1 4 36
M  V30 39 1 5 37
M  V30 40 1 7 38
M  V30 41 1 7 39
M  V30 42 1 10 40
M  V30 43 1 12 41
M  V30 44 1 13 42
M  V30 45 1 17 43
M  V30 46 1 19 44
M  V30 47 1 20 45
M  V30 48 1 21 46
M  V30 49 1 22 47
M  V30 50 1 26 48
M  V30 51 1 27 49
M  V30 52 1 28 50
M  V30 53 1 29 51
M  V30 54 1 32 52
M  V30 55 1 32 53
M  V30 56 1 32 54
M  V30 END BOND
M  V30 END CTAB
M  END
>  <Dataset>  (574) 
ChEMBL_Kinases

>  <Ligand_Instance>  (574) 
nan

>  <PDB_ID>  (574) 
nan

>  <Standardized_SMILES>  (574) 
COc1ccc(CC(=O)Nc2ccc(C(=O)Nc3ccccc3C(=O)O)cc2)cc1OC

>  <Name>  (574) 
nan

>  <Pocket>  (574) 
nan

>  <ATP_Site>  (574) 
nan

>  <Peripheral>  (574) 
nan

>  <Num_H_Atoms_ProtBoundConf>  (574) 
nan

>  <Num_Resolved_Atoms>  (574) 
nan

>  <Num_Not_Resolved_Atoms>  (574) 
nan

$$$$
CHEMBL1518067
     RDKit          3D

  0  0  0  0  0  0  0  0  0  0999 V3000
M  V30 BEGIN CTAB
M  V30 COUNTS 38 40 0 0 0
M  V30 BEGIN ATOM
M  V30 1 C 0.741442 -6.671354 0.518862 0
M  V30 2 O 0.772062 -5.961354 1.759056 0
M  V30 3 C 0.689583 -4.579029 1.759904 0
M  V30 4 C 0.719687 -3.906459 2.952104 0
M  V30 5 C 0.637256 -2.537237 2.940158 0
M  V30 6 C 0.528215 -1.899706 1.735565 0
M  V30 7 C 0.492001 -2.510935 0.501749 0
M  V30 8 N 0.380867 -1.862363 -0.745665 0
M  V30 9 C 0.296004 -0.483477 -1.043086 0
M  V30 10 N 0.189847 -0.094956 -2.324758 0
M  V30 11 C 0.107473 1.174311 -2.669415 0
M  V30 12 C 0.123798 2.188024 -1.751612 0
M  V30 13 N 0.041698 3.492822 -2.066652 0
M  V30 14 C 0.066328 4.426451 -1.080741 0
M  V30 15 C 0.176886 3.957431 0.209715 0
M  V30 16 O 0.198038 4.845370 1.112322 0
M  V30 17 N 0.261665 2.638556 0.554426 0
M  V30 18 C 0.371591 2.316575 1.945732 0
M  V30 19 C -0.925662 2.104740 2.659463 0
M  V30 20 C -1.784349 3.264664 2.627710 0
M  V30 21 N -2.486606 4.187784 2.615629 0
M  V30 22 C 0.233730 1.742604 -0.453713 0
M  V30 23 N 0.317920 0.459778 -0.091617 0
M  V30 24 C 0.578343 -3.877240 0.583201 0
M  V30 25 H -0.276597 -6.515603 0.099738 0
M  V30 26 H 1.511694 -6.293521 -0.178595 0
M  V30 27 H 0.855639 -7.757359 0.718914 0
M  V30 28 H 0.807017 -4.453145 3.880064 0
M  V30 29 H 0.662357 -2.025270 3.884449 0
M  V30 30 H 0.468554 -0.837747 1.807741 0
M  V30 31 H 0.358840 -2.527318 -1.577986 0
M  V30 32 H 0.022441 1.421225 -3.739333 0
M  V30 33 H 0.002999 5.486325 -1.287757 0
M  V30 34 H 0.869876 3.181804 2.475171 0
M  V30 35 H 1.052646 1.473675 2.044449 0
M  V30 36 H -1.477666 1.209965 2.315949 0
M  V30 37 H -0.672325 1.895727 3.719985 0
M  V30 38 H 0.561427 -4.494892 -0.328944 0
M  V30 END ATOM
M  V30 BEGIN BOND
M  V30 1 1 1 2
M  V30 2 1 2 3
M  V30 3 2 3 4
M  V30 4 1 4 5
M  V30 5 2 5 6
M  V30 6 1 6 7
M  V30 7 1 7 8
M  V30 8 1 8 9
M  V30 9 2 9 10
M  V30 10 1 10 11
M  V30 11 2 11 12
M  V30 12 1 12 13
M  V30 13 2 13 14
M  V30 14 1 14 15
M  V30 15 2 15 16
M  V30 16 1 15 17
M  V30 17 1 17 18
M  V30 18 1 18 19
M  V30 19 1 19 20
M  V30 20 3 20 21
M  V30 21 1 17 22
M  V30 22 2 22 23
M  V30 23 2 7 24
M  V30 24 1 24 3
M  V30 25 1 23 9
M  V30 26 1 22 12
M  V30 27 1 1 25
M  V30 28 1 1 26
M  V30 29 1 1 27
M  V30 30 1 4 28
M  V30 31 1 5 29
M  V30 32 1 6 30
M  V30 33 1 8 31
M  V30 34 1 11 32
M  V30 35 1 14 33
M  V30 36 1 18 34
M  V30 37 1 18 35
M  V30 38 1 19 36
M  V30 39 1 19 37
M  V30 40 1 24 38
M  V30 END BOND
M  V30 END CTAB
M  END
>  <Dataset>  (575) 
ChEMBL_Kinases

>  <Ligand_Instance>  (575) 
nan

>  <PDB_ID>  (575) 
nan

>  <Standardized_SMILES>  (575) 
COc1cccc(Nc2ncc3ncc(=O)n(CCC#N)c3n2)c1

>  <Name>  (575) 
nan

>  <Pocket>  (575) 
nan

>  <ATP_Site>  (575) 
nan

>  <Peripheral>  (575) 
nan

>  <Num_H_Atoms_ProtBoundConf>  (575) 
nan

>  <Num_Resolved_Atoms>  (575) 
nan

>  <Num_Not_Resolved_Atoms>  (575) 
nan

$$$$
CHEMBL1518112
     RDKit          3D

  0  0  0  0  0  0  0  0  0  0999 V3000
M  V30 BEGIN CTAB
M  V30 COUNTS 51 54 0 0 0
M  V30 BEGIN ATOM
M  V30 1 O -1.006304 -4.002630 -0.999500 0
M  V30 2 C 0.151002 -3.552432 -1.271089 0
M  V30 3 C 1.482610 -3.815156 -0.686244 0
M  V30 4 C 2.524101 -4.730548 -0.616304 0
M  V30 5 C 3.479829 -4.181228 0.207836 0
M  V30 6 C 2.984294 -2.956123 0.606279 0
M  V30 7 O 1.797813 -2.769906 0.058899 0
M  V30 8 N 0.079587 -2.638794 -2.335813 0
M  V30 9 C -1.184702 -2.298494 -2.981964 0
M  V30 10 C -1.310323 -0.782240 -2.884904 0
M  V30 11 N -0.281849 -0.228226 -2.022336 0
M  V30 12 C -0.468497 0.366646 -0.747913 0
M  V30 13 C -1.686675 0.575097 -0.148949 0
M  V30 14 C -1.771778 1.154362 1.110729 0
M  V30 15 O -2.955168 1.279199 1.517587 0
M  V30 16 N -0.724602 1.557606 1.854312 0
M  V30 17 C -0.822630 2.140328 3.130653 0
M  V30 18 C 0.362252 1.982721 4.051314 0
M  V30 19 C 0.613109 0.575660 4.487058 0
M  V30 20 C -0.479303 -0.384082 4.122610 0
M  V30 21 C -1.860526 0.170095 4.279165 0
M  V30 22 C -1.969446 1.628057 3.984629 0
M  V30 23 C 0.441846 1.323079 1.204149 0
M  V30 24 O 1.534013 1.637400 1.741734 0
M  V30 25 N 0.593549 0.763102 -0.024426 0
M  V30 26 C 0.939831 -0.409602 -2.738716 0
M  V30 27 C 1.158789 -1.894504 -2.978244 0
M  V30 28 H 2.290581 -5.597439 -1.222075 0
M  V30 29 H 4.356559 -4.805854 0.352493 0
M  V30 30 H 3.613048 -2.372282 1.270166 0
M  V30 31 H -2.044068 -2.831456 -2.541229 0
M  V30 32 H -1.138883 -2.533548 -4.072953 0
M  V30 33 H -2.295957 -0.609610 -2.411474 0
M  V30 34 H -1.316134 -0.301212 -3.889309 0
M  V30 35 H -2.579851 0.286281 -0.669603 0
M  V30 36 H -1.001965 3.248292 3.059120 0
M  V30 37 H 1.246924 2.578536 3.794513 0
M  V30 38 H 0.003325 2.508543 4.996914 0
M  V30 39 H 1.563886 0.192815 4.055975 0
M  V30 40 H 0.782869 0.501306 5.594046 0
M  V30 41 H -0.396067 -1.262770 4.793999 0
M  V30 42 H -0.339938 -0.775199 3.088964 0
M  V30 43 H -2.566729 -0.384955 3.636091 0
M  V30 44 H -2.234162 -0.002849 5.329496 0
M  V30 45 H -1.815320 2.156659 4.984807 0
M  V30 46 H -2.960471 1.963444 3.672456 0
M  V30 47 H 1.542182 0.639501 -0.414462 0
M  V30 48 H 1.855218 -0.029990 -2.239788 0
M  V30 49 H 0.855389 0.114018 -3.722628 0
M  V30 50 H 2.131207 -2.241168 -2.574204 0
M  V30 51 H 1.075241 -2.077155 -4.067208 0
M  V30 END ATOM
M  V30 BEGIN BOND
M  V30 1 2 1 2
M  V30 2 1 2 3
M  V30 3 2 3 4
M  V30 4 1 4 5
M  V30 5 2 5 6
M  V30 6 1 6 7
M  V30 7 1 2 8
M  V30 8 1 8 9
M  V30 9 1 9 10
M  V30 10 1 10 11
M  V30 11 1 11 12
M  V30 12 2 12 13
M  V30 13 1 13 14
M  V30 14 2 14 15
M  V30 15 1 14 16
M  V30 16 1 16 17
M  V30 17 1 17 18
M  V30 18 1 18 19
M  V30 19 1 19 20
M  V30 20 1 20 21
M  V30 21 1 21 22
M  V30 22 1 16 23
M  V30 23 2 23 24
M  V30 24 1 23 25
M  V30 25 1 11 26
M  V30 26 1 26 27
M  V30 27 1 7 3
M  V30 28 1 27 8
M  V30 29 1 25 12
M  V30 30 1 22 17
M  V30 31 1 4 28
M  V30 32 1 5 29
M  V30 33 1 6 30
M  V30 34 1 9 31
M  V30 35 1 9 32
M  V30 36 1 10 33
M  V30 37 1 10 34
M  V30 38 1 13 35
M  V30 39 1 17 36
M  V30 40 1 18 37
M  V30 41 1 18 38
M  V30 42 1 19 39
M  V30 43 1 19 40
M  V30 44 1 20 41
M  V30 45 1 20 42
M  V30 46 1 21 43
M  V30 47 1 21 44
M  V30 48 1 22 45
M  V30 49 1 22 46
M  V30 50 1 25 47
M  V30 51 1 26 48
M  V30 52 1 26 49
M  V30 53 1 27 50
M  V30 54 1 27 51
M  V30 END BOND
M  V30 END CTAB
M  END
>  <Dataset>  (576) 
ChEMBL_Kinases

>  <Ligand_Instance>  (576) 
nan

>  <PDB_ID>  (576) 
nan

>  <Standardized_SMILES>  (576) 
O=C(c1ccco1)N1CCN(c2cc(=O)n(C3CCCCC3)c(=O)[nH]2)CC1

>  <Name>  (576) 
nan

>  <Pocket>  (576) 
nan

>  <ATP_Site>  (576) 
nan

>  <Peripheral>  (576) 
nan

>  <Num_H_Atoms_ProtBoundConf>  (576) 
nan

>  <Num_Resolved_Atoms>  (576) 
nan

>  <Num_Not_Resolved_Atoms>  (576) 
nan

$$$$
CHEMBL1518163
     RDKit          3D

  0  0  0  0  0  0  0  0  0  0999 V3000
M  V30 BEGIN CTAB
M  V30 COUNTS 50 53 0 0 0
M  V30 BEGIN ATOM
M  V30 1 O 1.537227 -1.917018 1.536841 0
M  V30 2 C 1.816832 -0.822409 0.945236 0
M  V30 3 C 3.214788 -0.506338 1.335957 0
M  V30 4 O 3.637800 0.720800 0.719423 0
M  V30 5 C 4.898963 1.237038 0.921939 0
M  V30 6 O 5.669475 0.596196 1.666661 0
M  V30 7 C 5.383195 2.476439 0.323538 0
M  V30 8 N 6.623606 2.948434 0.545917 0
M  V30 9 N 6.774695 4.084594 -0.127490 0
M  V30 10 C 5.642387 4.377760 -0.800676 0
M  V30 11 C 5.270231 5.423477 -1.638452 0
M  V30 12 C 3.994781 5.427873 -2.185143 0
M  V30 13 C 3.141000 4.387314 -1.873441 0
M  V30 14 C 3.475144 3.346244 -1.054889 0
M  V30 15 C 4.743480 3.356720 -0.520888 0
M  V30 16 N 0.870455 -0.152944 0.107058 0
M  V30 17 C -0.328058 -0.920909 0.094801 0
M  V30 18 C -1.262771 -0.616473 1.068840 0
M  V30 19 C -2.449664 -1.317973 1.120947 0
M  V30 20 C -2.651891 -2.320578 0.168300 0
M  V30 21 S -4.145043 -3.193382 0.244438 0
M  V30 22 O -5.250075 -2.287434 0.638488 0
M  V30 23 O -4.422661 -3.707451 -1.144645 0
M  V30 24 N -3.973362 -4.571535 1.262145 0
M  V30 25 C -3.637787 -4.217012 2.628143 0
M  V30 26 C -4.944021 -3.762199 3.201821 0
M  V30 27 C -5.945481 -4.680761 2.528446 0
M  V30 28 C -5.185227 -5.312756 1.410230 0
M  V30 29 C -1.703593 -2.616689 -0.806015 0
M  V30 30 C -0.511305 -1.909456 -0.855585 0
M  V30 31 H 3.877985 -1.325995 0.945236 0
M  V30 32 H 3.370373 -0.493748 2.427322 0
M  V30 33 H 7.405666 2.564736 1.128548 0
M  V30 34 H 6.021543 6.183164 -1.811455 0
M  V30 35 H 3.718459 6.243843 -2.832861 0
M  V30 36 H 2.141245 4.400738 -2.308444 0
M  V30 37 H 2.813925 2.524180 -0.802966 0
M  V30 38 H 1.304729 0.708866 -0.267427 0
M  V30 39 H -1.091225 0.153633 1.789428 0
M  V30 40 H -3.192236 -1.112050 1.855636 0
M  V30 41 H -3.337515 -5.169216 3.128478 0
M  V30 42 H -2.840217 -3.448779 2.680141 0
M  V30 43 H -4.985974 -3.925752 4.311801 0
M  V30 44 H -5.138252 -2.697337 2.957455 0
M  V30 45 H -6.833093 -4.112199 2.186068 0
M  V30 46 H -6.328747 -5.430012 3.262102 0
M  V30 47 H -5.769268 -5.405001 0.473539 0
M  V30 48 H -4.909229 -6.364919 1.706521 0
M  V30 49 H -1.877963 -3.402188 -1.541419 0
M  V30 50 H 0.268194 -2.082979 -1.580384 0
M  V30 END ATOM
M  V30 BEGIN BOND
M  V30 1 2 1 2
M  V30 2 1 2 3
M  V30 3 1 3 4
M  V30 4 1 4 5
M  V30 5 2 5 6
M  V30 6 1 5 7
M  V30 7 1 7 8
M  V30 8 1 8 9
M  V30 9 2 9 10
M  V30 10 1 10 11
M  V30 11 2 11 12
M  V30 12 1 12 13
M  V30 13 2 13 14
M  V30 14 1 14 15
M  V30 15 1 2 16
M  V30 16 1 16 17
M  V30 17 2 17 18
M  V30 18 1 18 19
M  V30 19 2 19 20
M  V30 20 1 20 21
M  V30 21 2 21 22
M  V30 22 2 21 23
M  V30 23 1 21 24
M  V30 24 1 24 25
M  V30 25 1 25 26
M  V30 26 1 26 27
M  V30 27 1 27 28
M  V30 28 1 20 29
M  V30 29 2 29 30
M  V30 30 2 15 7
M  V30 31 1 30 17
M  V30 32 1 15 10
M  V30 33 1 28 24
M  V30 34 1 3 31
M  V30 35 1 3 32
M  V30 36 1 8 33
M  V30 37 1 11 34
M  V30 38 1 12 35
M  V30 39 1 13 36
M  V30 40 1 14 37
M  V30 41 1 16 38
M  V30 42 1 18 39
M  V30 43 1 19 40
M  V30 44 1 25 41
M  V30 45 1 25 42
M  V30 46 1 26 43
M  V30 47 1 26 44
M  V30 48 1 27 45
M  V30 49 1 27 46
M  V30 50 1 28 47
M  V30 51 1 28 48
M  V30 52 1 29 49
M  V30 53 1 30 50
M  V30 END BOND
M  V30 END CTAB
M  END
>  <Dataset>  (577) 
ChEMBL_Kinases

>  <Ligand_Instance>  (577) 
nan

>  <PDB_ID>  (577) 
nan

>  <Standardized_SMILES>  (577) 
O=C(COC(=O)c1[nH]nc2ccccc12)Nc1ccc(S(=O)(=O)N2CCCC2)cc1

>  <Name>  (577) 
nan

>  <Pocket>  (577) 
nan

>  <ATP_Site>  (577) 
nan

>  <Peripheral>  (577) 
nan

>  <Num_H_Atoms_ProtBoundConf>  (577) 
nan

>  <Num_Resolved_Atoms>  (577) 
nan

>  <Num_Not_Resolved_Atoms>  (577) 
nan

$$$$
CHEMBL1518327
     RDKit          3D

  0  0  0  0  0  0  0  0  0  0999 V3000
M  V30 BEGIN CTAB
M  V30 COUNTS 57 59 0 0 0
M  V30 BEGIN ATOM
M  V30 1 C 2.678745 -2.655373 1.787829 0
M  V30 2 C 4.188564 -2.523408 1.689169 0
M  V30 3 N 4.548811 -1.199438 2.057270 0
M  V30 4 C 5.586125 -1.088244 3.025133 0
M  V30 5 C 5.101506 -0.128147 4.112694 0
M  V30 6 S 4.607874 -0.060627 0.793046 0
M  V30 7 O 5.029146 1.266066 1.316909 0
M  V30 8 O 5.587382 -0.441181 -0.277506 0
M  V30 9 C 3.004559 0.059396 0.093298 0
M  V30 10 C 2.083283 0.939995 0.613667 0
M  V30 11 C 0.777121 1.113642 0.129050 0
M  V30 12 C 0.460023 0.297381 -0.965849 0
M  V30 13 C -0.928484 0.558615 -1.379373 0
M  V30 14 O -1.499262 1.428450 -2.101541 0
M  V30 15 N -1.841366 -0.404243 -0.825824 0
M  V30 16 C -3.145925 -0.082050 -1.224464 0
M  V30 17 C -3.897571 -0.484407 -2.310379 0
M  V30 18 C -5.169661 -0.039843 -2.516052 0
M  V30 19 C -5.802458 0.851088 -1.646745 0
M  V30 20 C -7.185667 1.332304 -1.863835 0
M  V30 21 C -5.053893 1.249806 -0.569052 0
M  V30 22 C -3.756178 0.812221 -0.336743 0
M  V30 23 C -1.505504 -1.536579 0.004078 0
M  V30 24 C -2.213691 -1.442328 1.281938 0
M  V30 25 C -2.645855 -2.572275 1.842790 0
M  V30 26 S -2.151456 -3.860303 0.722309 0
M  V30 27 O -0.856169 -4.415578 1.184419 0
M  V30 28 O -3.224217 -4.854989 0.503035 0
M  V30 29 C -1.937450 -2.787642 -0.713691 0
M  V30 30 C 1.347646 -0.594740 -1.517732 0
M  V30 31 C 2.628552 -0.714913 -0.985139 0
M  V30 32 H 2.268703 -2.952309 0.817595 0
M  V30 33 H 2.380589 -3.364683 2.588934 0
M  V30 34 H 2.204695 -1.685362 2.040374 0
M  V30 35 H 4.731121 -3.312376 2.251396 0
M  V30 36 H 4.482176 -2.648395 0.612139 0
M  V30 37 H 5.760899 -2.069826 3.547223 0
M  V30 38 H 6.538957 -0.696646 2.642609 0
M  V30 39 H 5.323321 -0.493546 5.130495 0
M  V30 40 H 3.995279 0.018070 4.056219 0
M  V30 41 H 5.536113 0.894330 3.928252 0
M  V30 42 H 2.418229 1.534877 1.465646 0
M  V30 43 H 0.145077 1.836252 0.619794 0
M  V30 44 H -3.357941 -1.171505 -2.947958 0
M  V30 45 H -5.714861 -0.380370 -3.373111 0
M  V30 46 H -7.907072 0.840600 -1.166584 0
M  V30 47 H -7.539810 1.037478 -2.877654 0
M  V30 48 H -7.314423 2.414343 -1.728517 0
M  V30 49 H -5.567139 1.951591 0.104814 0
M  V30 50 H -3.327294 1.248638 0.576047 0
M  V30 51 H -0.407829 -1.602134 0.186669 0
M  V30 52 H -2.448432 -0.558555 1.862215 0
M  V30 53 H -3.178532 -2.825299 2.746286 0
M  V30 54 H -1.153802 -3.232504 -1.333057 0
M  V30 55 H -2.906832 -2.741026 -1.195361 0
M  V30 56 H 0.977869 -1.155190 -2.349940 0
M  V30 57 H 3.308420 -1.422860 -1.436145 0
M  V30 END ATOM
M  V30 BEGIN BOND
M  V30 1 1 1 2
M  V30 2 1 2 3
M  V30 3 1 3 4
M  V30 4 1 4 5
M  V30 5 1 3 6
M  V30 6 2 6 7
M  V30 7 2 6 8
M  V30 8 1 6 9
M  V30 9 2 9 10
M  V30 10 1 10 11
M  V30 11 2 11 12
M  V30 12 1 12 13
M  V30 13 2 13 14
M  V30 14 1 13 15
M  V30 15 1 15 16
M  V30 16 2 16 17
M  V30 17 1 17 18
M  V30 18 2 18 19
M  V30 19 1 19 20
M  V30 20 1 19 21
M  V30 21 2 21 22
M  V30 22 1 15 23
M  V30 23 1 23 24
M  V30 24 2 24 25
M  V30 25 1 25 26
M  V30 26 2 26 27
M  V30 27 2 26 28
M  V30 28 1 26 29
M  V30 29 1 12 30
M  V30 30 2 30 31
M  V30 31 1 31 9
M  V30 32 1 22 16
M  V30 33 1 29 23
M  V30 34 1 1 32
M  V30 35 1 1 33
M  V30 36 1 1 34
M  V30 37 1 2 35
M  V30 38 1 2 36
M  V30 39 1 4 37
M  V30 40 1 4 38
M  V30 41 1 5 39
M  V30 42 1 5 40
M  V30 43 1 5 41
M  V30 44 1 10 42
M  V30 45 1 11 43
M  V30 46 1 17 44
M  V30 47 1 18 45
M  V30 48 1 20 46
M  V30 49 1 20 47
M  V30 50 1 20 48
M  V30 51 1 21 49
M  V30 52 1 22 50
M  V30 53 1 23 51
M  V30 54 1 24 52
M  V30 55 1 25 53
M  V30 56 1 29 54
M  V30 57 1 29 55
M  V30 58 1 30 56
M  V30 59 1 31 57
M  V30 END BOND
M  V30 END CTAB
M  END
>  <Dataset>  (578) 
ChEMBL_Kinases

>  <Ligand_Instance>  (578) 
nan

>  <PDB_ID>  (578) 
nan

>  <Standardized_SMILES>  (578) 
CCN(CC)S(=O)(=O)c1ccc(C(=O)N(c2ccc(C)cc2)C2C=CS(=O)(=O)C2)cc1

>  <Name>  (578) 
nan

>  <Pocket>  (578) 
nan

>  <ATP_Site>  (578) 
nan

>  <Peripheral>  (578) 
nan

>  <Num_H_Atoms_ProtBoundConf>  (578) 
nan

>  <Num_Resolved_Atoms>  (578) 
nan

>  <Num_Not_Resolved_Atoms>  (578) 
nan

$$$$
CHEMBL1518338
     RDKit          3D

  0  0  0  0  0  0  0  0  0  0999 V3000
M  V30 BEGIN CTAB
M  V30 COUNTS 38 41 0 0 0
M  V30 BEGIN ATOM
M  V30 1 O 0.438700 -1.067358 2.439409 0
M  V30 2 C 0.326827 -0.164181 1.602200 0
M  V30 3 C 1.489562 0.546095 1.283489 0
M  V30 4 C 2.758392 0.194391 1.942258 0
M  V30 5 C 2.908694 -0.047705 3.295354 0
M  V30 6 C 4.131126 -0.371150 3.832041 0
M  V30 7 C 5.222487 -0.449286 2.971242 0
M  V30 8 F 6.389909 -0.770927 3.564948 0
M  V30 9 C 5.079593 -0.210388 1.629273 0
M  V30 10 C 3.850456 0.116539 1.078782 0
M  V30 11 N 1.450745 1.550304 0.375874 0
M  V30 12 C 0.282363 1.884934 -0.240380 0
M  V30 13 C 0.227645 2.904649 -1.166163 0
M  V30 14 N -0.954029 3.221628 -1.770263 0
M  V30 15 C -2.024793 2.494903 -1.411884 0
M  V30 16 N -1.958932 1.511614 -0.515611 0
M  V30 17 C -0.834081 1.147579 0.115090 0
M  V30 18 N -0.852433 0.150527 1.000783 0
M  V30 19 C -2.051393 -0.591096 1.337628 0
M  V30 20 C -2.261704 -1.778475 0.476617 0
M  V30 21 C -2.972974 -1.757517 -0.705597 0
M  V30 22 C -3.170793 -2.861700 -1.510065 0
M  V30 23 C -2.635221 -4.076598 -1.133736 0
M  V30 24 F -2.870990 -5.113785 -1.973059 0
M  V30 25 C -1.914912 -4.147780 0.042094 0
M  V30 26 C -1.749010 -3.015285 0.805245 0
M  V30 27 H 1.995938 0.043391 3.851412 0
M  V30 28 H 4.147481 -0.542171 4.899651 0
M  V30 29 H 5.996329 -0.302086 1.071949 0
M  V30 30 H 3.809387 0.292593 0.009933 0
M  V30 31 H 1.115273 3.473516 -1.433259 0
M  V30 32 H -3.021025 2.653604 -1.824214 0
M  V30 33 H -2.963512 0.055075 1.211129 0
M  V30 34 H -2.066167 -0.944622 2.388590 0
M  V30 35 H -3.409721 -0.825388 -1.037538 0
M  V30 36 H -3.753331 -2.746698 -2.436377 0
M  V30 37 H -1.505831 -5.110616 0.314600 0
M  V30 38 H -1.175336 -3.167663 1.700736 0
M  V30 END ATOM
M  V30 BEGIN BOND
M  V30 1 2 1 2
M  V30 2 1 2 3
M  V30 3 1 3 4
M  V30 4 2 4 5
M  V30 5 1 5 6
M  V30 6 2 6 7
M  V30 7 1 7 8
M  V30 8 1 7 9
M  V30 9 2 9 10
M  V30 10 2 3 11
M  V30 11 1 11 12
M  V30 12 2 12 13
M  V30 13 1 13 14
M  V30 14 2 14 15
M  V30 15 1 15 16
M  V30 16 2 16 17
M  V30 17 1 17 18
M  V30 18 1 18 19
M  V30 19 1 19 20
M  V30 20 2 20 21
M  V30 21 1 21 22
M  V30 22 2 22 23
M  V30 23 1 23 24
M  V30 24 1 23 25
M  V30 25 2 25 26
M  V30 26 1 18 2
M  V30 27 1 26 20
M  V30 28 1 10 4
M  V30 29 1 17 12
M  V30 30 1 5 27
M  V30 31 1 6 28
M  V30 32 1 9 29
M  V30 33 1 10 30
M  V30 34 1 13 31
M  V30 35 1 15 32
M  V30 36 1 19 33
M  V30 37 1 19 34
M  V30 38 1 21 35
M  V30 39 1 22 36
M  V30 40 1 25 37
M  V30 41 1 26 38
M  V30 END BOND
M  V30 END CTAB
M  END
>  <Dataset>  (579) 
ChEMBL_Kinases

>  <Ligand_Instance>  (579) 
nan

>  <PDB_ID>  (579) 
nan

>  <Standardized_SMILES>  (579) 
O=c1c(-c2ccc(F)cc2)nc2cncnc2n1Cc1ccc(F)cc1

>  <Name>  (579) 
nan

>  <Pocket>  (579) 
nan

>  <ATP_Site>  (579) 
nan

>  <Peripheral>  (579) 
nan

>  <Num_H_Atoms_ProtBoundConf>  (579) 
nan

>  <Num_Resolved_Atoms>  (579) 
nan

>  <Num_Not_Resolved_Atoms>  (579) 
nan

$$$$
CHEMBL1519234
     RDKit          3D

  0  0  0  0  0  0  0  0  0  0999 V3000
M  V30 BEGIN CTAB
M  V30 COUNTS 39 42 0 0 0
M  V30 BEGIN ATOM
M  V30 1 C -0.407593 -0.341953 1.333254 0
M  V30 2 C 1.029430 -0.738086 1.416307 0
M  V30 3 C 2.081158 0.142342 1.271155 0
M  V30 4 N 1.681597 1.511280 1.026583 0
M  V30 5 C 1.563569 1.723313 -0.388907 0
M  V30 6 O 1.838825 0.662259 -1.044642 0
M  V30 7 C 1.173086 3.014884 -0.950802 0
M  V30 8 C 0.884062 4.132976 -0.231777 0
M  V30 9 C 0.532244 5.268554 -0.935072 0
M  V30 10 C 0.486650 5.231866 -2.313629 0
M  V30 11 Cl 0.034845 6.697598 -3.164970 0
M  V30 12 N 0.773273 4.121064 -3.040679 0
M  V30 13 C 1.115505 3.019084 -2.337900 0
M  V30 14 C 3.402173 -0.279675 1.357662 0
M  V30 15 C 3.669785 -1.611794 1.594525 0
M  V30 16 C 2.670244 -2.550543 1.750420 0
M  V30 17 C 1.397045 -2.027751 1.646627 0
M  V30 18 C 0.217462 -2.996991 1.806222 0
M  V30 19 N -0.913652 -2.905887 1.779704 0
M  V30 20 C -1.843119 -3.825981 1.932967 0
M  V30 21 C -3.221806 -3.773830 1.910998 0
M  V30 22 C -3.957985 -4.916302 2.105173 0
M  V30 23 C -3.447135 -6.177416 2.331795 0
M  V30 24 N -2.095119 -6.225826 2.352861 0
M  V30 25 C -1.372555 -5.089932 2.159716 0
M  V30 26 S 0.483782 -4.833356 2.131791 0
M  V30 27 H -0.939048 -0.495430 2.284619 0
M  V30 28 H -0.433557 0.752248 1.147332 0
M  V30 29 H -0.844880 -0.913932 0.477261 0
M  V30 30 H 1.485065 2.297144 1.692154 0
M  V30 31 H 0.945205 4.070919 0.837912 0
M  V30 32 H 0.299476 6.165907 -0.377768 0
M  V30 33 H 1.334757 2.158697 -2.968918 0
M  V30 34 H 4.173725 0.472605 1.232455 0
M  V30 35 H 4.717678 -1.936760 1.661417 0
M  V30 36 H 2.844829 -3.600979 1.936859 0
M  V30 37 H -3.777566 -2.862364 1.745472 0
M  V30 38 H -5.060483 -4.877485 2.088112 0
M  V30 39 H -3.934005 -7.101270 2.489825 0
M  V30 END ATOM
M  V30 BEGIN BOND
M  V30 1 1 1 2
M  V30 2 2 2 3
M  V30 3 1 3 4
M  V30 4 1 4 5
M  V30 5 2 5 6
M  V30 6 1 5 7
M  V30 7 2 7 8
M  V30 8 1 8 9
M  V30 9 2 9 10
M  V30 10 1 10 11
M  V30 11 1 10 12
M  V30 12 2 12 13
M  V30 13 1 3 14
M  V30 14 2 14 15
M  V30 15 1 15 16
M  V30 16 2 16 17
M  V30 17 1 17 18
M  V30 18 2 18 19
M  V30 19 1 19 20
M  V30 20 2 20 21
M  V30 21 1 21 22
M  V30 22 2 22 23
M  V30 23 1 23 24
M  V30 24 2 24 25
M  V30 25 1 25 26
M  V30 26 1 17 2
M  V30 27 1 26 18
M  V30 28 1 13 7
M  V30 29 1 25 20
M  V30 30 1 1 27
M  V30 31 1 1 28
M  V30 32 1 1 29
M  V30 33 1 4 30
M  V30 34 1 8 31
M  V30 35 1 9 32
M  V30 36 1 13 33
M  V30 37 1 14 34
M  V30 38 1 15 35
M  V30 39 1 16 36
M  V30 40 1 21 37
M  V30 41 1 22 38
M  V30 42 1 23 39
M  V30 END BOND
M  V30 END CTAB
M  END
>  <Dataset>  (580) 
ChEMBL_Kinases

>  <Ligand_Instance>  (580) 
nan

>  <PDB_ID>  (580) 
nan

>  <Standardized_SMILES>  (580) 
Cc1c(NC(=O)c2ccc(Cl)nc2)cccc1-c1nc2cccnc2s1

>  <Name>  (580) 
nan

>  <Pocket>  (580) 
nan

>  <ATP_Site>  (580) 
nan

>  <Peripheral>  (580) 
nan

>  <Num_H_Atoms_ProtBoundConf>  (580) 
nan

>  <Num_Resolved_Atoms>  (580) 
nan

>  <Num_Not_Resolved_Atoms>  (580) 
nan

$$$$
CHEMBL1518610
     RDKit          3D

  0  0  0  0  0  0  0  0  0  0999 V3000
M  V30 BEGIN CTAB
M  V30 COUNTS 56 58 0 0 0
M  V30 BEGIN ATOM
M  V30 1 C -0.052635 0.131858 3.527701 0
M  V30 2 O 1.147326 0.487848 2.909351 0
M  V30 3 C 2.257237 -0.323290 2.919683 0
M  V30 4 C 2.292662 -1.553352 3.538792 0
M  V30 5 C 3.485558 -2.256436 3.461434 0
M  V30 6 C 4.615294 -1.806245 2.814839 0
M  V30 7 C 4.535828 -0.572386 2.210221 0
M  V30 8 C 3.372279 0.148644 2.268062 0
M  V30 9 N 3.349317 1.417539 1.622226 0
M  V30 10 C 2.846662 1.339286 0.283546 0
M  V30 11 O 2.532963 0.134054 -0.011386 0
M  V30 12 C 2.732697 2.529446 -0.579586 0
M  V30 13 S 1.273062 3.526089 -0.245306 0
M  V30 14 C -0.211376 2.627512 -0.625881 0
M  V30 15 N -0.789112 1.908714 0.349817 0
M  V30 16 N -1.849976 1.333229 -0.200057 0
M  V30 17 C -1.933195 1.682477 -1.485326 0
M  V30 18 C -2.884537 1.312025 -2.562028 0
M  V30 19 C -3.907740 0.337844 -1.948680 0
M  V30 20 N -3.110575 -0.753110 -1.418158 0
M  V30 21 C -3.610597 -1.906689 -0.782972 0
M  V30 22 O -4.862938 -2.043433 -0.662203 0
M  V30 23 C -2.832081 -3.003782 -0.226100 0
M  V30 24 C -3.460591 -4.137961 0.225897 0
M  V30 25 C -2.721740 -5.187686 0.791767 0
M  V30 26 C -1.334224 -5.038032 0.878658 0
M  V30 27 C -0.447605 -6.078573 1.475841 0
M  V30 28 C -0.695868 -3.889122 0.419990 0
M  V30 29 C -1.440343 -2.863692 -0.136061 0
M  V30 30 N -0.887417 2.511913 -1.763618 0
M  V30 31 C -0.533051 3.162881 -3.014802 0
M  V30 32 H -0.285941 -0.965636 3.398433 0
M  V30 33 H -0.901850 0.704110 3.109245 0
M  V30 34 H -0.044588 0.309066 4.623034 0
M  V30 35 H 1.406950 -1.904271 4.044857 0
M  V30 36 H 3.551585 -3.212234 3.932239 0
M  V30 37 H 5.510267 -2.412636 2.799666 0
M  V30 38 H 5.406889 -0.182346 1.690427 0
M  V30 39 H 3.638308 2.347551 1.989409 0
M  V30 40 H 3.660967 3.148878 -0.523368 0
M  V30 41 H 2.649017 2.173930 -1.644563 0
M  V30 42 H -2.322128 0.784690 -3.348970 0
M  V30 43 H -3.397207 2.177007 -3.008339 0
M  V30 44 H -4.621928 0.027344 -2.715920 0
M  V30 45 H -4.416804 0.869196 -1.115793 0
M  V30 46 H -2.077454 -0.767894 -1.468176 0
M  V30 47 H -4.531455 -4.250470 0.156161 0
M  V30 48 H -3.182933 -6.098407 1.159731 0
M  V30 49 H 0.250593 -5.542343 2.158806 0
M  V30 50 H -1.010240 -6.843995 2.020566 0
M  V30 51 H 0.200167 -6.547717 0.709006 0
M  V30 52 H 0.398302 -3.795021 0.501733 0
M  V30 53 H -0.870837 -2.009190 -0.466073 0
M  V30 54 H 0.589048 3.160285 -3.111516 0
M  V30 55 H -0.850841 4.220667 -2.947238 0
M  V30 56 H -0.999666 2.626005 -3.856174 0
M  V30 END ATOM
M  V30 BEGIN BOND
M  V30 1 1 1 2
M  V30 2 1 2 3
M  V30 3 2 3 4
M  V30 4 1 4 5
M  V30 5 2 5 6
M  V30 6 1 6 7
M  V30 7 2 7 8
M  V30 8 1 8 9
M  V30 9 1 9 10
M  V30 10 2 10 11
M  V30 11 1 10 12
M  V30 12 1 12 13
M  V30 13 1 13 14
M  V30 14 2 14 15
M  V30 15 1 15 16
M  V30 16 2 16 17
M  V30 17 1 17 18
M  V30 18 1 18 19
M  V30 19 1 19 20
M  V30 20 1 20 21
M  V30 21 2 21 22
M  V30 22 1 21 23
M  V30 23 2 23 24
M  V30 24 1 24 25
M  V30 25 2 25 26
M  V30 26 1 26 27
M  V30 27 1 26 28
M  V30 28 2 28 29
M  V30 29 1 17 30
M  V30 30 1 30 31
M  V30 31 1 8 3
M  V30 32 1 30 14
M  V30 33 1 29 23
M  V30 34 1 1 32
M  V30 35 1 1 33
M  V30 36 1 1 34
M  V30 37 1 4 35
M  V30 38 1 5 36
M  V30 39 1 6 37
M  V30 40 1 7 38
M  V30 41 1 9 39
M  V30 42 1 12 40
M  V30 43 1 12 41
M  V30 44 1 18 42
M  V30 45 1 18 43
M  V30 46 1 19 44
M  V30 47 1 19 45
M  V30 48 1 20 46
M  V30 49 1 24 47
M  V30 50 1 25 48
M  V30 51 1 27 49
M  V30 52 1 27 50
M  V30 53 1 27 51
M  V30 54 1 28 52
M  V30 55 1 29 53
M  V30 56 1 31 54
M  V30 57 1 31 55
M  V30 58 1 31 56
M  V30 END BOND
M  V30 END CTAB
M  END
>  <Dataset>  (581) 
ChEMBL_Kinases

>  <Ligand_Instance>  (581) 
nan

>  <PDB_ID>  (581) 
nan

>  <Standardized_SMILES>  (581) 
COc1ccccc1NC(=O)CSc1nnc(CCNC(=O)c2ccc(C)cc2)n1C

>  <Name>  (581) 
nan

>  <Pocket>  (581) 
nan

>  <ATP_Site>  (581) 
nan

>  <Peripheral>  (581) 
nan

>  <Num_H_Atoms_ProtBoundConf>  (581) 
nan

>  <Num_Resolved_Atoms>  (581) 
nan

>  <Num_Not_Resolved_Atoms>  (581) 
nan

$$$$
CHEMBL1518718
     RDKit          3D

  0  0  0  0  0  0  0  0  0  0999 V3000
M  V30 BEGIN CTAB
M  V30 COUNTS 35 37 0 0 0
M  V30 BEGIN ATOM
M  V30 1 C -1.329788 -2.389681 1.519650 0
M  V30 2 C -0.184645 -3.313567 1.467425 0
M  V30 3 C -0.299176 -4.568260 2.041254 0
M  V30 4 C 0.745410 -5.457849 2.057210 0
M  V30 5 C 1.922040 -5.059433 1.478913 0
M  V30 6 C 2.016775 -3.815373 0.915842 0
M  V30 7 C 0.976546 -2.888492 0.881480 0
M  V30 8 C 1.310177 -1.637708 0.251395 0
M  V30 9 C 0.501782 -0.646840 -0.230838 0
M  V30 10 C 0.868494 0.515957 -0.852872 0
M  V30 11 N -0.053546 1.469580 -1.319084 0
M  V30 12 C -0.629332 2.525124 -0.547995 0
M  V30 13 C -1.463242 3.476871 -1.081046 0
M  V30 14 C -2.009877 4.481741 -0.305429 0
M  V30 15 C -1.685018 4.501911 1.056256 0
M  V30 16 F -2.167606 5.445037 1.910338 0
M  V30 17 C -0.835081 3.540626 1.623367 0
M  V30 18 C -0.308673 2.551033 0.811905 0
M  V30 19 N 2.203216 0.717059 -1.015774 0
M  V30 20 C 3.057093 -0.227703 -0.560877 0
M  V30 21 N 2.600560 -1.335529 0.036593 0
M  V30 22 H -1.968054 -2.387142 0.620212 0
M  V30 23 H -1.098444 -1.391777 1.948271 0
M  V30 24 H -2.024100 -2.822197 2.324850 0
M  V30 25 H -1.232629 -4.862330 2.491255 0
M  V30 26 H 0.617185 -6.426871 2.512897 0
M  V30 27 H 2.727085 -5.770480 1.500887 0
M  V30 28 H 3.011569 -3.631277 0.491988 0
M  V30 29 H -0.558147 -0.769645 -0.150777 0
M  V30 30 H -0.336739 1.394780 -2.312254 0
M  V30 31 H -1.708455 3.449189 -2.145323 0
M  V30 32 H -2.672207 5.249369 -0.708392 0
M  V30 33 H -0.600812 3.583476 2.696412 0
M  V30 34 H 0.348925 1.807064 1.256830 0
M  V30 35 H 4.152876 -0.178118 -0.635276 0
M  V30 END ATOM
M  V30 BEGIN BOND
M  V30 1 1 1 2
M  V30 2 2 2 3
M  V30 3 1 3 4
M  V30 4 2 4 5
M  V30 5 1 5 6
M  V30 6 2 6 7
M  V30 7 1 7 8
M  V30 8 2 8 9
M  V30 9 1 9 10
M  V30 10 1 10 11
M  V30 11 1 11 12
M  V30 12 2 12 13
M  V30 13 1 13 14
M  V30 14 2 14 15
M  V30 15 1 15 16
M  V30 16 1 15 17
M  V30 17 2 17 18
M  V30 18 2 10 19
M  V30 19 1 19 20
M  V30 20 2 20 21
M  V30 21 1 7 2
M  V30 22 1 21 8
M  V30 23 1 18 12
M  V30 24 1 1 22
M  V30 25 1 1 23
M  V30 26 1 1 24
M  V30 27 1 3 25
M  V30 28 1 4 26
M  V30 29 1 5 27
M  V30 30 1 6 28
M  V30 31 1 9 29
M  V30 32 1 11 30
M  V30 33 1 13 31
M  V30 34 1 14 32
M  V30 35 1 17 33
M  V30 36 1 18 34
M  V30 37 1 20 35
M  V30 END BOND
M  V30 END CTAB
M  END
>  <Dataset>  (582) 
ChEMBL_Kinases

>  <Ligand_Instance>  (582) 
nan

>  <PDB_ID>  (582) 
nan

>  <Standardized_SMILES>  (582) 
Cc1ccccc1-c1cc(Nc2ccc(F)cc2)ncn1

>  <Name>  (582) 
nan

>  <Pocket>  (582) 
nan

>  <ATP_Site>  (582) 
nan

>  <Peripheral>  (582) 
nan

>  <Num_H_Atoms_ProtBoundConf>  (582) 
nan

>  <Num_Resolved_Atoms>  (582) 
nan

>  <Num_Not_Resolved_Atoms>  (582) 
nan

$$$$
CHEMBL1518739
     RDKit          3D

  0  0  0  0  0  0  0  0  0  0999 V3000
M  V30 BEGIN CTAB
M  V30 COUNTS 55 58 0 0 0
M  V30 BEGIN ATOM
M  V30 1 C 0.402097 -4.641350 4.135780 0
M  V30 2 C 1.101009 -3.787473 3.120156 0
M  V30 3 C 0.840066 -3.965608 1.767715 0
M  V30 4 C 1.463652 -3.198478 0.798112 0
M  V30 5 C 2.367835 -2.232184 1.189401 0
M  V30 6 C 3.135396 -1.316663 0.348872 0
M  V30 7 N 4.127527 -1.483697 -0.566513 0
M  V30 8 O 4.462266 -0.324510 -1.029127 0
M  V30 9 C 3.746204 0.623538 -0.473049 0
M  V30 10 C 3.818089 2.081387 -0.725095 0
M  V30 11 C 2.840102 2.870362 0.097186 0
M  V30 12 C 1.435026 2.480030 -0.165906 0
M  V30 13 O 1.227115 1.563553 -1.021898 0
M  V30 14 N 0.398269 3.142566 0.544365 0
M  V30 15 C -1.004705 2.814678 0.340747 0
M  V30 16 C -1.293580 1.394787 0.662695 0
M  V30 17 N -2.683917 1.022451 0.473954 0
M  V30 18 C -2.924137 1.074259 -0.955417 0
M  V30 19 C -3.957155 0.072159 -1.421754 0
M  V30 20 C -3.320270 -1.274418 -1.190434 0
M  V30 21 C -3.211633 -2.277347 -2.132241 0
M  V30 22 C -2.586137 -3.454169 -1.719495 0
M  V30 23 C -2.108491 -3.591607 -0.438093 0
M  V30 24 C -2.226314 -2.574583 0.493519 0
M  V30 25 C -2.842449 -1.394495 0.113482 0
M  V30 26 C -3.016460 -0.233293 1.056064 0
M  V30 27 N 2.911008 0.008218 0.393073 0
M  V30 28 C 2.644131 -2.037152 2.542211 0
M  V30 29 C 2.016719 -2.809349 3.521353 0
M  V30 30 H 1.105878 -4.740328 4.982756 0
M  V30 31 H -0.537301 -4.139328 4.491037 0
M  V30 32 H 0.155575 -5.612009 3.649253 0
M  V30 33 H 0.139292 -4.710267 1.407503 0
M  V30 34 H 1.325115 -3.265601 -0.257668 0
M  V30 35 H 4.832972 2.444782 -0.471776 0
M  V30 36 H 3.670850 2.309231 -1.800735 0
M  V30 37 H 3.026123 3.948189 -0.178543 0
M  V30 38 H 3.106003 2.822304 1.173231 0
M  V30 39 H 0.646318 3.895262 1.241359 0
M  V30 40 H -1.167247 2.981731 -0.765223 0
M  V30 41 H -1.645537 3.545925 0.829103 0
M  V30 42 H -0.739212 0.747288 -0.068990 0
M  V30 43 H -1.031073 1.147361 1.710876 0
M  V30 44 H -3.153517 2.103979 -1.298637 0
M  V30 45 H -1.975268 0.766267 -1.470625 0
M  V30 46 H -4.883232 0.209410 -0.865854 0
M  V30 47 H -4.102908 0.269202 -2.495184 0
M  V30 48 H -3.615851 -2.071224 -3.102485 0
M  V30 49 H -2.513071 -4.234589 -2.487561 0
M  V30 50 H -1.637507 -4.528570 -0.192073 0
M  V30 51 H -1.850546 -2.678813 1.506474 0
M  V30 52 H -2.430940 -0.491746 1.952093 0
M  V30 53 H -4.103854 -0.241077 1.332126 0
M  V30 54 H 3.340540 -1.301409 2.949007 0
M  V30 55 H 2.222218 -2.668518 4.578123 0
M  V30 END ATOM
M  V30 BEGIN BOND
M  V30 1 1 1 2
M  V30 2 2 2 3
M  V30 3 1 3 4
M  V30 4 2 4 5
M  V30 5 1 5 6
M  V30 6 2 6 7
M  V30 7 1 7 8
M  V30 8 1 8 9
M  V30 9 1 9 10
M  V30 10 1 10 11
M  V30 11 1 11 12
M  V30 12 2 12 13
M  V30 13 1 12 14
M  V30 14 1 14 15
M  V30 15 1 15 16
M  V30 16 1 16 17
M  V30 17 1 17 18
M  V30 18 1 18 19
M  V30 19 1 19 20
M  V30 20 2 20 21
M  V30 21 1 21 22
M  V30 22 2 22 23
M  V30 23 1 23 24
M  V30 24 2 24 25
M  V30 25 1 25 26
M  V30 26 2 9 27
M  V30 27 1 5 28
M  V30 28 2 28 29
M  V30 29 1 29 2
M  V30 30 1 27 6
M  V30 31 1 26 17
M  V30 32 1 25 20
M  V30 33 1 1 30
M  V30 34 1 1 31
M  V30 35 1 1 32
M  V30 36 1 3 33
M  V30 37 1 4 34
M  V30 38 1 10 35
M  V30 39 1 10 36
M  V30 40 1 11 37
M  V30 41 1 11 38
M  V30 42 1 14 39
M  V30 43 1 15 40
M  V30 44 1 15 41
M  V30 45 1 16 42
M  V30 46 1 16 43
M  V30 47 1 18 44
M  V30 48 1 18 45
M  V30 49 1 19 46
M  V30 50 1 19 47
M  V30 51 1 21 48
M  V30 52 1 22 49
M  V30 53 1 23 50
M  V30 54 1 24 51
M  V30 55 1 26 52
M  V30 56 1 26 53
M  V30 57 1 28 54
M  V30 58 1 29 55
M  V30 END BOND
M  V30 END CTAB
M  END
>  <Dataset>  (583) 
ChEMBL_Kinases

>  <Ligand_Instance>  (583) 
nan

>  <PDB_ID>  (583) 
nan

>  <Standardized_SMILES>  (583) 
Cc1ccc(-c2noc(CCC(=O)NCCN3CCc4ccccc4C3)n2)cc1

>  <Name>  (583) 
nan

>  <Pocket>  (583) 
nan

>  <ATP_Site>  (583) 
nan

>  <Peripheral>  (583) 
nan

>  <Num_H_Atoms_ProtBoundConf>  (583) 
nan

>  <Num_Resolved_Atoms>  (583) 
nan

>  <Num_Not_Resolved_Atoms>  (583) 
nan

$$$$
CHEMBL1518742
     RDKit          3D

  0  0  0  0  0  0  0  0  0  0999 V3000
M  V30 BEGIN CTAB
M  V30 COUNTS 39 42 0 0 0
M  V30 BEGIN ATOM
M  V30 1 C 0.823274 -4.188280 2.200953 0
M  V30 2 C 0.681474 -2.773638 1.840783 0
M  V30 3 N -0.239415 -2.069845 2.570478 0
M  V30 4 C -0.398898 -0.740476 2.264130 0
M  V30 5 C 0.340463 -0.099827 1.246241 0
M  V30 6 C 1.250840 -0.839048 0.534085 0
M  V30 7 C 1.428163 -2.175600 0.826980 0
M  V30 8 N 2.364997 -2.653839 -0.011367 0
M  V30 9 C 2.745070 -1.611027 -0.806977 0
M  V30 10 C 3.670067 -1.649012 -1.829180 0
M  V30 11 C 3.922315 -0.508461 -2.562568 0
M  V30 12 C 3.228614 0.669003 -2.251253 0
M  V30 13 C 2.321812 0.634858 -1.219721 0
M  V30 14 C 2.057423 -0.468015 -0.482578 0
M  V30 15 C 0.100040 1.354034 1.105019 0
M  V30 16 O 1.251162 1.940037 1.143468 0
M  V30 17 C -1.336387 1.807862 0.960597 0
M  V30 18 C -2.187768 0.890277 1.790395 0
M  V30 19 C -3.314220 1.615417 2.494317 0
M  V30 20 C -2.818730 -0.210594 0.959070 0
M  V30 21 C -1.328429 0.279996 2.875170 0
M  V30 22 H 1.864382 -4.567870 2.049618 0
M  V30 23 H 0.081196 -4.801750 1.619682 0
M  V30 24 H 0.588830 -4.344874 3.273127 0
M  V30 25 H 2.710384 -3.641433 -0.021675 0
M  V30 26 H 4.202033 -2.559620 -2.065360 0
M  V30 27 H 4.645723 -0.528720 -3.364460 0
M  V30 28 H 3.483951 1.514989 -2.873735 0
M  V30 29 H 1.838646 1.552994 -1.103279 0
M  V30 30 H -1.404915 2.812895 1.446575 0
M  V30 31 H -1.639708 1.897098 -0.086045 0
M  V30 32 H -2.967172 2.611475 2.824556 0
M  V30 33 H -3.689125 0.982959 3.311059 0
M  V30 34 H -4.132732 1.775340 1.764460 0
M  V30 35 H -3.663681 0.214428 0.389869 0
M  V30 36 H -2.077134 -0.703569 0.290437 0
M  V30 37 H -3.196282 -0.963373 1.701984 0
M  V30 38 H -0.671901 1.085145 3.263813 0
M  V30 39 H -1.947399 -0.180738 3.677446 0
M  V30 END ATOM
M  V30 BEGIN BOND
M  V30 1 1 1 2
M  V30 2 2 2 3
M  V30 3 1 3 4
M  V30 4 2 4 5
M  V30 5 1 5 6
M  V30 6 2 6 7
M  V30 7 1 7 8
M  V30 8 1 8 9
M  V30 9 2 9 10
M  V30 10 1 10 11
M  V30 11 2 11 12
M  V30 12 1 12 13
M  V30 13 2 13 14
M  V30 14 1 5 15
M  V30 15 2 15 16
M  V30 16 1 15 17
M  V30 17 1 17 18
M  V30 18 1 18 19
M  V30 19 1 18 20
M  V30 20 1 18 21
M  V30 21 1 7 2
M  V30 22 1 14 9
M  V30 23 1 21 4
M  V30 24 1 14 6
M  V30 25 1 1 22
M  V30 26 1 1 23
M  V30 27 1 1 24
M  V30 28 1 8 25
M  V30 29 1 10 26
M  V30 30 1 11 27
M  V30 31 1 12 28
M  V30 32 1 13 29
M  V30 33 1 17 30
M  V30 34 1 17 31
M  V30 35 1 19 32
M  V30 36 1 19 33
M  V30 37 1 19 34
M  V30 38 1 20 35
M  V30 39 1 20 36
M  V30 40 1 20 37
M  V30 41 1 21 38
M  V30 42 1 21 39
M  V30 END BOND
M  V30 END CTAB
M  END
>  <Dataset>  (584) 
ChEMBL_Kinases

>  <Ligand_Instance>  (584) 
nan

>  <PDB_ID>  (584) 
nan

>  <Standardized_SMILES>  (584) 
Cc1nc2c(c3c1[nH]c1ccccc13)C(=O)CC(C)(C)C2

>  <Name>  (584) 
nan

>  <Pocket>  (584) 
nan

>  <ATP_Site>  (584) 
nan

>  <Peripheral>  (584) 
nan

>  <Num_H_Atoms_ProtBoundConf>  (584) 
nan

>  <Num_Resolved_Atoms>  (584) 
nan

>  <Num_Not_Resolved_Atoms>  (584) 
nan

$$$$
CHEMBL1518971
     RDKit          3D

  0  0  0  0  0  0  0  0  0  0999 V3000
M  V30 BEGIN CTAB
M  V30 COUNTS 56 58 0 0 0
M  V30 BEGIN ATOM
M  V30 1 C 2.827223 -5.906182 2.665205 0
M  V30 2 C 3.040857 -4.412243 2.625681 0
M  V30 3 O 3.549917 -3.984272 1.393066 0
M  V30 4 C 3.817183 -2.638984 1.153234 0
M  V30 5 C 3.581438 -1.709169 2.134063 0
M  V30 6 C 3.848432 -0.391783 1.884835 0
M  V30 7 C 4.349726 0.051328 0.678910 0
M  V30 8 N 4.582799 1.447920 0.551014 0
M  V30 9 S 3.443763 2.643613 1.077785 0
M  V30 10 O 3.999318 3.991118 0.726838 0
M  V30 11 O 3.186707 2.554086 2.541514 0
M  V30 12 C 1.963376 2.407745 0.141963 0
M  V30 13 C 1.828370 3.086974 -1.051529 0
M  V30 14 C 0.675594 2.888667 -1.757119 0
M  V30 15 C -0.291714 2.040638 -1.271265 0
M  V30 16 N -1.449706 1.814671 -1.937338 0
M  V30 17 C -2.384678 0.981802 -1.446838 0
M  V30 18 C -2.307346 0.279650 -0.269392 0
M  V30 19 C -3.337771 -0.593162 0.240605 0
M  V30 20 O -3.004872 -0.979536 1.417422 0
M  V30 21 N -4.553619 -1.053724 -0.299059 0
M  V30 22 C -5.192605 -0.828292 -1.590219 0
M  V30 23 C -6.037403 0.399251 -1.492015 0
M  V30 24 C -5.324161 -1.919021 0.619955 0
M  V30 25 C -4.915745 -3.352069 0.404026 0
M  V30 26 C -1.137849 0.501507 0.414047 0
M  V30 27 O -0.865959 -0.112271 1.624288 0
M  V30 28 C -0.155856 1.366482 -0.085051 0
M  V30 29 C 0.995359 1.556880 0.631671 0
M  V30 30 C 4.577302 -0.910089 -0.291134 0
M  V30 31 C 4.318338 -2.239525 -0.068187 0
M  V30 32 H 2.033062 -6.179655 3.412023 0
M  V30 33 H 2.493691 -6.295337 1.675224 0
M  V30 34 H 3.747442 -6.399717 2.991750 0
M  V30 35 H 3.776962 -4.112508 3.420212 0
M  V30 36 H 2.078716 -3.929548 2.914780 0
M  V30 37 H 3.184470 -2.081121 3.081376 0
M  V30 38 H 3.622095 0.263268 2.740113 0
M  V30 39 H 5.489106 1.697038 0.117172 0
M  V30 40 H 2.570834 3.760333 -1.459943 0
M  V30 41 H 0.520916 3.397862 -2.699127 0
M  V30 42 H -3.231868 0.939097 -2.102336 0
M  V30 43 H -4.527235 -0.905242 -2.448425 0
M  V30 44 H -5.935564 -1.685243 -1.718172 0
M  V30 45 H -6.156181 0.758907 -0.437504 0
M  V30 46 H -7.065821 0.256093 -1.880442 0
M  V30 47 H -5.624212 1.260333 -2.057201 0
M  V30 48 H -6.404061 -1.755010 0.437475 0
M  V30 49 H -5.146442 -1.627751 1.666858 0
M  V30 50 H -3.853846 -3.327273 0.063035 0
M  V30 51 H -5.529027 -3.905090 -0.308050 0
M  V30 52 H -4.989387 -3.880522 1.379562 0
M  V30 53 H -0.714864 0.369828 2.490101 0
M  V30 54 H 1.164525 1.051775 1.580013 0
M  V30 55 H 4.971665 -0.526378 -1.227069 0
M  V30 56 H 4.522108 -2.932011 -0.875555 0
M  V30 END ATOM
M  V30 BEGIN BOND
M  V30 1 1 1 2
M  V30 2 1 2 3
M  V30 3 1 3 4
M  V30 4 2 4 5
M  V30 5 1 5 6
M  V30 6 2 6 7
M  V30 7 1 7 8
M  V30 8 1 8 9
M  V30 9 2 9 10
M  V30 10 2 9 11
M  V30 11 1 9 12
M  V30 12 2 12 13
M  V30 13 1 13 14
M  V30 14 2 14 15
M  V30 15 1 15 16
M  V30 16 2 16 17
M  V30 17 1 17 18
M  V30 18 1 18 19
M  V30 19 2 19 20
M  V30 20 1 19 21
M  V30 21 1 21 22
M  V30 22 1 22 23
M  V30 23 1 21 24
M  V30 24 1 24 25
M  V30 25 2 18 26
M  V30 26 1 26 27
M  V30 27 1 26 28
M  V30 28 2 28 29
M  V30 29 1 7 30
M  V30 30 2 30 31
M  V30 31 1 31 4
M  V30 32 1 29 12
M  V30 33 1 28 15
M  V30 34 1 1 32
M  V30 35 1 1 33
M  V30 36 1 1 34
M  V30 37 1 2 35
M  V30 38 1 2 36
M  V30 39 1 5 37
M  V30 40 1 6 38
M  V30 41 1 8 39
M  V30 42 1 13 40
M  V30 43 1 14 41
M  V30 44 1 17 42
M  V30 45 1 22 43
M  V30 46 1 22 44
M  V30 47 1 23 45
M  V30 48 1 23 46
M  V30 49 1 23 47
M  V30 50 1 24 48
M  V30 51 1 24 49
M  V30 52 1 25 50
M  V30 53 1 25 51
M  V30 54 1 25 52
M  V30 55 1 27 53
M  V30 56 1 29 54
M  V30 57 1 30 55
M  V30 58 1 31 56
M  V30 END BOND
M  V30 END CTAB
M  END
>  <Dataset>  (585) 
ChEMBL_Kinases

>  <Ligand_Instance>  (585) 
nan

>  <PDB_ID>  (585) 
nan

>  <Standardized_SMILES>  (585) 
CCOc1ccc(NS(=O)(=O)c2ccc3ncc(C(=O)N(CC)CC)c(O)c3c2)cc1

>  <Name>  (585) 
nan

>  <Pocket>  (585) 
nan

>  <ATP_Site>  (585) 
nan

>  <Peripheral>  (585) 
nan

>  <Num_H_Atoms_ProtBoundConf>  (585) 
nan

>  <Num_Resolved_Atoms>  (585) 
nan

>  <Num_Not_Resolved_Atoms>  (585) 
nan

$$$$
CHEMBL1519016
     RDKit          3D

  0  0  0  0  0  0  0  0  0  0999 V3000
M  V30 BEGIN CTAB
M  V30 COUNTS 40 42 0 0 0
M  V30 BEGIN ATOM
M  V30 1 C -0.177018 -4.867025 1.949483 0
M  V30 2 C 0.761765 -3.920506 1.283139 0
M  V30 3 C 2.110026 -4.085986 1.562331 0
M  V30 4 C 3.048838 -3.236656 0.974283 0
M  V30 5 C 4.493331 -3.344250 1.216186 0
M  V30 6 C 2.567853 -2.255709 0.126731 0
M  V30 7 C 3.390890 -1.356735 -0.513932 0
M  V30 8 O 4.759618 -1.421839 -0.314100 0
M  V30 9 N 2.888956 -0.401543 -1.342526 0
M  V30 10 C 1.556742 -0.317855 -1.553778 0
M  V30 11 S 0.944817 0.952423 -2.650080 0
M  V30 12 C 0.592887 2.489500 -1.708860 0
M  V30 13 C -0.514741 2.212807 -0.807382 0
M  V30 14 O -0.823080 1.031909 -1.003504 0
M  V30 15 N -1.205792 2.987086 0.138479 0
M  V30 16 C -2.267697 2.619561 0.961913 0
M  V30 17 C -2.879444 1.399432 1.030896 0
M  V30 18 C -3.931987 1.061254 1.856181 0
M  V30 19 C -4.434577 2.042986 2.709216 0
M  V30 20 C -3.846899 3.294041 2.674677 0
M  V30 21 C -2.795941 3.560646 1.821958 0
M  V30 22 N 0.684236 -1.178515 -0.949631 0
M  V30 23 C 1.221363 -2.108318 -0.137689 0
M  V30 24 N 0.355290 -2.947247 0.449900 0
M  V30 25 H -0.001712 -4.807025 3.050345 0
M  V30 26 H -1.214159 -4.583448 1.683002 0
M  V30 27 H 0.077457 -5.891430 1.610743 0
M  V30 28 H 2.475684 -4.862860 2.232304 0
M  V30 29 H 4.635240 -4.229466 1.903982 0
M  V30 30 H 5.050156 -3.664504 0.293202 0
M  V30 31 H 4.955343 -2.510784 1.743785 0
M  V30 32 H 5.316897 -0.694120 0.106011 0
M  V30 33 H 1.542512 2.768782 -1.180723 0
M  V30 34 H 0.396728 3.246253 -2.475630 0
M  V30 35 H -0.812559 3.958476 0.171994 0
M  V30 36 H -2.550775 0.603856 0.411771 0
M  V30 37 H -4.380915 0.077472 1.871454 0
M  V30 38 H -5.245999 1.866488 3.379521 0
M  V30 39 H -4.182891 4.093132 3.303160 0
M  V30 40 H -2.356964 4.571273 1.827015 0
M  V30 END ATOM
M  V30 BEGIN BOND
M  V30 1 1 1 2
M  V30 2 2 2 3
M  V30 3 1 3 4
M  V30 4 1 4 5
M  V30 5 2 4 6
M  V30 6 1 6 7
M  V30 7 1 7 8
M  V30 8 2 7 9
M  V30 9 1 9 10
M  V30 10 1 10 11
M  V30 11 1 11 12
M  V30 12 1 12 13
M  V30 13 2 13 14
M  V30 14 1 13 15
M  V30 15 1 15 16
M  V30 16 2 16 17
M  V30 17 1 17 18
M  V30 18 2 18 19
M  V30 19 1 19 20
M  V30 20 2 20 21
M  V30 21 2 10 22
M  V30 22 1 22 23
M  V30 23 2 23 24
M  V30 24 1 24 2
M  V30 25 1 23 6
M  V30 26 1 21 16
M  V30 27 1 1 25
M  V30 28 1 1 26
M  V30 29 1 1 27
M  V30 30 1 3 28
M  V30 31 1 5 29
M  V30 32 1 5 30
M  V30 33 1 5 31
M  V30 34 1 8 32
M  V30 35 1 12 33
M  V30 36 1 12 34
M  V30 37 1 15 35
M  V30 38 1 17 36
M  V30 39 1 18 37
M  V30 40 1 19 38
M  V30 41 1 20 39
M  V30 42 1 21 40
M  V30 END BOND
M  V30 END CTAB
M  END
>  <Dataset>  (586) 
ChEMBL_Kinases

>  <Ligand_Instance>  (586) 
nan

>  <PDB_ID>  (586) 
nan

>  <Standardized_SMILES>  (586) 
Cc1cc(C)c2c(O)nc(SCC(=O)Nc3ccccc3)nc2n1

>  <Name>  (586) 
nan

>  <Pocket>  (586) 
nan

>  <ATP_Site>  (586) 
nan

>  <Peripheral>  (586) 
nan

>  <Num_H_Atoms_ProtBoundConf>  (586) 
nan

>  <Num_Resolved_Atoms>  (586) 
nan

>  <Num_Not_Resolved_Atoms>  (586) 
nan

$$$$
CHEMBL1519049
     RDKit          3D

  0  0  0  0  0  0  0  0  0  0999 V3000
M  V30 BEGIN CTAB
M  V30 COUNTS 17 18 0 0 0
M  V30 BEGIN ATOM
M  V30 1 S -1.430805 -1.825839 1.521851 0
M  V30 2 C 0.297112 -1.522669 1.324971 0
M  V30 3 N 1.284945 -2.436996 1.355367 0
M  V30 4 N 2.560561 -2.132638 1.199437 0
M  V30 5 C 2.998812 -0.882722 0.995331 0
M  V30 6 C 2.035665 0.121166 0.950923 0
M  V30 7 C 2.400926 1.433385 0.745258 0
M  V30 8 C 1.461363 2.452020 0.696762 0
M  V30 9 C 0.118199 2.137628 0.860152 0
M  V30 10 C -0.185404 0.806952 1.062640 0
M  V30 11 C 0.726248 -0.221246 1.114927 0
M  V30 12 H -1.924148 -1.059309 2.616646 0
M  V30 13 H 4.044905 -0.617055 0.865333 0
M  V30 14 H 3.453564 1.645880 0.621669 0
M  V30 15 H 1.773559 3.493730 0.531464 0
M  V30 16 H -0.643639 2.904370 0.828615 0
M  V30 17 H -1.254915 0.610400 1.185678 0
M  V30 END ATOM
M  V30 BEGIN BOND
M  V30 1 1 1 2
M  V30 2 2 2 3
M  V30 3 1 3 4
M  V30 4 2 4 5
M  V30 5 1 5 6
M  V30 6 2 6 7
M  V30 7 1 7 8
M  V30 8 2 8 9
M  V30 9 1 9 10
M  V30 10 2 10 11
M  V30 11 1 11 2
M  V30 12 1 11 6
M  V30 13 1 1 12
M  V30 14 1 5 13
M  V30 15 1 7 14
M  V30 16 1 8 15
M  V30 17 1 9 16
M  V30 18 1 10 17
M  V30 END BOND
M  V30 END CTAB
M  END
>  <Dataset>  (587) 
ChEMBL_Kinases

>  <Ligand_Instance>  (587) 
nan

>  <PDB_ID>  (587) 
nan

>  <Standardized_SMILES>  (587) 
Sc1nncc2ccccc12

>  <Name>  (587) 
nan

>  <Pocket>  (587) 
nan

>  <ATP_Site>  (587) 
nan

>  <Peripheral>  (587) 
nan

>  <Num_H_Atoms_ProtBoundConf>  (587) 
nan

>  <Num_Resolved_Atoms>  (587) 
nan

>  <Num_Not_Resolved_Atoms>  (587) 
nan

$$$$
CHEMBL1519219
     RDKit          3D

  0  0  0  0  0  0  0  0  0  0999 V3000
M  V30 BEGIN CTAB
M  V30 COUNTS 40 43 0 0 0
M  V30 BEGIN ATOM
M  V30 1 O 1.810343 -3.162155 1.359099 0
M  V30 2 C 0.592243 -3.141813 1.090536 0
M  V30 3 N -0.105923 -1.935543 0.850824 0
M  V30 4 C 0.401684 -0.616611 0.867361 0
M  V30 5 C 0.416581 0.153281 2.014015 0
M  V30 6 C 0.899731 1.446844 2.089185 0
M  V30 7 C 1.403059 2.000547 0.923057 0
M  V30 8 N 1.946077 3.335008 0.819892 0
M  V30 9 C 1.046286 4.384582 0.489387 0
M  V30 10 O -0.136886 3.950963 0.333707 0
M  V30 11 C 1.547498 5.712193 0.379432 0
M  V30 12 C 0.822274 6.851902 0.067852 0
M  V30 13 C 1.459069 8.052672 0.002862 0
M  V30 14 C 2.860361 8.050881 0.266482 0
M  V30 15 S 3.207602 6.217373 0.613734 0
M  V30 16 C 1.415947 1.270790 -0.272954 0
M  V30 17 C 0.915406 -0.035125 -0.297237 0
M  V30 18 C -0.077411 -4.440879 1.036967 0
M  V30 19 C 0.657541 -5.576979 1.278998 0
M  V30 20 C 0.095585 -6.859321 1.247673 0
M  V30 21 C -1.247788 -7.009582 0.964428 0
M  V30 22 C -1.980313 -5.889477 0.724083 0
M  V30 23 C -1.416412 -4.630092 0.757471 0
M  V30 24 O -3.313561 -6.254956 0.458471 0
M  V30 25 C -3.363596 -7.653861 0.278840 0
M  V30 26 O -2.143379 -8.080536 0.844946 0
M  V30 27 H -1.126164 -1.923929 0.626338 0
M  V30 28 H 0.021963 -0.308171 2.885364 0
M  V30 29 H 0.915274 2.045572 2.964882 0
M  V30 30 H 2.961504 3.458577 0.991656 0
M  V30 31 H -0.245000 6.794444 -0.123861 0
M  V30 32 H 1.015558 9.008444 -0.227476 0
M  V30 33 H 3.531317 8.934109 0.256746 0
M  V30 34 H 1.798532 1.665471 -1.200288 0
M  V30 35 H 0.911038 -0.628708 -1.210003 0
M  V30 36 H 1.720521 -5.590282 1.512573 0
M  V30 37 H 0.686740 -7.758975 1.441329 0
M  V30 38 H -2.014051 -3.758795 0.564434 0
M  V30 39 H -3.427063 -7.902241 -0.790178 0
M  V30 40 H -4.258711 -8.024066 0.825195 0
M  V30 END ATOM
M  V30 BEGIN BOND
M  V30 1 2 1 2
M  V30 2 1 2 3
M  V30 3 1 3 4
M  V30 4 2 4 5
M  V30 5 1 5 6
M  V30 6 2 6 7
M  V30 7 1 7 8
M  V30 8 1 8 9
M  V30 9 2 9 10
M  V30 10 1 9 11
M  V30 11 2 11 12
M  V30 12 1 12 13
M  V30 13 2 13 14
M  V30 14 1 14 15
M  V30 15 1 7 16
M  V30 16 2 16 17
M  V30 17 1 2 18
M  V30 18 2 18 19
M  V30 19 1 19 20
M  V30 20 2 20 21
M  V30 21 1 21 22
M  V30 22 2 22 23
M  V30 23 1 22 24
M  V30 24 1 24 25
M  V30 25 1 25 26
M  V30 26 1 17 4
M  V30 27 1 23 18
M  V30 28 1 15 11
M  V30 29 1 26 21
M  V30 30 1 3 27
M  V30 31 1 5 28
M  V30 32 1 6 29
M  V30 33 1 8 30
M  V30 34 1 12 31
M  V30 35 1 13 32
M  V30 36 1 14 33
M  V30 37 1 16 34
M  V30 38 1 17 35
M  V30 39 1 19 36
M  V30 40 1 20 37
M  V30 41 1 23 38
M  V30 42 1 25 39
M  V30 43 1 25 40
M  V30 END BOND
M  V30 END CTAB
M  END
>  <Dataset>  (588) 
ChEMBL_Kinases

>  <Ligand_Instance>  (588) 
nan

>  <PDB_ID>  (588) 
nan

>  <Standardized_SMILES>  (588) 
O=C(Nc1ccc(NC(=O)c2cccs2)cc1)c1ccc2c(c1)OCO2

>  <Name>  (588) 
nan

>  <Pocket>  (588) 
nan

>  <ATP_Site>  (588) 
nan

>  <Peripheral>  (588) 
nan

>  <Num_H_Atoms_ProtBoundConf>  (588) 
nan

>  <Num_Resolved_Atoms>  (588) 
nan

>  <Num_Not_Resolved_Atoms>  (588) 
nan

$$$$
CHEMBL1518450
     RDKit          3D

  0  0  0  0  0  0  0  0  0  0999 V3000
M  V30 BEGIN CTAB
M  V30 COUNTS 28 29 0 0 0
M  V30 BEGIN ATOM
M  V30 1 C -1.621007 -2.308323 1.726417 0
M  V30 2 C -0.241108 -2.813113 1.850361 0
M  V30 3 C 0.057045 -4.106840 2.284702 0
M  V30 4 C 1.376557 -4.503786 2.373678 0
M  V30 5 C 2.424434 -3.647355 2.041166 0
M  V30 6 C 2.177851 -2.341544 1.600914 0
M  V30 7 C 0.840907 -2.014891 1.536743 0
M  V30 8 C 0.532974 -0.651754 1.078979 0
M  V30 9 O -0.137130 0.251125 1.667725 0
M  V30 10 N 1.000357 -0.177350 -0.179555 0
M  V30 11 C 0.578242 1.170140 -0.408025 0
M  V30 12 C -0.619535 1.471329 -1.038363 0
M  V30 13 C -1.017674 2.795175 -1.252842 0
M  V30 14 C -0.150987 3.768351 -0.801380 0
M  V30 15 Br -0.707407 5.556612 -1.099822 0
M  V30 16 C 1.046150 3.496482 -0.171638 0
M  V30 17 N 1.337355 2.207136 -0.013561 0
M  V30 18 H -1.907180 -2.203477 0.640841 0
M  V30 19 H -2.342419 -3.052687 2.120118 0
M  V30 20 H -1.787233 -1.326610 2.192438 0
M  V30 21 H -0.729820 -4.773602 2.542951 0
M  V30 22 H 1.601830 -5.522879 2.716416 0
M  V30 23 H 3.469499 -3.964307 2.112553 0
M  V30 24 H 2.937496 -1.637391 1.331382 0
M  V30 25 H 1.580436 -0.796225 -0.812663 0
M  V30 26 H -1.222321 0.626239 -1.350934 0
M  V30 27 H -1.952075 2.941007 -1.744356 0
M  V30 28 H 1.680366 4.305553 0.158363 0
M  V30 END ATOM
M  V30 BEGIN BOND
M  V30 1 1 1 2
M  V30 2 2 2 3
M  V30 3 1 3 4
M  V30 4 2 4 5
M  V30 5 1 5 6
M  V30 6 2 6 7
M  V30 7 1 7 8
M  V30 8 2 8 9
M  V30 9 1 8 10
M  V30 10 1 10 11
M  V30 11 2 11 12
M  V30 12 1 12 13
M  V30 13 2 13 14
M  V30 14 1 14 15
M  V30 15 1 14 16
M  V30 16 2 16 17
M  V30 17 1 7 2
M  V30 18 1 17 11
M  V30 19 1 1 18
M  V30 20 1 1 19
M  V30 21 1 1 20
M  V30 22 1 3 21
M  V30 23 1 4 22
M  V30 24 1 5 23
M  V30 25 1 6 24
M  V30 26 1 10 25
M  V30 27 1 12 26
M  V30 28 1 13 27
M  V30 29 1 16 28
M  V30 END BOND
M  V30 END CTAB
M  END
>  <Dataset>  (589) 
ChEMBL_Kinases

>  <Ligand_Instance>  (589) 
nan

>  <PDB_ID>  (589) 
nan

>  <Standardized_SMILES>  (589) 
Cc1ccccc1C(=O)Nc1ccc(Br)cn1

>  <Name>  (589) 
nan

>  <Pocket>  (589) 
nan

>  <ATP_Site>  (589) 
nan

>  <Peripheral>  (589) 
nan

>  <Num_H_Atoms_ProtBoundConf>  (589) 
nan

>  <Num_Resolved_Atoms>  (589) 
nan

>  <Num_Not_Resolved_Atoms>  (589) 
nan

$$$$
CHEMBL1524294
     RDKit          3D

  0  0  0  0  0  0  0  0  0  0999 V3000
M  V30 BEGIN CTAB
M  V30 COUNTS 29 32 0 0 0
M  V30 BEGIN ATOM
M  V30 1 O 1.379935 -2.504541 2.698868 0
M  V30 2 C 1.626644 -1.971687 1.592606 0
M  V30 3 C 2.937693 -2.233351 0.987306 0
M  V30 4 C 3.900558 -1.430377 1.616613 0
M  V30 5 C 5.135096 -1.709999 1.013286 0
M  V30 6 C 4.829725 -2.668416 0.055468 0
M  V30 7 O 3.552811 -2.936877 0.079138 0
M  V30 8 N 0.677981 -1.142623 0.939001 0
M  V30 9 C 0.709199 -0.431670 -0.283944 0
M  V30 10 O 1.712805 -0.426314 -1.080437 0
M  V30 11 C -0.549623 0.265918 -0.468074 0
M  V30 12 C -1.102787 1.090141 -1.421406 0
M  V30 13 C -2.376158 1.589477 -1.258801 0
M  V30 14 C -3.156578 1.287048 -0.133933 0
M  V30 15 C -2.598398 0.461890 0.817212 0
M  V30 16 C -3.257563 0.083572 1.973026 0
M  V30 17 C -2.576122 -0.760530 2.858278 0
M  V30 18 C -1.291224 -1.225206 2.629834 0
M  V30 19 C -0.599446 -0.864435 1.477698 0
M  V30 20 C -1.328126 -0.023346 0.633874 0
M  V30 21 H 3.985087 -0.674654 2.412087 0
M  V30 22 H 6.148162 -1.331133 1.174202 0
M  V30 23 H 5.475706 -3.178193 -0.652014 0
M  V30 24 H -0.484853 1.313934 -2.286979 0
M  V30 25 H -2.782442 2.233606 -2.024769 0
M  V30 26 H -4.157413 1.665313 0.017527 0
M  V30 27 H -4.256456 0.437067 2.166198 0
M  V30 28 H -3.049969 -1.092347 3.792316 0
M  V30 29 H -0.781347 -1.874668 3.324513 0
M  V30 END ATOM
M  V30 BEGIN BOND
M  V30 1 2 1 2
M  V30 2 1 2 3
M  V30 3 2 3 4
M  V30 4 1 4 5
M  V30 5 2 5 6
M  V30 6 1 6 7
M  V30 7 1 2 8
M  V30 8 1 8 9
M  V30 9 2 9 10
M  V30 10 1 9 11
M  V30 11 1 11 12
M  V30 12 2 12 13
M  V30 13 1 13 14
M  V30 14 2 14 15
M  V30 15 1 15 16
M  V30 16 2 16 17
M  V30 17 1 17 18
M  V30 18 2 18 19
M  V30 19 1 19 20
M  V30 20 1 7 3
M  V30 21 1 19 8
M  V30 22 2 20 11
M  V30 23 1 20 15
M  V30 24 1 4 21
M  V30 25 1 5 22
M  V30 26 1 6 23
M  V30 27 1 12 24
M  V30 28 1 13 25
M  V30 29 1 14 26
M  V30 30 1 16 27
M  V30 31 1 17 28
M  V30 32 1 18 29
M  V30 END BOND
M  V30 END CTAB
M  END
>  <Dataset>  (590) 
ChEMBL_Kinases

>  <Ligand_Instance>  (590) 
nan

>  <PDB_ID>  (590) 
nan

>  <Standardized_SMILES>  (590) 
O=C(c1ccco1)N1C(=O)c2cccc3cccc1c23

>  <Name>  (590) 
nan

>  <Pocket>  (590) 
nan

>  <ATP_Site>  (590) 
nan

>  <Peripheral>  (590) 
nan

>  <Num_H_Atoms_ProtBoundConf>  (590) 
nan

>  <Num_Resolved_Atoms>  (590) 
nan

>  <Num_Not_Resolved_Atoms>  (590) 
nan

$$$$
CHEMBL1524223
     RDKit          3D

  0  0  0  0  0  0  0  0  0  0999 V3000
M  V30 BEGIN CTAB
M  V30 COUNTS 37 38 0 0 0
M  V30 BEGIN ATOM
M  V30 1 O 0.497224 -0.250832 1.551514 0
M  V30 2 C 0.450165 -0.962380 2.614194 0
M  V30 3 C 0.616154 -2.143504 3.477377 0
M  V30 4 C 1.141993 -3.376740 2.798238 0
M  V30 5 S 0.131972 -4.087946 1.528171 0
M  V30 6 C -0.088590 -3.115969 0.049830 0
M  V30 7 C 1.211263 -2.893637 -0.707097 0
M  V30 8 C 0.996497 -2.096237 -1.919851 0
M  V30 9 C -0.196989 -1.586505 -2.377109 0
M  V30 10 C -0.365242 -0.841334 -3.523511 0
M  V30 11 C 0.789683 -0.600977 -4.260247 0
M  V30 12 C 2.003969 -1.116278 -3.800499 0
M  V30 13 N 2.108178 -1.841279 -2.666859 0
M  V30 14 N -0.126040 0.065211 3.455989 0
M  V30 15 C -0.430650 1.382212 2.933910 0
M  V30 16 C 0.508689 2.391447 2.977475 0
M  V30 17 C 0.128836 3.611725 2.455920 0
M  V30 18 C -1.167125 3.699011 1.937837 0
M  V30 19 C -2.100235 2.682293 1.898967 0
M  V30 20 N -1.686849 1.490306 2.424517 0
M  V30 21 H 1.281504 -1.871139 4.330383 0
M  V30 22 H -0.406495 -2.428936 3.853883 0
M  V30 23 H 2.137081 -3.116562 2.301478 0
M  V30 24 H 1.466433 -4.124153 3.571008 0
M  V30 25 H -0.653791 -2.180320 0.162365 0
M  V30 26 H -0.702197 -3.761931 -0.664342 0
M  V30 27 H 1.653255 -3.850795 -1.000410 0
M  V30 28 H 1.953260 -2.360874 -0.053312 0
M  V30 29 H -1.074903 -1.791254 -1.783171 0
M  V30 30 H -1.350802 -0.476025 -3.811835 0
M  V30 31 H 0.706922 -0.019768 -5.168993 0
M  V30 32 H 2.850796 -0.879175 -4.438829 0
M  V30 33 H -0.447218 0.203724 4.467551 0
M  V30 34 H 1.483950 2.243856 3.392661 0
M  V30 35 H 0.779037 4.469701 2.437187 0
M  V30 36 H -1.436438 4.686751 1.530136 0
M  V30 37 H -3.065651 2.891888 1.468443 0
M  V30 END ATOM
M  V30 BEGIN BOND
M  V30 1 2 1 2
M  V30 2 1 2 3
M  V30 3 1 3 4
M  V30 4 1 4 5
M  V30 5 1 5 6
M  V30 6 1 6 7
M  V30 7 1 7 8
M  V30 8 2 8 9
M  V30 9 1 9 10
M  V30 10 2 10 11
M  V30 11 1 11 12
M  V30 12 2 12 13
M  V30 13 1 2 14
M  V30 14 1 14 15
M  V30 15 2 15 16
M  V30 16 1 16 17
M  V30 17 2 17 18
M  V30 18 1 18 19
M  V30 19 2 19 20
M  V30 20 1 13 8
M  V30 21 1 20 15
M  V30 22 1 3 21
M  V30 23 1 3 22
M  V30 24 1 4 23
M  V30 25 1 4 24
M  V30 26 1 6 25
M  V30 27 1 6 26
M  V30 28 1 7 27
M  V30 29 1 7 28
M  V30 30 1 9 29
M  V30 31 1 10 30
M  V30 32 1 11 31
M  V30 33 1 12 32
M  V30 34 1 14 33
M  V30 35 1 16 34
M  V30 36 1 17 35
M  V30 37 1 18 36
M  V30 38 1 19 37
M  V30 END BOND
M  V30 END CTAB
M  END
>  <Dataset>  (591) 
ChEMBL_Kinases

>  <Ligand_Instance>  (591) 
nan

>  <PDB_ID>  (591) 
nan

>  <Standardized_SMILES>  (591) 
O=C(CCSCCc1ccccn1)Nc1ccccn1

>  <Name>  (591) 
nan

>  <Pocket>  (591) 
nan

>  <ATP_Site>  (591) 
nan

>  <Peripheral>  (591) 
nan

>  <Num_H_Atoms_ProtBoundConf>  (591) 
nan

>  <Num_Resolved_Atoms>  (591) 
nan

>  <Num_Not_Resolved_Atoms>  (591) 
nan

$$$$
CHEMBL1524133
     RDKit          3D

  0  0  0  0  0  0  0  0  0  0999 V3000
M  V30 BEGIN CTAB
M  V30 COUNTS 36 38 0 0 0
M  V30 BEGIN ATOM
M  V30 1 C 1.297533 -7.027463 2.994065 0
M  V30 2 C 1.435081 -6.443499 1.590558 0
M  V30 3 C 1.690487 -4.938178 1.686510 0
M  V30 4 C 1.822363 -4.385026 0.297832 0
M  V30 5 N 2.069221 -2.939644 0.328806 0
M  V30 6 N 3.263449 -2.338521 0.373891 0
M  V30 7 N 3.075352 -1.027871 0.389825 0
M  V30 8 C 1.755120 -0.760141 0.355265 0
M  V30 9 N 0.958835 0.421436 0.351141 0
M  V30 10 C 0.524423 1.134609 -0.791782 0
M  V30 11 O 0.874738 0.682093 -1.909858 0
M  V30 12 C -0.290691 2.337093 -0.678782 0
M  V30 13 C -0.761485 3.097720 -1.714039 0
M  V30 14 C -1.482135 4.130818 -1.114014 0
M  V30 15 C -2.201204 5.224060 -1.554489 0
M  V30 16 C -2.804429 6.062315 -0.610842 0
M  V30 17 C -2.712923 5.844833 0.749962 0
M  V30 18 C -1.996293 4.755125 1.191848 0
M  V30 19 C -1.401502 3.928594 0.261358 0
M  V30 20 O -0.689315 2.860275 0.456913 0
M  V30 21 N 1.150085 -1.965810 0.317653 0
M  V30 22 H 2.155785 -6.760901 3.643970 0
M  V30 23 H 0.360125 -6.637360 3.456945 0
M  V30 24 H 1.188665 -8.113832 2.878264 0
M  V30 25 H 2.238845 -6.952554 1.042532 0
M  V30 26 H 0.481540 -6.659814 1.066500 0
M  V30 27 H 2.604361 -4.805083 2.295966 0
M  V30 28 H 0.842137 -4.485237 2.213583 0
M  V30 29 H 0.824533 -4.520229 -0.184553 0
M  V30 30 H 2.585509 -4.905461 -0.282030 0
M  V30 31 H 0.710663 0.731436 1.319076 0
M  V30 32 H -0.641756 2.983022 -2.761794 0
M  V30 33 H -2.257259 5.370945 -2.615461 0
M  V30 34 H -3.360212 6.908630 -0.973353 0
M  V30 35 H -3.184137 6.500902 1.466094 0
M  V30 36 H -1.911843 4.565847 2.257423 0
M  V30 END ATOM
M  V30 BEGIN BOND
M  V30 1 1 1 2
M  V30 2 1 2 3
M  V30 3 1 3 4
M  V30 4 1 4 5
M  V30 5 1 5 6
M  V30 6 2 6 7
M  V30 7 1 7 8
M  V30 8 1 8 9
M  V30 9 1 9 10
M  V30 10 2 10 11
M  V30 11 1 10 12
M  V30 12 2 12 13
M  V30 13 1 13 14
M  V30 14 2 14 15
M  V30 15 1 15 16
M  V30 16 2 16 17
M  V30 17 1 17 18
M  V30 18 2 18 19
M  V30 19 1 19 20
M  V30 20 2 8 21
M  V30 21 1 21 5
M  V30 22 1 20 12
M  V30 23 1 19 14
M  V30 24 1 1 22
M  V30 25 1 1 23
M  V30 26 1 1 24
M  V30 27 1 2 25
M  V30 28 1 2 26
M  V30 29 1 3 27
M  V30 30 1 3 28
M  V30 31 1 4 29
M  V30 32 1 4 30
M  V30 33 1 9 31
M  V30 34 1 13 32
M  V30 35 1 15 33
M  V30 36 1 16 34
M  V30 37 1 17 35
M  V30 38 1 18 36
M  V30 END BOND
M  V30 END CTAB
M  END
>  <Dataset>  (592) 
ChEMBL_Kinases

>  <Ligand_Instance>  (592) 
nan

>  <PDB_ID>  (592) 
nan

>  <Standardized_SMILES>  (592) 
CCCCn1nnc(NC(=O)c2cc3ccccc3o2)n1

>  <Name>  (592) 
nan

>  <Pocket>  (592) 
nan

>  <ATP_Site>  (592) 
nan

>  <Peripheral>  (592) 
nan

>  <Num_H_Atoms_ProtBoundConf>  (592) 
nan

>  <Num_Resolved_Atoms>  (592) 
nan

>  <Num_Not_Resolved_Atoms>  (592) 
nan

$$$$
CHEMBL1524081
     RDKit          3D

  0  0  0  0  0  0  0  0  0  0999 V3000
M  V30 BEGIN CTAB
M  V30 COUNTS 28 29 0 0 0
M  V30 BEGIN ATOM
M  V30 1 F 1.236722 -5.692324 3.142507 0
M  V30 2 C 1.409141 -4.367094 2.914443 0
M  V30 3 C 0.466065 -3.716977 2.166336 0
M  V30 4 C 0.629168 -2.369573 1.927389 0
M  V30 5 C 1.671698 -1.595503 2.377654 0
M  V30 6 N 1.843711 -0.209726 2.129989 0
M  V30 7 C 0.976263 0.589476 1.341317 0
M  V30 8 S 0.573948 2.253748 1.920935 0
M  V30 9 N 0.549080 0.030582 0.253493 0
M  V30 10 C -0.309193 0.599120 -0.689661 0
M  V30 11 C -1.516684 -0.004365 -0.977140 0
M  V30 12 C -2.449419 0.442911 -1.876365 0
M  V30 13 C -2.100236 1.624758 -2.539775 0
M  V30 14 C -0.895660 2.287548 -2.297694 0
M  V30 15 C -0.013895 1.761563 -1.371172 0
M  V30 16 Cl 1.507694 2.590232 -1.057583 0
M  V30 17 C 2.593631 -2.296747 3.126212 0
M  V30 18 C 2.482078 -3.643256 3.396745 0
M  V30 19 H -0.392864 -4.261261 1.771017 0
M  V30 20 H -0.147717 -1.910457 1.335165 0
M  V30 21 H 2.689946 0.259397 2.577116 0
M  V30 22 H -0.677760 2.129481 2.590361 0
M  V30 23 H -1.751990 -0.930238 -0.434224 0
M  V30 24 H -3.378642 -0.069036 -2.063058 0
M  V30 25 H -2.827449 2.009263 -3.266176 0
M  V30 26 H -0.671080 3.198826 -2.836726 0
M  V30 27 H 3.466042 -1.800878 3.542201 0
M  V30 28 H 3.243006 -4.162457 3.999303 0
M  V30 END ATOM
M  V30 BEGIN BOND
M  V30 1 1 1 2
M  V30 2 2 2 3
M  V30 3 1 3 4
M  V30 4 2 4 5
M  V30 5 1 5 6
M  V30 6 1 6 7
M  V30 7 1 7 8
M  V30 8 2 7 9 CFG=2
M  V30 9 1 9 10
M  V30 10 2 10 11
M  V30 11 1 11 12
M  V30 12 2 12 13
M  V30 13 1 13 14
M  V30 14 2 14 15
M  V30 15 1 15 16
M  V30 16 1 5 17
M  V30 17 2 17 18
M  V30 18 1 18 2
M  V30 19 1 15 10
M  V30 20 1 3 19
M  V30 21 1 4 20
M  V30 22 1 6 21
M  V30 23 1 8 22
M  V30 24 1 11 23
M  V30 25 1 12 24
M  V30 26 1 13 25
M  V30 27 1 14 26
M  V30 28 1 17 27
M  V30 29 1 18 28
M  V30 END BOND
M  V30 END CTAB
M  END
>  <Dataset>  (593) 
ChEMBL_Kinases

>  <Ligand_Instance>  (593) 
nan

>  <PDB_ID>  (593) 
nan

>  <Standardized_SMILES>  (593) 
Fc1ccc(NC(S)=Nc2ccccc2Cl)cc1

>  <Name>  (593) 
nan

>  <Pocket>  (593) 
nan

>  <ATP_Site>  (593) 
nan

>  <Peripheral>  (593) 
nan

>  <Num_H_Atoms_ProtBoundConf>  (593) 
nan

>  <Num_Resolved_Atoms>  (593) 
nan

>  <Num_Not_Resolved_Atoms>  (593) 
nan

$$$$
CHEMBL1523978
     RDKit          3D

  0  0  0  0  0  0  0  0  0  0999 V3000
M  V30 BEGIN CTAB
M  V30 COUNTS 36 38 0 0 0
M  V30 BEGIN ATOM
M  V30 1 C -2.051626 -1.248383 1.710421 0
M  V30 2 N -1.293335 -0.027949 1.999821 0
M  V30 3 C 0.052071 -0.070774 2.161216 0
M  V30 4 C 0.901907 -1.246211 2.073261 0
M  V30 5 O 1.045075 -2.255857 2.807886 0
M  V30 6 N 1.748548 -1.279100 0.932157 0
M  V30 7 C 2.667957 -2.367951 0.662627 0
M  V30 8 C 2.244084 -3.165908 -0.551965 0
M  V30 9 C 1.314764 -2.409862 -1.450327 0
M  V30 10 C 1.621951 -0.950090 -1.497582 0
M  V30 11 C 0.483279 -0.235322 -2.175138 0
M  V30 12 O -0.224042 0.695018 -1.655418 0
M  V30 13 O 0.118782 -0.563471 -3.469293 0
M  V30 14 C 1.904869 -0.332713 -0.157392 0
M  V30 15 C 0.552688 1.183749 2.429409 0
M  V30 16 C -0.607539 2.003674 2.418114 0
M  V30 17 S -1.164861 3.691927 2.622444 0
M  V30 18 C -2.994653 3.228134 2.317613 0
M  V30 19 C -2.931483 1.880355 2.105981 0
M  V30 20 C -1.739288 1.227558 2.149053 0
M  V30 21 H -3.119026 -1.142134 1.992947 0
M  V30 22 H -1.656218 -2.109008 2.291186 0
M  V30 23 H -1.935445 -1.537846 0.639160 0
M  V30 24 H 2.673153 -3.083848 1.527706 0
M  V30 25 H 3.703406 -1.976247 0.597324 0
M  V30 26 H 1.735671 -4.110363 -0.264406 0
M  V30 27 H 3.153362 -3.435105 -1.107254 0
M  V30 28 H 0.256387 -2.658233 -1.236931 0
M  V30 29 H 1.501331 -2.803365 -2.486610 0
M  V30 30 H 2.510448 -0.822707 -2.168522 0
M  V30 31 H -0.208344 0.180559 -4.071150 0
M  V30 32 H 1.217950 0.540100 -0.036029 0
M  V30 33 H 2.916836 0.115731 -0.172684 0
M  V30 34 H 1.521507 1.565773 2.613437 0
M  V30 35 H -3.797298 3.950645 2.333647 0
M  V30 36 H -3.909201 1.442355 1.910275 0
M  V30 END ATOM
M  V30 BEGIN BOND
M  V30 1 1 1 2
M  V30 2 1 2 3
M  V30 3 1 3 4
M  V30 4 2 4 5
M  V30 5 1 4 6
M  V30 6 1 6 7
M  V30 7 1 7 8
M  V30 8 1 8 9
M  V30 9 1 9 10
M  V30 10 1 10 11
M  V30 11 2 11 12
M  V30 12 1 11 13
M  V30 13 1 10 14
M  V30 14 2 3 15
M  V30 15 1 15 16
M  V30 16 1 16 17
M  V30 17 1 17 18
M  V30 18 2 18 19
M  V30 19 1 19 20
M  V30 20 1 20 2
M  V30 21 1 14 6
M  V30 22 2 20 16
M  V30 23 1 1 21
M  V30 24 1 1 22
M  V30 25 1 1 23
M  V30 26 1 7 24
M  V30 27 1 7 25
M  V30 28 1 8 26
M  V30 29 1 8 27
M  V30 30 1 9 28
M  V30 31 1 9 29
M  V30 32 1 10 30
M  V30 33 1 13 31
M  V30 34 1 14 32
M  V30 35 1 14 33
M  V30 36 1 15 34
M  V30 37 1 18 35
M  V30 38 1 19 36
M  V30 END BOND
M  V30 END CTAB
M  END
>  <Dataset>  (594) 
ChEMBL_Kinases

>  <Ligand_Instance>  (594) 
nan

>  <PDB_ID>  (594) 
nan

>  <Standardized_SMILES>  (594) 
Cn1c(C(=O)N2CCCC(C(=O)O)C2)cc2sccc21

>  <Name>  (594) 
nan

>  <Pocket>  (594) 
nan

>  <ATP_Site>  (594) 
nan

>  <Peripheral>  (594) 
nan

>  <Num_H_Atoms_ProtBoundConf>  (594) 
nan

>  <Num_Resolved_Atoms>  (594) 
nan

>  <Num_Not_Resolved_Atoms>  (594) 
nan

$$$$
CHEMBL1523930
     RDKit          3D

  0  0  0  0  0  0  0  0  0  0999 V3000
M  V30 BEGIN CTAB
M  V30 COUNTS 60 63 0 0 0
M  V30 BEGIN ATOM
M  V30 1 C 2.604847 0.143186 6.014525 0
M  V30 2 O 2.296148 0.807575 4.820941 0
M  V30 3 C 3.092699 1.680628 4.133090 0
M  V30 4 C 4.362754 2.111375 4.437908 0
M  V30 5 C 5.067658 2.998200 3.661776 0
M  V30 6 C 4.442590 3.466297 2.519616 0
M  V30 7 C 3.148820 3.036811 2.195943 0
M  V30 8 C 2.444459 2.127752 3.004441 0
M  V30 9 O 1.225830 1.933322 2.392373 0
M  V30 10 C 0.741969 0.718076 1.950040 0
M  V30 11 C 1.091366 0.211906 0.689453 0
M  V30 12 C 2.003773 1.023149 -0.163725 0
M  V30 13 O 0.645254 -0.937397 0.245835 0
M  V30 14 C -0.157804 -1.721086 0.916761 0
M  V30 15 C -0.522699 -2.884451 0.305399 0
M  V30 16 C -0.172590 -3.403135 -1.031544 0
M  V30 17 N -0.982754 -2.827239 -2.021415 0
M  V30 18 C -0.979600 -1.459951 -2.265844 0
M  V30 19 C -1.655335 -1.032659 -3.552528 0
M  V30 20 N -2.858435 -1.768018 -3.741785 0
M  V30 21 C -3.817172 -1.705776 -2.687735 0
M  V30 22 C -4.468634 -0.365261 -2.500817 0
M  V30 23 O -3.615769 0.665810 -2.208512 0
M  V30 24 C -2.491878 -3.149187 -3.967001 0
M  V30 25 C -1.619566 -3.720796 -2.920471 0
M  V30 26 C -1.378138 -3.677063 1.078812 0
M  V30 27 O -1.834881 -4.901354 0.580197 0
M  V30 28 C -1.821759 -3.325600 2.347283 0
M  V30 29 C -1.405418 -2.129311 2.893029 0
M  V30 30 C -0.561627 -1.315922 2.167053 0
M  V30 31 C -0.107614 -0.111149 2.658158 0
M  V30 32 O -0.499234 0.211137 3.784309 0
M  V30 33 H 1.731929 0.104835 6.721588 0
M  V30 34 H 3.501826 0.591512 6.466058 0
M  V30 35 H 2.769737 -0.938996 5.750807 0
M  V30 36 H 4.774274 1.706360 5.331014 0
M  V30 37 H 6.054252 3.277277 3.980077 0
M  V30 38 H 5.049789 4.159239 1.955319 0
M  V30 39 H 2.858579 3.536327 1.257980 0
M  V30 40 H 1.970443 0.611555 -1.194530 0
M  V30 41 H 3.042909 0.928406 0.214888 0
M  V30 42 H 1.653886 2.088978 -0.219169 0
M  V30 43 H 0.910833 -3.198385 -1.275881 0
M  V30 44 H -0.268602 -4.513655 -1.042223 0
M  V30 45 H -1.426858 -0.821108 -1.477266 0
M  V30 46 H 0.082645 -1.101821 -2.385530 0
M  V30 47 H -0.968227 -1.311149 -4.383406 0
M  V30 48 H -1.758788 0.065690 -3.521487 0
M  V30 49 H -4.653696 -2.400912 -2.993252 0
M  V30 50 H -3.462573 -2.133183 -1.714426 0
M  V30 51 H -5.157555 -0.487508 -1.613429 0
M  V30 52 H -5.091854 -0.190656 -3.407673 0
M  V30 53 H -3.922946 1.331400 -1.575048 0
M  V30 54 H -2.005658 -3.252992 -4.979678 0
M  V30 55 H -3.433639 -3.732421 -4.035641 0
M  V30 56 H -2.207515 -4.446178 -2.283636 0
M  V30 57 H -0.847812 -4.364073 -3.401601 0
M  V30 58 H -1.222981 -5.710153 0.585877 0
M  V30 59 H -2.488835 -3.996880 2.890341 0
M  V30 60 H -1.744148 -1.846341 3.879232 0
M  V30 END ATOM
M  V30 BEGIN BOND
M  V30 1 1 1 2
M  V30 2 1 2 3
M  V30 3 2 3 4
M  V30 4 1 4 5
M  V30 5 2 5 6
M  V30 6 1 6 7
M  V30 7 2 7 8
M  V30 8 1 8 9
M  V30 9 1 9 10
M  V30 10 2 10 11
M  V30 11 1 11 12
M  V30 12 1 11 13
M  V30 13 1 13 14
M  V30 14 2 14 15
M  V30 15 1 15 16
M  V30 16 1 16 17
M  V30 17 1 17 18
M  V30 18 1 18 19
M  V30 19 1 19 20
M  V30 20 1 20 21
M  V30 21 1 21 22
M  V30 22 1 22 23
M  V30 23 1 20 24
M  V30 24 1 24 25
M  V30 25 1 15 26
M  V30 26 1 26 27
M  V30 27 2 26 28
M  V30 28 1 28 29
M  V30 29 2 29 30
M  V30 30 1 30 31
M  V30 31 2 31 32
M  V30 32 1 8 3
M  V30 33 1 31 10
M  V30 34 1 30 14
M  V30 35 1 25 17
M  V30 36 1 1 33
M  V30 37 1 1 34
M  V30 38 1 1 35
M  V30 39 1 4 36
M  V30 40 1 5 37
M  V30 41 1 6 38
M  V30 42 1 7 39
M  V30 43 1 12 40
M  V30 44 1 12 41
M  V30 45 1 12 42
M  V30 46 1 16 43
M  V30 47 1 16 44
M  V30 48 1 18 45
M  V30 49 1 18 46
M  V30 50 1 19 47
M  V30 51 1 19 48
M  V30 52 1 21 49
M  V30 53 1 21 50
M  V30 54 1 22 51
M  V30 55 1 22 52
M  V30 56 1 23 53
M  V30 57 1 24 54
M  V30 58 1 24 55
M  V30 59 1 25 56
M  V30 60 1 25 57
M  V30 61 1 27 58
M  V30 62 1 28 59
M  V30 63 1 29 60
M  V30 END BOND
M  V30 END CTAB
M  END
>  <Dataset>  (595) 
ChEMBL_Kinases

>  <Ligand_Instance>  (595) 
nan

>  <PDB_ID>  (595) 
nan

>  <Standardized_SMILES>  (595) 
COc1ccccc1Oc1c(C)oc2c(CN3CCN(CCO)CC3)c(O)ccc2c1=O

>  <Name>  (595) 
nan

>  <Pocket>  (595) 
nan

>  <ATP_Site>  (595) 
nan

>  <Peripheral>  (595) 
nan

>  <Num_H_Atoms_ProtBoundConf>  (595) 
nan

>  <Num_Resolved_Atoms>  (595) 
nan

>  <Num_Not_Resolved_Atoms>  (595) 
nan

$$$$
CHEMBL1523769
     RDKit          3D

  0  0  0  0  0  0  0  0  0  0999 V3000
M  V30 BEGIN CTAB
M  V30 COUNTS 36 37 0 0 0
M  V30 BEGIN ATOM
M  V30 1 C -1.430174 -2.830827 5.024287 0
M  V30 2 C 0.068362 -2.506633 5.020410 0
M  V30 3 O 0.426601 -2.097603 3.713330 0
M  V30 4 C 1.708882 -1.725640 3.346987 0
M  V30 5 O 2.548350 -1.773105 4.255576 0
M  V30 6 C 1.787750 -1.341250 1.898884 0
M  V30 7 S 0.548402 -1.280039 0.578991 0
M  V30 8 C 1.816738 -0.673527 -0.693985 0
M  V30 9 N 1.363102 -0.427400 -2.049978 0
M  V30 10 C 0.005825 -0.556158 -2.533081 0
M  V30 11 C -0.831036 0.482244 -1.818215 0
M  V30 12 C -2.221477 0.459440 -2.362012 0
M  V30 13 C -2.367965 1.821806 -2.994735 0
M  V30 14 C -1.313749 2.611171 -2.262817 0
M  V30 15 O -0.261659 1.709095 -2.151621 0
M  V30 16 N 2.770416 -0.622326 -0.064157 0
M  V30 17 C 2.929715 -0.909732 1.201682 0
M  V30 18 C 4.236145 -0.809525 1.948272 0
M  V30 19 H -1.874111 -2.773791 4.013183 0
M  V30 20 H -1.623723 -3.861853 5.391987 0
M  V30 21 H -1.983385 -2.132524 5.663288 0
M  V30 22 H 0.309912 -1.738103 5.776143 0
M  V30 23 H 0.607207 -3.460740 5.208541 0
M  V30 24 H 2.146946 -0.138650 -2.658157 0
M  V30 25 H -0.353759 -1.567888 -2.243462 0
M  V30 26 H -0.077063 -0.365126 -3.601409 0
M  V30 27 H -0.853522 0.333388 -0.720447 0
M  V30 28 H -3.000345 0.401785 -1.546977 0
M  V30 29 H -2.376117 -0.359383 -3.098086 0
M  V30 30 H -2.122351 1.699136 -4.078818 0
M  V30 31 H -3.379772 2.249316 -2.843906 0
M  V30 32 H -0.999714 3.525439 -2.771488 0
M  V30 33 H -1.699958 2.796471 -1.236611 0
M  V30 34 H 4.048546 -0.237558 2.904226 0
M  V30 35 H 4.666676 -1.806388 2.157749 0
M  V30 36 H 4.993971 -0.220393 1.421409 0
M  V30 END ATOM
M  V30 BEGIN BOND
M  V30 1 1 1 2
M  V30 2 1 2 3
M  V30 3 1 3 4
M  V30 4 2 4 5
M  V30 5 1 4 6
M  V30 6 1 6 7
M  V30 7 1 7 8
M  V30 8 1 8 9
M  V30 9 1 9 10
M  V30 10 1 10 11
M  V30 11 1 11 12
M  V30 12 1 12 13
M  V30 13 1 13 14
M  V30 14 1 14 15
M  V30 15 2 8 16
M  V30 16 1 16 17
M  V30 17 1 17 18
M  V30 18 2 17 6
M  V30 19 1 15 11
M  V30 20 1 1 19
M  V30 21 1 1 20
M  V30 22 1 1 21
M  V30 23 1 2 22
M  V30 24 1 2 23
M  V30 25 1 9 24
M  V30 26 1 10 25
M  V30 27 1 10 26
M  V30 28 1 11 27
M  V30 29 1 12 28
M  V30 30 1 12 29
M  V30 31 1 13 30
M  V30 32 1 13 31
M  V30 33 1 14 32
M  V30 34 1 14 33
M  V30 35 1 18 34
M  V30 36 1 18 35
M  V30 37 1 18 36
M  V30 END BOND
M  V30 END CTAB
M  END
>  <Dataset>  (596) 
ChEMBL_Kinases

>  <Ligand_Instance>  (596) 
nan

>  <PDB_ID>  (596) 
nan

>  <Standardized_SMILES>  (596) 
CCOC(=O)c1sc(NCC2CCCO2)nc1C

>  <Name>  (596) 
nan

>  <Pocket>  (596) 
nan

>  <ATP_Site>  (596) 
nan

>  <Peripheral>  (596) 
nan

>  <Num_H_Atoms_ProtBoundConf>  (596) 
nan

>  <Num_Resolved_Atoms>  (596) 
nan

>  <Num_Not_Resolved_Atoms>  (596) 
nan

$$$$
CHEMBL1523695
     RDKit          3D

  0  0  0  0  0  0  0  0  0  0999 V3000
M  V30 BEGIN CTAB
M  V30 COUNTS 54 57 0 0 0
M  V30 BEGIN ATOM
M  V30 1 C 0.808852 -2.861618 4.704513 0
M  V30 2 C 0.987246 -3.089942 3.216401 0
M  V30 3 O 2.250138 -2.622089 2.780535 0
M  V30 4 C 2.634637 -2.745536 1.455575 0
M  V30 5 O 1.597825 -3.307657 1.025050 0
M  V30 6 C 4.002127 -2.155707 1.349567 0
M  V30 7 C 3.971450 -0.684386 1.737451 0
M  V30 8 C 2.833498 0.013940 1.023278 0
M  V30 9 N 2.670232 -0.490831 -0.330088 0
M  V30 10 C 1.794042 0.207425 -1.213375 0
M  V30 11 O 1.597985 -0.136123 -2.434818 0
M  V30 12 C 0.979273 1.404170 -0.904896 0
M  V30 13 N -0.401144 1.059819 -0.632169 0
M  V30 14 C -0.944898 0.742395 0.546393 0
M  V30 15 C -2.252643 0.494799 0.214338 0
M  V30 16 C -3.180886 0.095246 1.236042 0
M  V30 17 O -2.938471 -0.041211 2.470186 0
M  V30 18 C -4.381811 -0.325813 1.956973 0
M  V30 19 C -5.003058 -1.606109 1.365838 0
M  V30 20 C -5.744196 -0.304826 1.386155 0
M  V30 21 C -2.547784 0.644443 -1.117383 0
M  V30 22 C -3.658679 0.521832 -1.916333 0
M  V30 23 C -3.552729 0.767037 -3.247712 0
M  V30 24 C -2.354292 1.137752 -3.823909 0
M  V30 25 C -1.248923 1.256025 -3.007276 0
M  V30 26 C -1.329089 1.009939 -1.632808 0
M  V30 27 C 3.286572 -1.654881 -0.934890 0
M  V30 28 C 4.406282 -2.209474 -0.100583 0
M  V30 29 H 1.307049 -3.648212 5.277987 0
M  V30 30 H -0.255353 -2.782197 4.956513 0
M  V30 31 H 1.319123 -1.899450 4.984974 0
M  V30 32 H 0.853479 -4.123801 2.900897 0
M  V30 33 H 0.222562 -2.434468 2.704990 0
M  V30 34 H 4.679625 -2.689043 2.013932 0
M  V30 35 H 4.943884 -0.248170 1.515934 0
M  V30 36 H 3.781249 -0.632528 2.816462 0
M  V30 37 H 1.911154 -0.165859 1.607876 0
M  V30 38 H 3.073299 1.090351 0.941636 0
M  V30 39 H 1.470437 1.901794 -0.050663 0
M  V30 40 H 0.992634 2.111779 -1.746339 0
M  V30 41 H -0.435182 0.706332 1.495013 0
M  V30 42 H -4.239673 -0.441485 3.068677 0
M  V30 43 H -4.637165 -1.975565 0.412559 0
M  V30 44 H -5.314031 -2.413875 2.078594 0
M  V30 45 H -6.582345 -0.295842 2.143636 0
M  V30 46 H -5.983684 0.245468 0.474567 0
M  V30 47 H -4.581742 0.235261 -1.465371 0
M  V30 48 H -4.420757 0.672707 -3.884203 0
M  V30 49 H -2.212213 1.345158 -4.879498 0
M  V30 50 H -0.304941 1.548016 -3.445804 0
M  V30 51 H 3.690528 -1.432077 -1.944024 0
M  V30 52 H 2.473556 -2.396702 -1.085213 0
M  V30 53 H 4.523394 -3.285484 -0.351237 0
M  V30 54 H 5.334516 -1.634181 -0.305250 0
M  V30 END ATOM
M  V30 BEGIN BOND
M  V30 1 1 1 2
M  V30 2 1 2 3
M  V30 3 1 3 4
M  V30 4 2 4 5
M  V30 5 1 4 6
M  V30 6 1 6 7
M  V30 7 1 7 8
M  V30 8 1 8 9
M  V30 9 1 9 10
M  V30 10 2 10 11
M  V30 11 1 10 12
M  V30 12 1 12 13
M  V30 13 1 13 14
M  V30 14 2 14 15
M  V30 15 1 15 16
M  V30 16 2 16 17
M  V30 17 1 16 18
M  V30 18 1 18 19
M  V30 19 1 19 20
M  V30 20 1 15 21
M  V30 21 2 21 22
M  V30 22 1 22 23
M  V30 23 2 23 24
M  V30 24 1 24 25
M  V30 25 2 25 26
M  V30 26 1 9 27
M  V30 27 1 27 28
M  V30 28 1 28 6
M  V30 29 1 26 13
M  V30 30 1 20 18
M  V30 31 1 26 21
M  V30 32 1 1 29
M  V30 33 1 1 30
M  V30 34 1 1 31
M  V30 35 1 2 32
M  V30 36 1 2 33
M  V30 37 1 6 34
M  V30 38 1 7 35
M  V30 39 1 7 36
M  V30 40 1 8 37
M  V30 41 1 8 38
M  V30 42 1 12 39
M  V30 43 1 12 40
M  V30 44 1 14 41
M  V30 45 1 18 42
M  V30 46 1 19 43
M  V30 47 1 19 44
M  V30 48 1 20 45
M  V30 49 1 20 46
M  V30 50 1 22 47
M  V30 51 1 23 48
M  V30 52 1 24 49
M  V30 53 1 25 50
M  V30 54 1 27 51
M  V30 55 1 27 52
M  V30 56 1 28 53
M  V30 57 1 28 54
M  V30 END BOND
M  V30 END CTAB
M  END
>  <Dataset>  (597) 
ChEMBL_Kinases

>  <Ligand_Instance>  (597) 
nan

>  <PDB_ID>  (597) 
nan

>  <Standardized_SMILES>  (597) 
CCOC(=O)C1CCN(C(=O)Cn2cc(C(=O)C3CC3)c3ccccc32)CC1

>  <Name>  (597) 
nan

>  <Pocket>  (597) 
nan

>  <ATP_Site>  (597) 
nan

>  <Peripheral>  (597) 
nan

>  <Num_H_Atoms_ProtBoundConf>  (597) 
nan

>  <Num_Resolved_Atoms>  (597) 
nan

>  <Num_Not_Resolved_Atoms>  (597) 
nan

$$$$
CHEMBL1523123
     RDKit          3D

  0  0  0  0  0  0  0  0  0  0999 V3000
M  V30 BEGIN CTAB
M  V30 COUNTS 52 54 0 0 0
M  V30 BEGIN ATOM
M  V30 1 C 2.453584 -3.366527 1.815886 0
M  V30 2 C 3.146369 -2.122177 1.294345 0
M  V30 3 C 2.592490 -0.872442 1.957905 0
M  V30 4 N 3.183700 0.319068 1.527044 0
M  V30 5 C 4.304184 0.859430 2.147410 0
M  V30 6 C 5.661842 0.468451 1.702938 0
M  V30 7 C 5.937748 0.798979 0.252236 0
M  V30 8 S 2.502155 1.111067 0.212494 0
M  V30 9 O 2.529510 0.251788 -1.037906 0
M  V30 10 O 3.295864 2.348682 -0.097792 0
M  V30 11 C 0.858795 1.599737 0.538022 0
M  V30 12 C 0.520908 2.820174 1.089174 0
M  V30 13 C -0.800946 3.144792 1.321343 0
M  V30 14 C -1.824570 2.272519 1.015268 0
M  V30 15 C -1.507565 1.029593 0.455830 0
M  V30 16 C -2.466297 -0.001820 0.076287 0
M  V30 17 O -2.156357 -1.124708 -0.428076 0
M  V30 18 N -3.873477 0.131961 0.228607 0
M  V30 19 C -4.515066 -1.072839 -0.246932 0
M  V30 20 C -4.854204 -1.076514 -1.583883 0
M  V30 21 C -5.470674 -2.200331 -2.098677 0
M  V30 22 C -5.715842 -3.264512 -1.245014 0
M  V30 23 C -5.381154 -3.276192 0.100659 0
M  V30 24 C -4.766467 -2.141378 0.589465 0
M  V30 25 O -5.774568 -4.505168 0.649635 0
M  V30 26 C -5.945484 -5.419307 -0.437537 0
M  V30 27 O -6.316142 -4.513631 -1.480840 0
M  V30 28 C -0.166935 0.702240 0.221195 0
M  V30 29 H 1.373193 -3.195330 1.987180 0
M  V30 30 H 2.979325 -3.664873 2.757399 0
M  V30 31 H 2.661795 -4.181227 1.080553 0
M  V30 32 H 3.022142 -1.976419 0.201294 0
M  V30 33 H 4.229991 -2.267567 1.475046 0
M  V30 34 H 1.515498 -0.854537 1.646584 0
M  V30 35 H 2.574167 -0.936614 3.055133 0
M  V30 36 H 4.203010 0.716211 3.250046 0
M  V30 37 H 4.252406 1.985036 2.035353 0
M  V30 38 H 6.382642 1.120593 2.278662 0
M  V30 39 H 5.959102 -0.559991 1.958374 0
M  V30 40 H 5.206444 0.404422 -0.450580 0
M  V30 41 H 6.983659 0.467399 0.021424 0
M  V30 42 H 5.998342 1.920647 0.144117 0
M  V30 43 H 1.325427 3.498793 1.326775 0
M  V30 44 H -1.086652 4.092976 1.751186 0
M  V30 45 H -2.884558 2.462430 1.171055 0
M  V30 46 H -4.255416 1.033476 0.642441 0
M  V30 47 H -4.659249 -0.237048 -2.250824 0
M  V30 48 H -5.731859 -2.198569 -3.136048 0
M  V30 49 H -4.482738 -2.095785 1.635309 0
M  V30 50 H -6.780850 -6.124072 -0.258689 0
M  V30 51 H -4.984175 -5.941391 -0.660451 0
M  V30 52 H 0.111295 -0.266037 -0.216738 0
M  V30 END ATOM
M  V30 BEGIN BOND
M  V30 1 1 1 2
M  V30 2 1 2 3
M  V30 3 1 3 4
M  V30 4 1 4 5
M  V30 5 1 5 6
M  V30 6 1 6 7
M  V30 7 1 4 8
M  V30 8 2 8 9
M  V30 9 2 8 10
M  V30 10 1 8 11
M  V30 11 2 11 12
M  V30 12 1 12 13
M  V30 13 2 13 14
M  V30 14 1 14 15
M  V30 15 1 15 16
M  V30 16 2 16 17
M  V30 17 1 16 18
M  V30 18 1 18 19
M  V30 19 2 19 20
M  V30 20 1 20 21
M  V30 21 2 21 22
M  V30 22 1 22 23
M  V30 23 2 23 24
M  V30 24 1 23 25
M  V30 25 1 25 26
M  V30 26 1 26 27
M  V30 27 2 15 28
M  V30 28 1 28 11
M  V30 29 1 24 19
M  V30 30 1 27 22
M  V30 31 1 1 29
M  V30 32 1 1 30
M  V30 33 1 1 31
M  V30 34 1 2 32
M  V30 35 1 2 33
M  V30 36 1 3 34
M  V30 37 1 3 35
M  V30 38 1 5 36
M  V30 39 1 5 37
M  V30 40 1 6 38
M  V30 41 1 6 39
M  V30 42 1 7 40
M  V30 43 1 7 41
M  V30 44 1 7 42
M  V30 45 1 12 43
M  V30 46 1 13 44
M  V30 47 1 14 45
M  V30 48 1 18 46
M  V30 49 1 20 47
M  V30 50 1 21 48
M  V30 51 1 24 49
M  V30 52 1 26 50
M  V30 53 1 26 51
M  V30 54 1 28 52
M  V30 END BOND
M  V30 END CTAB
M  END
>  <Dataset>  (598) 
ChEMBL_Kinases

>  <Ligand_Instance>  (598) 
nan

>  <PDB_ID>  (598) 
nan

>  <Standardized_SMILES>  (598) 
CCCN(CCC)S(=O)(=O)c1cccc(C(=O)Nc2ccc3c(c2)OCO3)c1

>  <Name>  (598) 
nan

>  <Pocket>  (598) 
nan

>  <ATP_Site>  (598) 
nan

>  <Peripheral>  (598) 
nan

>  <Num_H_Atoms_ProtBoundConf>  (598) 
nan

>  <Num_Resolved_Atoms>  (598) 
nan

>  <Num_Not_Resolved_Atoms>  (598) 
nan

$$$$
CHEMBL1523003
     RDKit          3D

  0  0  0  0  0  0  0  0  0  0999 V3000
M  V30 BEGIN CTAB
M  V30 COUNTS 53 56 0 0 0
M  V30 BEGIN ATOM
M  V30 1 C 1.964593 -3.686929 2.627537 0
M  V30 2 C 3.350032 -3.201770 2.170404 0
M  V30 3 O 3.599310 -1.934928 2.744455 0
M  V30 4 C 4.711767 -1.174371 2.498795 0
M  V30 5 O 5.609656 -1.601768 1.696709 0
M  V30 6 C 4.772853 0.134451 3.211760 0
M  V30 7 C 4.452841 1.152895 2.149735 0
M  V30 8 N 4.659913 1.960325 1.314431 0
M  V30 9 N 3.803617 2.595738 0.596720 0
M  V30 10 C 2.588036 2.426750 0.702858 0
M  V30 11 N 1.361453 2.921939 0.100969 0
M  V30 12 C 0.092927 2.479544 0.563413 0
M  V30 13 O 0.065581 1.645187 1.515830 0
M  V30 14 C -1.181069 2.990658 -0.058343 0
M  V30 15 C -1.228127 4.486390 -0.029722 0
M  V30 16 C -2.455834 5.098831 -0.619743 0
M  V30 17 S -1.553024 2.248776 -1.635422 0
M  V30 18 C -1.901439 0.496930 -1.394156 0
M  V30 19 N -2.181526 -0.070911 -2.603405 0
M  V30 20 N -2.469805 -1.369607 -2.717179 0
M  V30 21 C -2.480207 -2.118463 -1.607477 0
M  V30 22 C -2.734851 -3.463828 -1.411585 0
M  V30 23 C -3.065935 -4.511175 -2.269647 0
M  V30 24 C -3.264801 -5.798654 -1.785534 0
M  V30 25 C -3.115327 -5.962002 -0.428883 0
M  V30 26 C -2.788999 -4.943720 0.442443 0
M  V30 27 C -2.594609 -3.672931 -0.046822 0
M  V30 28 N -2.265850 -2.499698 0.571592 0
M  V30 29 C -2.051364 -2.412050 1.996258 0
M  V30 30 C -2.196760 -1.547017 -0.381405 0
M  V30 31 N -1.905398 -0.239153 -0.257034 0
M  V30 32 S 2.553405 1.189147 2.001818 0
M  V30 33 H 2.038844 -4.663241 3.158737 0
M  V30 34 H 1.528394 -2.914707 3.298783 0
M  V30 35 H 1.317519 -3.817985 1.729707 0
M  V30 36 H 3.408972 -3.187870 1.064251 0
M  V30 37 H 4.086432 -3.962541 2.551541 0
M  V30 38 H 5.820367 0.277994 3.570318 0
M  V30 39 H 4.138985 0.133702 4.078373 0
M  V30 40 H 1.467318 3.589774 -0.660818 0
M  V30 41 H -1.997750 2.661783 0.659165 0
M  V30 42 H -0.325821 4.848983 -0.597210 0
M  V30 43 H -1.101538 4.887556 1.005214 0
M  V30 44 H -2.412803 6.219076 -0.486496 0
M  V30 45 H -3.383863 4.776791 -0.103818 0
M  V30 46 H -2.569571 4.850485 -1.687086 0
M  V30 47 H -3.165196 -4.288184 -3.341703 0
M  V30 48 H -3.523122 -6.620326 -2.451558 0
M  V30 49 H -3.272836 -6.968062 -0.072773 0
M  V30 50 H -2.690230 -5.170125 1.502040 0
M  V30 51 H -1.803195 -3.425585 2.410406 0
M  V30 52 H -1.163418 -1.787664 2.258573 0
M  V30 53 H -2.962477 -2.072424 2.522588 0
M  V30 END ATOM
M  V30 BEGIN BOND
M  V30 1 1 1 2
M  V30 2 1 2 3
M  V30 3 1 3 4
M  V30 4 2 4 5
M  V30 5 1 4 6
M  V30 6 1 6 7
M  V30 7 2 7 8
M  V30 8 1 8 9
M  V30 9 2 9 10
M  V30 10 1 10 11
M  V30 11 1 11 12
M  V30 12 2 12 13
M  V30 13 1 12 14
M  V30 14 1 14 15
M  V30 15 1 15 16
M  V30 16 1 14 17
M  V30 17 1 17 18
M  V30 18 2 18 19
M  V30 19 1 19 20
M  V30 20 2 20 21
M  V30 21 1 21 22
M  V30 22 2 22 23
M  V30 23 1 23 24
M  V30 24 2 24 25
M  V30 25 1 25 26
M  V30 26 2 26 27
M  V30 27 1 27 28
M  V30 28 1 28 29
M  V30 29 1 28 30
M  V30 30 2 30 31
M  V30 31 1 10 32
M  V30 32 1 32 7
M  V30 33 1 31 18
M  V30 34 1 30 21
M  V30 35 1 27 22
M  V30 36 1 1 33
M  V30 37 1 1 34
M  V30 38 1 1 35
M  V30 39 1 2 36
M  V30 40 1 2 37
M  V30 41 1 6 38
M  V30 42 1 6 39
M  V30 43 1 11 40
M  V30 44 1 14 41
M  V30 45 1 15 42
M  V30 46 1 15 43
M  V30 47 1 16 44
M  V30 48 1 16 45
M  V30 49 1 16 46
M  V30 50 1 23 47
M  V30 51 1 24 48
M  V30 52 1 25 49
M  V30 53 1 26 50
M  V30 54 1 29 51
M  V30 55 1 29 52
M  V30 56 1 29 53
M  V30 END BOND
M  V30 END CTAB
M  END
>  <Dataset>  (599) 
ChEMBL_Kinases

>  <Ligand_Instance>  (599) 
nan

>  <PDB_ID>  (599) 
nan

>  <Standardized_SMILES>  (599) 
CCOC(=O)Cc1nnc(NC(=O)C(CC)Sc2nnc3c4ccccc4n(C)c3n2)s1

>  <Name>  (599) 
nan

>  <Pocket>  (599) 
nan

>  <ATP_Site>  (599) 
nan

>  <Peripheral>  (599) 
nan

>  <Num_H_Atoms_ProtBoundConf>  (599) 
nan

>  <Num_Resolved_Atoms>  (599) 
nan

>  <Num_Not_Resolved_Atoms>  (599) 
nan

$$$$
CHEMBL1522912
     RDKit          3D

  0  0  0  0  0  0  0  0  0  0999 V3000
M  V30 BEGIN CTAB
M  V30 COUNTS 67 70 0 0 0
M  V30 BEGIN ATOM
M  V30 1 C 3.371719 -3.455806 7.178487 0
M  V30 2 O 2.578714 -3.261106 6.031224 0
M  V30 3 C 3.043414 -2.443252 5.015098 0
M  V30 4 C 4.246853 -1.770915 4.997430 0
M  V30 5 C 4.655061 -0.975969 3.962681 0
M  V30 6 C 3.876295 -0.795980 2.859092 0
M  V30 7 N 4.223704 0.019927 1.747348 0
M  V30 8 C 3.432722 0.111302 0.570702 0
M  V30 9 C 2.377445 0.960282 0.446323 0
M  V30 10 C 1.733364 0.913540 -0.773374 0
M  V30 11 C 0.563608 1.790867 -1.021721 0
M  V30 12 O 0.586803 2.677605 -1.915346 0
M  V30 13 N -0.630909 1.645602 -0.242183 0
M  V30 14 C -1.644420 2.565291 -0.619297 0
M  V30 15 C -2.912375 2.436260 0.150092 0
M  V30 16 C -3.735629 1.227857 0.038836 0
M  V30 17 N -3.243280 -0.067016 0.335958 0
M  V30 18 C -4.476532 -0.888257 0.552017 0
M  V30 19 C -5.007399 -1.511479 -0.682121 0
M  V30 20 N -4.779235 -0.821508 -1.910204 0
M  V30 21 C -5.223629 -1.637432 -3.012846 0
M  V30 22 C -3.389674 -0.499751 -2.086290 0
M  V30 23 C -2.634083 -0.772622 -0.791848 0
M  V30 24 C 2.128674 0.071208 -1.789697 0
M  V30 25 C 1.474341 0.042034 -2.998265 0
M  V30 26 C 1.883909 -0.803583 -4.003239 0
M  V30 27 C 2.968818 -1.669157 -3.860945 0
M  V30 28 C 3.607233 -1.619655 -2.638106 0
M  V30 29 C 3.213976 -0.779526 -1.616699 0
M  V30 30 N 3.816811 -0.707890 -0.418086 0
M  V30 31 C 2.665115 -1.455759 2.846509 0
M  V30 32 C 2.231827 -2.267187 3.886400 0
M  V30 33 O 1.014097 -2.929259 3.871955 0
M  V30 34 C 0.080759 -2.864276 2.827432 0
M  V30 35 H 2.668532 -3.761294 7.984947 0
M  V30 36 H 4.093891 -4.295360 7.030769 0
M  V30 37 H 3.945285 -2.555178 7.494421 0
M  V30 38 H 4.903094 -1.881321 5.848265 0
M  V30 39 H 5.607717 -0.474970 4.005232 0
M  V30 40 H 5.107457 0.554278 1.849122 0
M  V30 41 H 2.083521 1.604822 1.239206 0
M  V30 42 H -0.572905 0.887863 0.495621 0
M  V30 43 H -1.285661 3.623686 -0.664372 0
M  V30 44 H -1.897225 2.344917 -1.703816 0
M  V30 45 H -3.543732 3.375604 -0.059418 0
M  V30 46 H -2.694008 2.598614 1.261801 0
M  V30 47 H -4.288614 1.246211 -0.959431 0
M  V30 48 H -4.618996 1.400853 0.756894 0
M  V30 49 H -5.229336 -0.228261 1.010881 0
M  V30 50 H -4.254232 -1.681902 1.296719 0
M  V30 51 H -6.135459 -1.546447 -0.556246 0
M  V30 52 H -4.677365 -2.588175 -0.729088 0
M  V30 53 H -5.854954 -2.494810 -2.677115 0
M  V30 54 H -4.352179 -2.110944 -3.546788 0
M  V30 55 H -5.774397 -1.067166 -3.776470 0
M  V30 56 H -3.182746 0.492072 -2.493830 0
M  V30 57 H -2.940498 -1.225815 -2.825812 0
M  V30 58 H -2.809633 -1.872285 -0.603841 0
M  V30 59 H -1.580137 -0.673485 -0.930992 0
M  V30 60 H 0.628123 0.687004 -3.168281 0
M  V30 61 H 1.361815 -0.819637 -4.956226 0
M  V30 62 H 3.318776 -2.346765 -4.627635 0
M  V30 63 H 4.477412 -2.254159 -2.402724 0
M  V30 64 H 2.030357 -1.321570 1.970056 0
M  V30 65 H 0.586315 -2.739279 1.859401 0
M  V30 66 H -0.673255 -2.043247 2.995198 0
M  V30 67 H -0.534296 -3.798462 2.751007 0
M  V30 END ATOM
M  V30 BEGIN BOND
M  V30 1 1 1 2
M  V30 2 1 2 3
M  V30 3 2 3 4
M  V30 4 1 4 5
M  V30 5 2 5 6
M  V30 6 1 6 7
M  V30 7 1 7 8
M  V30 8 2 8 9
M  V30 9 1 9 10
M  V30 10 1 10 11
M  V30 11 2 11 12
M  V30 12 1 11 13
M  V30 13 1 13 14
M  V30 14 1 14 15
M  V30 15 1 15 16
M  V30 16 1 16 17
M  V30 17 1 17 18
M  V30 18 1 18 19
M  V30 19 1 19 20
M  V30 20 1 20 21
M  V30 21 1 20 22
M  V30 22 1 22 23
M  V30 23 2 10 24
M  V30 24 1 24 25
M  V30 25 2 25 26
M  V30 26 1 26 27
M  V30 27 2 27 28
M  V30 28 1 28 29
M  V30 29 2 29 30
M  V30 30 1 6 31
M  V30 31 2 31 32
M  V30 32 1 32 33
M  V30 33 1 33 34
M  V30 34 1 32 3
M  V30 35 1 30 8
M  V30 36 1 23 17
M  V30 37 1 29 24
M  V30 38 1 1 35
M  V30 39 1 1 36
M  V30 40 1 1 37
M  V30 41 1 4 38
M  V30 42 1 5 39
M  V30 43 1 7 40
M  V30 44 1 9 41
M  V30 45 1 13 42
M  V30 46 1 14 43
M  V30 47 1 14 44
M  V30 48 1 15 45
M  V30 49 1 15 46
M  V30 50 1 16 47
M  V30 51 1 16 48
M  V30 52 1 18 49
M  V30 53 1 18 50
M  V30 54 1 19 51
M  V30 55 1 19 52
M  V30 56 1 21 53
M  V30 57 1 21 54
M  V30 58 1 21 55
M  V30 59 1 22 56
M  V30 60 1 22 57
M  V30 61 1 23 58
M  V30 62 1 23 59
M  V30 63 1 25 60
M  V30 64 1 26 61
M  V30 65 1 27 62
M  V30 66 1 28 63
M  V30 67 1 31 64
M  V30 68 1 34 65
M  V30 69 1 34 66
M  V30 70 1 34 67
M  V30 END BOND
M  V30 END CTAB
M  END
>  <Dataset>  (600) 
ChEMBL_Kinases

>  <Ligand_Instance>  (600) 
nan

>  <PDB_ID>  (600) 
nan

>  <Standardized_SMILES>  (600) 
COc1ccc(Nc2cc(C(=O)NCCCN3CCN(C)CC3)c3ccccc3n2)cc1OC

>  <Name>  (600) 
nan

>  <Pocket>  (600) 
nan

>  <ATP_Site>  (600) 
nan

>  <Peripheral>  (600) 
nan

>  <Num_H_Atoms_ProtBoundConf>  (600) 
nan

>  <Num_Resolved_Atoms>  (600) 
nan

>  <Num_Not_Resolved_Atoms>  (600) 
nan

$$$$
CHEMBL1522758
     RDKit          3D

  0  0  0  0  0  0  0  0  0  0999 V3000
M  V30 BEGIN CTAB
M  V30 COUNTS 36 37 0 0 0
M  V30 BEGIN ATOM
M  V30 1 C 0.060162 1.027167 3.471271 0
M  V30 2 C -0.554322 0.290676 2.549827 0
M  V30 3 C -0.750121 -1.153143 2.626800 0
M  V30 4 C -0.134339 -1.961278 1.534780 0
M  V30 5 C 1.340037 -1.804190 1.458541 0
M  V30 6 O 2.014958 -1.070541 2.226665 0
M  V30 7 C 2.052866 -2.547287 0.427759 0
M  V30 8 C 3.434089 -2.390414 0.367978 0
M  V30 9 C 4.156206 -3.081510 -0.601406 0
M  V30 10 C 3.552018 -3.932417 -1.524521 0
M  V30 11 C 2.181327 -4.045373 -1.413358 0
M  V30 12 C 1.405105 -3.377640 -0.462522 0
M  V30 13 C -0.826117 1.422185 1.697545 0
M  V30 14 O -0.248989 2.146438 2.549236 0
M  V30 15 C -1.431351 1.811395 0.452398 0
M  V30 16 C -2.044180 0.927480 -0.410068 0
M  V30 17 C -2.605208 1.364974 -1.590160 0
M  V30 18 C -2.514706 2.717315 -1.845466 0
M  V30 19 C -1.903265 3.607251 -0.987412 0
M  V30 20 C -1.336346 3.163209 0.205651 0
M  V30 21 H 0.366567 0.338420 4.254385 0
M  V30 22 H 0.578653 1.519924 4.288181 0
M  V30 23 H -1.830972 -1.399119 2.656834 0
M  V30 24 H -0.303531 -1.508969 3.580987 0
M  V30 25 H -0.326744 -3.039503 1.812514 0
M  V30 26 H -0.605375 -1.852069 0.547631 0
M  V30 27 H 3.991107 -1.758296 1.034147 0
M  V30 28 H 5.241841 -2.997273 -0.695805 0
M  V30 29 H 4.100653 -4.469838 -2.276027 0
M  V30 30 H 1.692291 -4.698499 -2.117327 0
M  V30 31 H 0.338484 -3.494853 -0.411582 0
M  V30 32 H -2.091982 -0.118273 -0.170127 0
M  V30 33 H -3.069919 0.641744 -2.227653 0
M  V30 34 H -2.956214 3.074516 -2.778200 0
M  V30 35 H -1.891800 4.645292 -1.291212 0
M  V30 36 H -0.867218 3.875627 0.854699 0
M  V30 END ATOM
M  V30 BEGIN BOND
M  V30 1 2 1 2
M  V30 2 1 2 3
M  V30 3 1 3 4
M  V30 4 1 4 5
M  V30 5 2 5 6
M  V30 6 1 5 7
M  V30 7 2 7 8
M  V30 8 1 8 9
M  V30 9 2 9 10
M  V30 10 1 10 11
M  V30 11 2 11 12
M  V30 12 1 2 13
M  V30 13 2 13 14
M  V30 14 1 13 15
M  V30 15 2 15 16
M  V30 16 1 16 17
M  V30 17 2 17 18
M  V30 18 1 18 19
M  V30 19 2 19 20
M  V30 20 1 12 7
M  V30 21 1 20 15
M  V30 22 1 1 21
M  V30 23 1 1 22
M  V30 24 1 3 23
M  V30 25 1 3 24
M  V30 26 1 4 25
M  V30 27 1 4 26
M  V30 28 1 8 27
M  V30 29 1 9 28
M  V30 30 1 10 29
M  V30 31 1 11 30
M  V30 32 1 12 31
M  V30 33 1 16 32
M  V30 34 1 17 33
M  V30 35 1 18 34
M  V30 36 1 19 35
M  V30 37 1 20 36
M  V30 END BOND
M  V30 END CTAB
M  END
>  <Dataset>  (601) 
ChEMBL_Kinases

>  <Ligand_Instance>  (601) 
nan

>  <PDB_ID>  (601) 
nan

>  <Standardized_SMILES>  (601) 
C=C(CCC(=O)c1ccccc1)C(=O)c1ccccc1

>  <Name>  (601) 
nan

>  <Pocket>  (601) 
nan

>  <ATP_Site>  (601) 
nan

>  <Peripheral>  (601) 
nan

>  <Num_H_Atoms_ProtBoundConf>  (601) 
nan

>  <Num_Resolved_Atoms>  (601) 
nan

>  <Num_Not_Resolved_Atoms>  (601) 
nan

$$$$
CHEMBL1522728
     RDKit          3D

  0  0  0  0  0  0  0  0  0  0999 V3000
M  V30 BEGIN CTAB
M  V30 COUNTS 42 43 0 0 0
M  V30 BEGIN ATOM
M  V30 1 C 0.544428 -4.920065 -0.206746 0
M  V30 2 O 1.294902 -3.828506 -0.663431 0
M  V30 3 C 2.156905 -3.088688 0.154106 0
M  V30 4 O 2.386342 -3.276432 1.376189 0
M  V30 5 C 2.873891 -1.982200 -0.448443 0
M  V30 6 C 4.120996 -1.974752 -1.068863 0
M  V30 7 C 4.964894 -3.187199 -1.217129 0
M  V30 8 O 4.414353 -0.764696 -1.484315 0
M  V30 9 C 3.449741 0.090530 -1.196471 0
M  V30 10 C 3.229938 1.437613 -1.387875 0
M  V30 11 C 2.047379 2.030226 -0.933297 0
M  V30 12 Br 1.926083 3.913854 -1.293283 0
M  V30 13 C 1.069558 1.271760 -0.278946 0
M  V30 14 O 0.003695 2.061935 0.073614 0
M  V30 15 C -1.161294 1.637274 0.747137 0
M  V30 16 C -0.922352 1.059610 2.077276 0
M  V30 17 O 0.115270 0.874660 2.725499 0
M  V30 18 C -2.239937 0.663419 2.646842 0
M  V30 19 C -2.981521 -0.346321 1.833419 0
M  V30 20 C -3.123506 1.885907 2.782645 0
M  V30 21 C -2.023042 0.149185 4.071825 0
M  V30 22 C 1.308292 -0.071594 -0.097804 0
M  V30 23 C 2.478112 -0.645351 -0.550255 0
M  V30 24 H -0.556456 -4.683350 -0.147042 0
M  V30 25 H 0.821661 -5.219142 0.818285 0
M  V30 26 H 0.591603 -5.814129 -0.888205 0
M  V30 27 H 5.938321 -2.905264 -1.690563 0
M  V30 28 H 5.244481 -3.617098 -0.214859 0
M  V30 29 H 4.448321 -4.008345 -1.747089 0
M  V30 30 H 4.008180 1.987585 -1.896689 0
M  V30 31 H -1.786910 2.574600 0.834121 0
M  V30 32 H -1.776138 0.960984 0.091063 0
M  V30 33 H -2.437999 -0.757221 0.968751 0
M  V30 34 H -3.975904 0.027592 1.465353 0
M  V30 35 H -3.216705 -1.221610 2.474945 0
M  V30 36 H -2.600298 2.671214 3.392715 0
M  V30 37 H -3.533467 2.252400 1.837312 0
M  V30 38 H -3.966364 1.556102 3.453825 0
M  V30 39 H -2.939475 0.143776 4.670865 0
M  V30 40 H -1.227396 0.718956 4.585111 0
M  V30 41 H -1.596327 -0.888242 3.946649 0
M  V30 42 H 0.492638 -0.561523 0.415469 0
M  V30 END ATOM
M  V30 BEGIN BOND
M  V30 1 1 1 2
M  V30 2 1 2 3
M  V30 3 2 3 4
M  V30 4 1 3 5
M  V30 5 2 5 6
M  V30 6 1 6 7
M  V30 7 1 6 8
M  V30 8 1 8 9
M  V30 9 2 9 10
M  V30 10 1 10 11
M  V30 11 1 11 12
M  V30 12 2 11 13
M  V30 13 1 13 14
M  V30 14 1 14 15
M  V30 15 1 15 16
M  V30 16 2 16 17
M  V30 17 1 16 18
M  V30 18 1 18 19
M  V30 19 1 18 20
M  V30 20 1 18 21
M  V30 21 1 13 22
M  V30 22 2 22 23
M  V30 23 1 23 5
M  V30 24 1 23 9
M  V30 25 1 1 24
M  V30 26 1 1 25
M  V30 27 1 1 26
M  V30 28 1 7 27
M  V30 29 1 7 28
M  V30 30 1 7 29
M  V30 31 1 10 30
M  V30 32 1 15 31
M  V30 33 1 15 32
M  V30 34 1 19 33
M  V30 35 1 19 34
M  V30 36 1 19 35
M  V30 37 1 20 36
M  V30 38 1 20 37
M  V30 39 1 20 38
M  V30 40 1 21 39
M  V30 41 1 21 40
M  V30 42 1 21 41
M  V30 43 1 22 42
M  V30 END BOND
M  V30 END CTAB
M  END
>  <Dataset>  (602) 
ChEMBL_Kinases

>  <Ligand_Instance>  (602) 
nan

>  <PDB_ID>  (602) 
nan

>  <Standardized_SMILES>  (602) 
COC(=O)c1c(C)oc2cc(Br)c(OCC(=O)C(C)(C)C)cc12

>  <Name>  (602) 
nan

>  <Pocket>  (602) 
nan

>  <ATP_Site>  (602) 
nan

>  <Peripheral>  (602) 
nan

>  <Num_H_Atoms_ProtBoundConf>  (602) 
nan

>  <Num_Resolved_Atoms>  (602) 
nan

>  <Num_Not_Resolved_Atoms>  (602) 
nan

$$$$
CHEMBL1522696
     RDKit          3D

  0  0  0  0  0  0  0  0  0  0999 V3000
M  V30 BEGIN CTAB
M  V30 COUNTS 51 55 0 0 0
M  V30 BEGIN ATOM
M  V30 1 N 5.618909 -4.353083 2.524995 0
M  V30 2 C 4.644351 -4.506010 1.492677 0
M  V30 3 O 4.899744 -5.549557 0.808069 0
M  V30 4 C 3.492440 -3.600463 1.229992 0
M  V30 5 C 4.022340 -2.242909 0.934045 0
M  V30 6 C 3.303755 -1.583440 -0.221807 0
M  V30 7 N 1.885426 -1.922564 -0.056782 0
M  V30 8 C 0.940570 -0.979041 0.428629 0
M  V30 9 N 1.411010 0.244631 0.731909 0
M  V30 10 C 0.617167 1.225698 1.200476 0
M  V30 11 C 1.170573 2.565859 1.525195 0
M  V30 12 C 0.505617 3.385722 2.554308 0
M  V30 13 C 0.280995 3.777637 1.111948 0
M  V30 14 N -0.712810 1.029701 1.393411 0
M  V30 15 C -1.233065 -0.181625 1.103690 0
M  V30 16 C -0.409846 -1.179521 0.624053 0
M  V30 17 N -1.128118 -2.272080 0.410629 0
M  V30 18 N -2.401219 -2.005290 0.741539 0
M  V30 19 N -2.471956 -0.738099 1.163034 0
M  V30 20 C -3.668855 -0.052363 1.614203 0
M  V30 21 C -4.284304 0.581809 0.418605 0
M  V30 22 C -4.020326 1.851295 -0.049085 0
M  V30 23 C -4.653049 2.344521 -1.177170 0
M  V30 24 C -5.566794 1.555676 -1.851484 0
M  V30 25 C -5.855021 0.280229 -1.411212 0
M  V30 26 C -5.212459 -0.185881 -0.287726 0
M  V30 27 C 1.651109 -3.294212 -0.451940 0
M  V30 28 C 2.702755 -4.213281 0.110319 0
M  V30 29 H 4.985589 -4.320801 3.378610 0
M  V30 30 H 5.030707 -4.315654 3.404023 0
M  V30 31 H 2.907089 -3.583983 2.193804 0
M  V30 32 H 3.873863 -1.561287 1.809098 0
M  V30 33 H 5.134178 -2.234438 0.777013 0
M  V30 34 H 3.718668 -2.000458 -1.160120 0
M  V30 35 H 3.451594 -0.485072 -0.187875 0
M  V30 36 H 2.260444 2.710333 1.361743 0
M  V30 37 H -0.348353 3.005549 3.151023 0
M  V30 38 H 1.169548 4.082616 3.139021 0
M  V30 39 H 0.820327 4.629226 0.689332 0
M  V30 40 H -0.737270 3.502425 0.719984 0
M  V30 41 H -3.436671 0.692018 2.403082 0
M  V30 42 H -4.411344 -0.765699 2.063187 0
M  V30 43 H -3.288282 2.431182 0.524279 0
M  V30 44 H -4.419938 3.350580 -1.517038 0
M  V30 45 H -6.068675 1.932703 -2.737269 0
M  V30 46 H -6.564576 -0.359271 -1.917723 0
M  V30 47 H -5.447753 -1.203467 0.056673 0
M  V30 48 H 1.820117 -3.292971 -1.570271 0
M  V30 49 H 0.635725 -3.655389 -0.325443 0
M  V30 50 H 3.439569 -4.555156 -0.644752 0
M  V30 51 H 2.194205 -5.113051 0.499759 0
M  V30 END ATOM
M  V30 BEGIN BOND
M  V30 1 1 1 2
M  V30 2 2 2 3
M  V30 3 1 2 4
M  V30 4 1 4 5
M  V30 5 1 5 6
M  V30 6 1 6 7
M  V30 7 1 7 8
M  V30 8 2 8 9
M  V30 9 1 9 10
M  V30 10 1 10 11
M  V30 11 1 11 12
M  V30 12 1 12 13
M  V30 13 2 10 14
M  V30 14 1 14 15
M  V30 15 2 15 16
M  V30 16 1 16 17
M  V30 17 2 17 18
M  V30 18 1 18 19
M  V30 19 1 19 20
M  V30 20 1 20 21
M  V30 21 2 21 22
M  V30 22 1 22 23
M  V30 23 2 23 24
M  V30 24 1 24 25
M  V30 25 2 25 26
M  V30 26 1 7 27
M  V30 27 1 27 28
M  V30 28 1 28 4
M  V30 29 1 16 8
M  V30 30 1 26 21
M  V30 31 1 13 11
M  V30 32 1 19 15
M  V30 33 1 1 29
M  V30 34 1 1 30
M  V30 35 1 4 31
M  V30 36 1 5 32
M  V30 37 1 5 33
M  V30 38 1 6 34
M  V30 39 1 6 35
M  V30 40 1 11 36
M  V30 41 1 12 37
M  V30 42 1 12 38
M  V30 43 1 13 39
M  V30 44 1 13 40
M  V30 45 1 20 41
M  V30 46 1 20 42
M  V30 47 1 22 43
M  V30 48 1 23 44
M  V30 49 1 24 45
M  V30 50 1 25 46
M  V30 51 1 26 47
M  V30 52 1 27 48
M  V30 53 1 27 49
M  V30 54 1 28 50
M  V30 55 1 28 51
M  V30 END BOND
M  V30 END CTAB
M  END
>  <Dataset>  (603) 
ChEMBL_Kinases

>  <Ligand_Instance>  (603) 
nan

>  <PDB_ID>  (603) 
nan

>  <Standardized_SMILES>  (603) 
NC(=O)C1CCN(c2nc(C3CC3)nc3c2nnn3Cc2ccccc2)CC1

>  <Name>  (603) 
nan

>  <Pocket>  (603) 
nan

>  <ATP_Site>  (603) 
nan

>  <Peripheral>  (603) 
nan

>  <Num_H_Atoms_ProtBoundConf>  (603) 
nan

>  <Num_Resolved_Atoms>  (603) 
nan

>  <Num_Not_Resolved_Atoms>  (603) 
nan

$$$$
CHEMBL1522425
     RDKit          3D

  0  0  0  0  0  0  0  0  0  0999 V3000
M  V30 BEGIN CTAB
M  V30 COUNTS 46 48 0 0 0
M  V30 BEGIN ATOM
M  V30 1 C 3.445099 0.342780 3.757180 0
M  V30 2 O 3.175200 0.058939 2.389730 0
M  V30 3 C 4.065917 -0.715191 1.674870 0
M  V30 4 O 5.136582 -1.231356 2.081100 0
M  V30 5 C 3.710645 -0.947732 0.305750 0
M  V30 6 S 4.831343 -1.971683 -0.753521 0
M  V30 7 C 3.723637 -1.802509 -2.287351 0
M  V30 8 C 2.655649 -1.000705 -1.811163 0
M  V30 9 C 2.655797 -0.576098 -0.509941 0
M  V30 10 N 1.609897 0.221222 0.011765 0
M  V30 11 C 1.429044 1.603688 0.081898 0
M  V30 12 O 2.335971 2.343303 -0.393052 0
M  V30 13 C 0.259299 2.286473 0.665859 0
M  V30 14 N -0.747212 1.487267 1.211956 0
M  V30 15 C -0.530983 0.759849 2.398356 0
M  V30 16 C -1.660587 -0.275699 2.483250 0
M  V30 17 N -2.197506 -0.570933 1.169044 0
M  V30 18 C -2.133909 -1.779508 0.463669 0
M  V30 19 C -2.671064 -1.999220 -0.792960 0
M  V30 20 C -2.563270 -3.220738 -1.419606 0
M  V30 21 C -1.919371 -4.288766 -0.837735 0
M  V30 22 F -1.838464 -5.469511 -1.491534 0
M  V30 23 C -1.375083 -4.091171 0.418311 0
M  V30 24 C -1.493870 -2.858306 1.030258 0
M  V30 25 C -2.861329 0.623093 0.621782 0
M  V30 26 C -2.103199 1.877772 1.095648 0
M  V30 27 H 3.742778 1.393932 3.910409 0
M  V30 28 H 2.506018 0.124231 4.309680 0
M  V30 29 H 4.194437 -0.384334 4.128505 0
M  V30 30 H 3.899293 -2.222861 -3.231391 0
M  V30 31 H 1.896903 -0.780032 -2.543153 0
M  V30 32 H 0.906660 -0.422783 0.375107 0
M  V30 33 H -0.197011 2.871541 -0.190300 0
M  V30 34 H 0.619180 3.111779 1.348067 0
M  V30 35 H -0.692462 1.440087 3.293105 0
M  V30 36 H 0.450626 0.319003 2.572132 0
M  V30 37 H -1.311003 -1.158104 3.038993 0
M  V30 38 H -2.511950 0.155219 3.088370 0
M  V30 39 H -3.186257 -1.188772 -1.287657 0
M  V30 40 H -2.998710 -3.345757 -2.400050 0
M  V30 41 H -0.881120 -4.956439 0.833767 0
M  V30 42 H -1.020469 -2.864699 1.997975 0
M  V30 43 H -3.895585 0.614914 1.018655 0
M  V30 44 H -2.818599 0.634573 -0.481746 0
M  V30 45 H -2.488987 2.092159 2.133749 0
M  V30 46 H -2.263679 2.714614 0.410121 0
M  V30 END ATOM
M  V30 BEGIN BOND
M  V30 1 1 1 2
M  V30 2 1 2 3
M  V30 3 2 3 4
M  V30 4 1 3 5
M  V30 5 1 5 6
M  V30 6 1 6 7
M  V30 7 2 7 8
M  V30 8 1 8 9
M  V30 9 1 9 10
M  V30 10 1 10 11
M  V30 11 2 11 12
M  V30 12 1 11 13
M  V30 13 1 13 14
M  V30 14 1 14 15
M  V30 15 1 15 16
M  V30 16 1 16 17
M  V30 17 1 17 18
M  V30 18 2 18 19
M  V30 19 1 19 20
M  V30 20 2 20 21
M  V30 21 1 21 22
M  V30 22 1 21 23
M  V30 23 2 23 24
M  V30 24 1 17 25
M  V30 25 1 25 26
M  V30 26 2 9 5
M  V30 27 1 26 14
M  V30 28 1 24 18
M  V30 29 1 1 27
M  V30 30 1 1 28
M  V30 31 1 1 29
M  V30 32 1 7 30
M  V30 33 1 8 31
M  V30 34 1 10 32
M  V30 35 1 13 33
M  V30 36 1 13 34
M  V30 37 1 15 35
M  V30 38 1 15 36
M  V30 39 1 16 37
M  V30 40 1 16 38
M  V30 41 1 19 39
M  V30 42 1 20 40
M  V30 43 1 23 41
M  V30 44 1 24 42
M  V30 45 1 25 43
M  V30 46 1 25 44
M  V30 47 1 26 45
M  V30 48 1 26 46
M  V30 END BOND
M  V30 END CTAB
M  END
>  <Dataset>  (604) 
ChEMBL_Kinases

>  <Ligand_Instance>  (604) 
nan

>  <PDB_ID>  (604) 
nan

>  <Standardized_SMILES>  (604) 
COC(=O)c1sccc1NC(=O)CN1CCN(c2ccc(F)cc2)CC1

>  <Name>  (604) 
nan

>  <Pocket>  (604) 
nan

>  <ATP_Site>  (604) 
nan

>  <Peripheral>  (604) 
nan

>  <Num_H_Atoms_ProtBoundConf>  (604) 
nan

>  <Num_Resolved_Atoms>  (604) 
nan

>  <Num_Not_Resolved_Atoms>  (604) 
nan

$$$$
CHEMBL1521142
     RDKit          3D

  0  0  0  0  0  0  0  0  0  0999 V3000
M  V30 BEGIN CTAB
M  V30 COUNTS 51 53 0 0 0
M  V30 BEGIN ATOM
M  V30 1 C -3.336581 -3.122020 1.454269 0
M  V30 2 C -2.541074 -2.585398 2.619512 0
M  V30 3 C -1.342243 -3.433086 2.969985 0
M  V30 4 N -0.469099 -3.483086 1.813825 0
M  V30 5 N 0.411274 -2.526385 1.757390 0
M  V30 6 C 1.309763 -2.382480 0.774341 0
M  V30 7 C 2.266791 -1.288496 0.773213 0
M  V30 8 O 3.202882 -0.851896 0.066815 0
M  V30 9 N 2.198746 -0.371803 1.880623 0
M  V30 10 C 3.071263 0.761851 2.026962 0
M  V30 11 C 2.992716 1.767157 0.920380 0
M  V30 12 C 1.629386 2.345042 0.773537 0
M  V30 13 C 0.687049 1.768616 -0.055868 0
M  V30 14 C -0.573227 2.340900 -0.163245 0
M  V30 15 C -0.931501 3.475751 0.531349 0
M  V30 16 S -2.550874 4.139549 0.339969 0
M  V30 17 N -2.572640 5.274059 -0.948113 0
M  V30 18 O -3.562564 3.083781 0.074001 0
M  V30 19 O -2.865557 4.889903 1.602912 0
M  V30 20 C -0.001956 4.052614 1.355662 0
M  V30 21 C 1.254151 3.493298 1.470943 0
M  V30 22 C 1.228423 -3.351612 -0.199563 0
M  V30 23 C 2.102796 -3.306374 -1.261749 0
M  V30 24 C 2.107727 -4.225948 -2.290296 0
M  V30 25 C 1.189210 -5.269161 -2.281379 0
M  V30 26 C 0.302338 -5.331817 -1.222650 0
M  V30 27 C 0.325946 -4.392082 -0.207995 0
M  V30 28 C -0.541226 -4.424866 0.858924 0
M  V30 29 O -1.389469 -5.323725 0.940159 0
M  V30 30 H -3.741427 -4.118840 1.664000 0
M  V30 31 H -4.245987 -2.453334 1.385693 0
M  V30 32 H -2.812819 -3.027534 0.482269 0
M  V30 33 H -2.253279 -1.534853 2.428641 0
M  V30 34 H -3.262608 -2.560799 3.482372 0
M  V30 35 H -1.677840 -4.491746 3.173507 0
M  V30 36 H -0.851833 -3.046275 3.863177 0
M  V30 37 H 1.463883 -0.530604 2.643060 0
M  V30 38 H 2.883383 1.270668 2.970449 0
M  V30 39 H 4.109165 0.356040 2.074238 0
M  V30 40 H 3.345579 1.449625 -0.055172 0
M  V30 41 H 3.646304 2.626962 1.235148 0
M  V30 42 H 0.901048 0.885971 -0.623501 0
M  V30 43 H -1.303807 1.859266 -0.832187 0
M  V30 44 H -3.578582 5.385034 -1.235897 0
M  V30 45 H -1.956668 5.021196 -1.738834 0
M  V30 46 H -0.271833 4.957775 1.916407 0
M  V30 47 H 1.971386 3.980941 2.138703 0
M  V30 48 H 2.851183 -2.540535 -1.362562 0
M  V30 49 H 2.785826 -4.199810 -3.124006 0
M  V30 50 H 1.089596 -6.045189 -3.017338 0
M  V30 51 H -0.445417 -6.092950 -1.117422 0
M  V30 END ATOM
M  V30 BEGIN BOND
M  V30 1 1 1 2
M  V30 2 1 2 3
M  V30 3 1 3 4
M  V30 4 1 4 5
M  V30 5 2 5 6
M  V30 6 1 6 7
M  V30 7 2 7 8
M  V30 8 1 7 9
M  V30 9 1 9 10
M  V30 10 1 10 11
M  V30 11 1 11 12
M  V30 12 2 12 13
M  V30 13 1 13 14
M  V30 14 2 14 15
M  V30 15 1 15 16
M  V30 16 1 16 17
M  V30 17 2 16 18
M  V30 18 2 16 19
M  V30 19 1 15 20
M  V30 20 2 20 21
M  V30 21 1 6 22
M  V30 22 2 22 23
M  V30 23 1 23 24
M  V30 24 2 24 25
M  V30 25 1 25 26
M  V30 26 2 26 27
M  V30 27 1 27 28
M  V30 28 2 28 29
M  V30 29 1 28 4
M  V30 30 1 21 12
M  V30 31 1 27 22
M  V30 32 1 1 30
M  V30 33 1 1 31
M  V30 34 1 1 32
M  V30 35 1 2 33
M  V30 36 1 2 34
M  V30 37 1 3 35
M  V30 38 1 3 36
M  V30 39 1 9 37
M  V30 40 1 10 38
M  V30 41 1 10 39
M  V30 42 1 11 40
M  V30 43 1 11 41
M  V30 44 1 13 42
M  V30 45 1 14 43
M  V30 46 1 17 44
M  V30 47 1 17 45
M  V30 48 1 20 46
M  V30 49 1 21 47
M  V30 50 1 23 48
M  V30 51 1 24 49
M  V30 52 1 25 50
M  V30 53 1 26 51
M  V30 END BOND
M  V30 END CTAB
M  END
>  <Dataset>  (605) 
ChEMBL_Kinases

>  <Ligand_Instance>  (605) 
nan

>  <PDB_ID>  (605) 
nan

>  <Standardized_SMILES>  (605) 
CCCn1nc(C(=O)NCCc2ccc(S(N)(=O)=O)cc2)c2ccccc2c1=O

>  <Name>  (605) 
nan

>  <Pocket>  (605) 
nan

>  <ATP_Site>  (605) 
nan

>  <Peripheral>  (605) 
nan

>  <Num_H_Atoms_ProtBoundConf>  (605) 
nan

>  <Num_Resolved_Atoms>  (605) 
nan

>  <Num_Not_Resolved_Atoms>  (605) 
nan

$$$$
CHEMBL1521239
     RDKit          3D

  0  0  0  0  0  0  0  0  0  0999 V3000
M  V30 BEGIN CTAB
M  V30 COUNTS 40 42 0 0 0
M  V30 BEGIN ATOM
M  V30 1 O 0.723335 -2.190119 2.871748 0
M  V30 2 C 0.501412 -2.441336 1.642410 0
M  V30 3 N 1.487925 -1.770548 0.871822 0
M  V30 4 C 2.480043 -0.993054 1.535622 0
M  V30 5 C 3.683967 -1.578134 1.933132 0
M  V30 6 C 4.674962 -0.867306 2.578630 0
M  V30 7 C 4.404870 0.453149 2.806881 0
M  V30 8 C 3.232473 1.075854 2.433913 0
M  V30 9 C 2.260433 0.353950 1.794176 0
M  V30 10 N 1.052913 0.997855 1.410705 0
M  V30 11 C 0.934145 1.611827 0.140816 0
M  V30 12 O 2.029335 1.462636 -0.484372 0
M  V30 13 C -0.219065 2.308558 -0.408421 0
M  V30 14 C -1.457852 2.548325 0.139889 0
M  V30 15 F -1.634152 2.067600 1.370061 0
M  V30 16 C -2.447575 3.233801 -0.527347 0
M  V30 17 F -3.619729 3.390009 0.149599 0
M  V30 18 C -2.257323 3.719684 -1.781292 0
M  V30 19 F -3.285710 4.381332 -2.361332 0
M  V30 20 C -1.034331 3.493908 -2.347082 0
M  V30 21 F -0.816824 3.969935 -3.602859 0
M  V30 22 C -0.029479 2.811261 -1.699425 0
M  V30 23 F 1.141491 2.650142 -2.364355 0
M  V30 24 C -0.586082 -3.275871 1.162374 0
M  V30 25 C -0.950368 -3.634810 -0.107584 0
M  V30 26 F -0.167730 -3.128102 -1.073493 0
M  V30 27 C -2.019140 -4.441765 -0.394827 0
M  V30 28 F -2.250611 -4.704839 -1.690683 0
M  V30 29 C -2.805966 -4.949709 0.597032 0
M  V30 30 F -3.845903 -5.740373 0.240886 0
M  V30 31 C -2.464441 -4.606006 1.888093 0
M  V30 32 F -3.230160 -5.097727 2.889547 0
M  V30 33 C -1.392506 -3.796224 2.182337 0
M  V30 34 F -1.159176 -3.529846 3.505365 0
M  V30 35 H 1.448060 -1.874051 -0.165318 0
M  V30 36 H 3.818176 -2.646858 1.709581 0
M  V30 37 H 5.591181 -1.361026 2.868211 0
M  V30 38 H 5.145273 1.073871 3.313079 0
M  V30 39 H 3.038420 2.140781 2.628930 0
M  V30 40 H 0.229191 1.034782 2.049380 0
M  V30 END ATOM
M  V30 BEGIN BOND
M  V30 1 2 1 2
M  V30 2 1 2 3
M  V30 3 1 3 4
M  V30 4 2 4 5
M  V30 5 1 5 6
M  V30 6 2 6 7
M  V30 7 1 7 8
M  V30 8 2 8 9
M  V30 9 1 9 10
M  V30 10 1 10 11
M  V30 11 2 11 12
M  V30 12 1 11 13
M  V30 13 2 13 14
M  V30 14 1 14 15
M  V30 15 1 14 16
M  V30 16 1 16 17
M  V30 17 2 16 18
M  V30 18 1 18 19
M  V30 19 1 18 20
M  V30 20 1 20 21
M  V30 21 2 20 22
M  V30 22 1 22 23
M  V30 23 1 2 24
M  V30 24 2 24 25
M  V30 25 1 25 26
M  V30 26 1 25 27
M  V30 27 1 27 28
M  V30 28 2 27 29
M  V30 29 1 29 30
M  V30 30 1 29 31
M  V30 31 1 31 32
M  V30 32 2 31 33
M  V30 33 1 33 34
M  V30 34 1 9 4
M  V30 35 1 22 13
M  V30 36 1 33 24
M  V30 37 1 3 35
M  V30 38 1 5 36
M  V30 39 1 6 37
M  V30 40 1 7 38
M  V30 41 1 8 39
M  V30 42 1 10 40
M  V30 END BOND
M  V30 END CTAB
M  END
>  <Dataset>  (606) 
ChEMBL_Kinases

>  <Ligand_Instance>  (606) 
nan

>  <PDB_ID>  (606) 
nan

>  <Standardized_SMILES>  (606) 
O=C(Nc1ccccc1NC(=O)c1c(F)c(F)c(F)c(F)c1F)c1c(F)c(F)c(F)c(F)c1F

>  <Name>  (606) 
nan

>  <Pocket>  (606) 
nan

>  <ATP_Site>  (606) 
nan

>  <Peripheral>  (606) 
nan

>  <Num_H_Atoms_ProtBoundConf>  (606) 
nan

>  <Num_Resolved_Atoms>  (606) 
nan

>  <Num_Not_Resolved_Atoms>  (606) 
nan

$$$$
CHEMBL1521269
     RDKit          3D

  0  0  0  0  0  0  0  0  0  0999 V3000
M  V30 BEGIN CTAB
M  V30 COUNTS 55 58 0 0 0
M  V30 BEGIN ATOM
M  V30 1 C -0.691828 -5.389089 2.858792 0
M  V30 2 O -0.128789 -4.816541 1.711556 0
M  V30 3 C 0.918564 -3.906865 1.687359 0
M  V30 4 C 1.539765 -3.454237 2.836485 0
M  V30 5 C 2.578480 -2.549500 2.772226 0
M  V30 6 C 3.004352 -2.088804 1.545334 0
M  V30 7 C 4.118107 -1.103691 1.277307 0
M  V30 8 C 3.550693 0.292467 1.315100 0
M  V30 9 O 3.017095 0.706691 2.379371 0
M  V30 10 N 3.590458 1.162484 0.191776 0
M  V30 11 C 2.954221 2.394504 0.592903 0
M  V30 12 C 3.479938 3.572458 1.075689 0
M  V30 13 C 2.598926 4.580258 1.393136 0
M  V30 14 C 1.236351 4.435418 1.241134 0
M  V30 15 C 0.682735 3.258644 0.756916 0
M  V30 16 C -0.756034 3.118056 0.608952 0
M  V30 17 N -1.777483 3.930591 0.800853 0
M  V30 18 N -2.909007 3.274310 0.507420 0
M  V30 19 C -2.579635 2.033368 0.127678 0
M  V30 20 C -3.374462 0.892724 -0.295966 0
M  V30 21 C -4.746630 0.946936 -0.382698 0
M  V30 22 C -5.491100 -0.150350 -0.777398 0
M  V30 23 C -4.874456 -1.354320 -1.101917 0
M  V30 24 C -5.582363 -2.583041 -1.528628 0
M  V30 25 C -3.496267 -1.420581 -1.018853 0
M  V30 26 C -2.779945 -0.314008 -0.623441 0
M  V30 27 O -1.297759 2.007528 0.209160 0
M  V30 28 C 1.584513 2.257470 0.442697 0
M  V30 29 C 2.366528 -2.555313 0.389374 0
M  V30 30 C 1.307663 -3.474704 0.411593 0
M  V30 31 O 0.661365 -3.951293 -0.705980 0
M  V30 32 C 0.959441 -3.594078 -2.019190 0
M  V30 33 H -1.784876 -5.492811 2.696893 0
M  V30 34 H -0.219081 -6.384046 3.018200 0
M  V30 35 H -0.559227 -4.768820 3.786582 0
M  V30 36 H 1.225080 -3.798395 3.809065 0
M  V30 37 H 3.117554 -2.144484 3.611378 0
M  V30 38 H 4.596501 -1.303998 0.320437 0
M  V30 39 H 4.845917 -1.183061 2.093147 0
M  V30 40 H 4.039671 0.809216 -0.689061 0
M  V30 41 H 4.551061 3.528103 1.136033 0
M  V30 42 H 3.072537 5.476522 1.765087 0
M  V30 43 H 0.580695 5.255606 1.502332 0
M  V30 44 H -5.277290 1.855579 -0.143030 0
M  V30 45 H -6.549457 -0.173089 -0.864537 0
M  V30 46 H -5.478475 -3.412290 -0.804978 0
M  V30 47 H -6.664832 -2.358201 -1.601948 0
M  V30 48 H -5.269015 -2.892660 -2.548186 0
M  V30 49 H -2.968250 -2.344632 -1.264006 0
M  V30 50 H -1.713249 -0.398038 -0.569421 0
M  V30 51 H 1.079881 1.352686 0.063754 0
M  V30 52 H 2.670993 -2.216432 -0.605806 0
M  V30 53 H 0.000507 -3.676917 -2.597531 0
M  V30 54 H 1.665056 -4.277982 -2.541495 0
M  V30 55 H 1.319944 -2.550285 -2.144403 0
M  V30 END ATOM
M  V30 BEGIN BOND
M  V30 1 1 1 2
M  V30 2 1 2 3
M  V30 3 2 3 4
M  V30 4 1 4 5
M  V30 5 2 5 6
M  V30 6 1 6 7
M  V30 7 1 7 8
M  V30 8 2 8 9
M  V30 9 1 8 10
M  V30 10 1 10 11
M  V30 11 2 11 12
M  V30 12 1 12 13
M  V30 13 2 13 14
M  V30 14 1 14 15
M  V30 15 1 15 16
M  V30 16 2 16 17
M  V30 17 1 17 18
M  V30 18 2 18 19
M  V30 19 1 19 20
M  V30 20 2 20 21
M  V30 21 1 21 22
M  V30 22 2 22 23
M  V30 23 1 23 24
M  V30 24 1 23 25
M  V30 25 2 25 26
M  V30 26 1 19 27
M  V30 27 2 15 28
M  V30 28 1 6 29
M  V30 29 2 29 30
M  V30 30 1 30 31
M  V30 31 1 31 32
M  V30 32 1 30 3
M  V30 33 1 28 11
M  V30 34 1 27 16
M  V30 35 1 26 20
M  V30 36 1 1 33
M  V30 37 1 1 34
M  V30 38 1 1 35
M  V30 39 1 4 36
M  V30 40 1 5 37
M  V30 41 1 7 38
M  V30 42 1 7 39
M  V30 43 1 10 40
M  V30 44 1 12 41
M  V30 45 1 13 42
M  V30 46 1 14 43
M  V30 47 1 21 44
M  V30 48 1 22 45
M  V30 49 1 24 46
M  V30 50 1 24 47
M  V30 51 1 24 48
M  V30 52 1 25 49
M  V30 53 1 26 50
M  V30 54 1 28 51
M  V30 55 1 29 52
M  V30 56 1 32 53
M  V30 57 1 32 54
M  V30 58 1 32 55
M  V30 END BOND
M  V30 END CTAB
M  END
>  <Dataset>  (607) 
ChEMBL_Kinases

>  <Ligand_Instance>  (607) 
nan

>  <PDB_ID>  (607) 
nan

>  <Standardized_SMILES>  (607) 
COc1ccc(CC(=O)Nc2cccc(-c3nnc(-c4ccc(C)cc4)o3)c2)cc1OC

>  <Name>  (607) 
nan

>  <Pocket>  (607) 
nan

>  <ATP_Site>  (607) 
nan

>  <Peripheral>  (607) 
nan

>  <Num_H_Atoms_ProtBoundConf>  (607) 
nan

>  <Num_Resolved_Atoms>  (607) 
nan

>  <Num_Not_Resolved_Atoms>  (607) 
nan

$$$$
CHEMBL1521489
     RDKit          3D

  0  0  0  0  0  0  0  0  0  0999 V3000
M  V30 BEGIN CTAB
M  V30 COUNTS 31 32 0 0 0
M  V30 BEGIN ATOM
M  V30 1 C -0.789721 -4.238418 2.000235 0
M  V30 2 N 0.290472 -4.034326 1.041029 0
M  V30 3 C 0.603911 -2.647358 1.060130 0
M  V30 4 N 1.475325 -2.291185 2.011433 0
M  V30 5 C 1.883764 -1.025015 2.180945 0
M  V30 6 O 2.765947 -0.475392 3.099087 0
M  V30 7 C 3.399283 -1.304318 4.067521 0
M  V30 8 N 1.369855 -0.120065 1.339256 0
M  V30 9 C 0.493243 -0.397276 0.361275 0
M  V30 10 N -0.090669 0.520674 -0.554274 0
M  V30 11 C -0.922004 0.112795 -1.669580 0
M  V30 12 C -2.148819 0.945171 -1.857883 0
M  V30 13 O -1.784205 2.286247 -1.963590 0
M  V30 14 C -1.198896 2.699051 -0.781662 0
M  V30 15 C 0.076420 1.954959 -0.462105 0
M  V30 16 N 0.115226 -1.695614 0.235932 0
M  V30 17 H -0.384279 -4.036333 3.023560 0
M  V30 18 H -1.661151 -3.582044 1.810539 0
M  V30 19 H -1.189955 -5.279302 1.944891 0
M  V30 20 H 0.643686 -4.870473 0.521044 0
M  V30 21 H 2.698241 -2.012042 4.549298 0
M  V30 22 H 3.838891 -0.634659 4.840488 0
M  V30 23 H 4.181053 -1.873295 3.555848 0
M  V30 24 H -0.263672 0.198872 -2.575128 0
M  V30 25 H -1.199355 -0.969988 -1.636776 0
M  V30 26 H -2.860203 0.736532 -1.037755 0
M  V30 27 H -2.583605 0.677771 -2.866134 0
M  V30 28 H -0.950501 3.773334 -0.858521 0
M  V30 29 H -1.919331 2.581195 0.050967 0
M  V30 30 H 0.338142 2.241765 0.600799 0
M  V30 31 H 0.927547 2.234425 -1.115404 0
M  V30 END ATOM
M  V30 BEGIN BOND
M  V30 1 1 1 2
M  V30 2 1 2 3
M  V30 3 2 3 4
M  V30 4 1 4 5
M  V30 5 1 5 6
M  V30 6 1 6 7
M  V30 7 2 5 8
M  V30 8 1 8 9
M  V30 9 1 9 10
M  V30 10 1 10 11
M  V30 11 1 11 12
M  V30 12 1 12 13
M  V30 13 1 13 14
M  V30 14 1 14 15
M  V30 15 2 9 16
M  V30 16 1 16 3
M  V30 17 1 15 10
M  V30 18 1 1 17
M  V30 19 1 1 18
M  V30 20 1 1 19
M  V30 21 1 2 20
M  V30 22 1 7 21
M  V30 23 1 7 22
M  V30 24 1 7 23
M  V30 25 1 11 24
M  V30 26 1 11 25
M  V30 27 1 12 26
M  V30 28 1 12 27
M  V30 29 1 14 28
M  V30 30 1 14 29
M  V30 31 1 15 30
M  V30 32 1 15 31
M  V30 END BOND
M  V30 END CTAB
M  END
>  <Dataset>  (608) 
ChEMBL_Kinases

>  <Ligand_Instance>  (608) 
nan

>  <PDB_ID>  (608) 
nan

>  <Standardized_SMILES>  (608) 
CNc1nc(OC)nc(N2CCOCC2)n1

>  <Name>  (608) 
nan

>  <Pocket>  (608) 
nan

>  <ATP_Site>  (608) 
nan

>  <Peripheral>  (608) 
nan

>  <Num_H_Atoms_ProtBoundConf>  (608) 
nan

>  <Num_Resolved_Atoms>  (608) 
nan

>  <Num_Not_Resolved_Atoms>  (608) 
nan

$$$$
CHEMBL1521607
     RDKit          3D

  0  0  0  0  0  0  0  0  0  0999 V3000
M  V30 BEGIN CTAB
M  V30 COUNTS 39 40 0 0 0
M  V30 BEGIN ATOM
M  V30 1 C 0.045905 -8.231707 0.222037 0
M  V30 2 C 1.266038 -7.641787 0.900307 0
M  V30 3 O 1.072810 -6.238362 1.034509 0
M  V30 4 C 0.878770 -5.375379 -0.031275 0
M  V30 5 O 0.863881 -5.813559 -1.220954 0
M  V30 6 C 0.712165 -3.975494 0.501092 0
M  V30 7 O 0.519759 -3.141982 -0.605688 0
M  V30 8 C 0.328093 -1.767880 -0.515637 0
M  V30 9 C 0.132551 -0.882432 -1.555785 0
M  V30 10 C -0.045209 0.464495 -1.313513 0
M  V30 11 C -0.034879 0.977124 -0.032583 0
M  V30 12 C -0.210909 2.321013 0.231126 0
M  V30 13 C -0.189988 2.770075 1.535934 0
M  V30 14 C -0.367635 4.170472 1.903688 0
M  V30 15 O -0.325428 4.436992 3.133693 0
M  V30 16 O -0.571591 5.172382 0.993048 0
M  V30 17 C -0.743653 6.544180 1.380765 0
M  V30 18 C 0.515753 6.949512 2.110632 0
M  V30 19 C 0.009143 1.843384 2.539619 0
M  V30 20 O 0.049802 2.121921 3.769762 0
M  V30 21 O 0.178388 0.549655 2.282885 0
M  V30 22 C 0.158675 0.113682 1.025727 0
M  V30 23 C 0.335385 -1.230859 0.772614 0
M  V30 24 H -0.540929 -7.434185 -0.279600 0
M  V30 25 H -0.610247 -8.630374 1.044787 0
M  V30 26 H 0.282119 -9.090918 -0.426757 0
M  V30 27 H 2.144190 -7.899371 0.304870 0
M  V30 28 H 1.399647 -8.060100 1.911695 0
M  V30 29 H -0.166893 -3.988685 1.186944 0
M  V30 30 H 1.601842 -3.685709 1.126251 0
M  V30 31 H 0.131456 -1.329484 -2.553072 0
M  V30 32 H -0.197822 1.138874 -2.160933 0
M  V30 33 H -0.363501 3.017588 -0.567563 0
M  V30 34 H -1.627866 6.633220 2.049620 0
M  V30 35 H -0.961908 7.179079 0.515471 0
M  V30 36 H 1.314542 6.217245 1.957660 0
M  V30 37 H 0.861256 7.960581 1.760059 0
M  V30 38 H 0.260278 7.064135 3.189862 0
M  V30 39 H 0.482980 -1.868145 1.624819 0
M  V30 END ATOM
M  V30 BEGIN BOND
M  V30 1 1 1 2
M  V30 2 1 2 3
M  V30 3 1 3 4
M  V30 4 2 4 5
M  V30 5 1 4 6
M  V30 6 1 6 7
M  V30 7 1 7 8
M  V30 8 2 8 9
M  V30 9 1 9 10
M  V30 10 2 10 11
M  V30 11 1 11 12
M  V30 12 2 12 13
M  V30 13 1 13 14
M  V30 14 2 14 15
M  V30 15 1 14 16
M  V30 16 1 16 17
M  V30 17 1 17 18
M  V30 18 1 13 19
M  V30 19 2 19 20
M  V30 20 1 19 21
M  V30 21 1 21 22
M  V30 22 2 22 23
M  V30 23 1 23 8
M  V30 24 1 22 11
M  V30 25 1 1 24
M  V30 26 1 1 25
M  V30 27 1 1 26
M  V30 28 1 2 27
M  V30 29 1 2 28
M  V30 30 1 6 29
M  V30 31 1 6 30
M  V30 32 1 9 31
M  V30 33 1 10 32
M  V30 34 1 12 33
M  V30 35 1 17 34
M  V30 36 1 17 35
M  V30 37 1 18 36
M  V30 38 1 18 37
M  V30 39 1 18 38
M  V30 40 1 23 39
M  V30 END BOND
M  V30 END CTAB
M  END
>  <Dataset>  (609) 
ChEMBL_Kinases

>  <Ligand_Instance>  (609) 
nan

>  <PDB_ID>  (609) 
nan

>  <Standardized_SMILES>  (609) 
CCOC(=O)COc1ccc2cc(C(=O)OCC)c(=O)oc2c1

>  <Name>  (609) 
nan

>  <Pocket>  (609) 
nan

>  <ATP_Site>  (609) 
nan

>  <Peripheral>  (609) 
nan

>  <Num_H_Atoms_ProtBoundConf>  (609) 
nan

>  <Num_Resolved_Atoms>  (609) 
nan

>  <Num_Not_Resolved_Atoms>  (609) 
nan

$$$$
CHEMBL1521862
     RDKit          3D

  0  0  0  0  0  0  0  0  0  0999 V3000
M  V30 BEGIN CTAB
M  V30 COUNTS 47 49 0 0 0
M  V30 BEGIN ATOM
M  V30 1 C 2.580009 -2.696318 3.138675 0
M  V30 2 C 1.643833 -3.306751 2.148557 0
M  V30 3 O 1.256228 -2.485841 1.093006 0
M  V30 4 C 2.062233 -1.893584 0.153611 0
M  V30 5 C 3.452357 -2.052587 0.148659 0
M  V30 6 C 4.212447 -1.433732 -0.820965 0
M  V30 7 C 3.656934 -0.649062 -1.807097 0
M  V30 8 C 2.262746 -0.532044 -1.743877 0
M  V30 9 C 1.401546 -1.116069 -0.805280 0
M  V30 10 C -0.023591 -0.863952 -0.896475 0
M  V30 11 O -0.182635 -1.895858 -1.558581 0
M  V30 12 N -0.809291 0.197383 -0.379633 0
M  V30 13 C -0.200123 1.288766 0.285294 0
M  V30 14 N -0.011642 1.177120 1.708839 0
M  V30 15 C -1.006963 1.589204 2.711052 0
M  V30 16 C -0.437882 1.055015 4.015022 0
M  V30 17 C 0.587939 0.009462 3.604108 0
M  V30 18 C 1.152370 0.656466 2.361418 0
M  V30 19 O 2.290971 0.828037 1.822223 0
M  V30 20 C -2.210184 0.148517 -0.575682 0
M  V30 21 C -3.014401 1.171520 -0.131966 0
M  V30 22 C -4.383355 1.208451 -0.278387 0
M  V30 23 C -5.046314 0.174994 -0.905432 0
M  V30 24 C -4.287863 -0.878382 -1.370667 0
M  V30 25 Cl -5.102363 -2.199205 -2.168050 0
M  V30 26 C -2.922691 -0.850567 -1.190463 0
M  V30 27 H 3.536842 -3.293960 3.204572 0
M  V30 28 H 2.825748 -1.668088 2.810738 0
M  V30 29 H 2.192014 -2.717302 4.180084 0
M  V30 30 H 2.070918 -4.271414 1.798553 0
M  V30 31 H 0.710341 -3.605692 2.703716 0
M  V30 32 H 3.897134 -2.667532 0.918014 0
M  V30 33 H 5.276290 -1.551688 -0.829711 0
M  V30 34 H 4.172507 -0.133055 -2.596842 0
M  V30 35 H 1.789644 0.080310 -2.507312 0
M  V30 36 H 0.831570 1.417639 -0.151331 0
M  V30 37 H -0.692844 2.269290 0.076913 0
M  V30 38 H -1.189170 2.663622 2.705910 0
M  V30 39 H -1.932065 0.978342 2.497026 0
M  V30 40 H 0.090027 1.855137 4.581749 0
M  V30 41 H -1.212784 0.584033 4.649598 0
M  V30 42 H 0.144220 -0.941479 3.307505 0
M  V30 43 H 1.349778 -0.122140 4.381657 0
M  V30 44 H -2.646359 2.048303 0.378001 0
M  V30 45 H -5.015139 2.012445 0.070318 0
M  V30 46 H -6.105676 0.179585 -1.031449 0
M  V30 47 H -2.423228 -1.711609 -1.584021 0
M  V30 END ATOM
M  V30 BEGIN BOND
M  V30 1 1 1 2
M  V30 2 1 2 3
M  V30 3 1 3 4
M  V30 4 2 4 5
M  V30 5 1 5 6
M  V30 6 2 6 7
M  V30 7 1 7 8
M  V30 8 2 8 9
M  V30 9 1 9 10
M  V30 10 2 10 11
M  V30 11 1 10 12
M  V30 12 1 12 13
M  V30 13 1 13 14
M  V30 14 1 14 15
M  V30 15 1 15 16
M  V30 16 1 16 17
M  V30 17 1 17 18
M  V30 18 2 18 19
M  V30 19 1 12 20
M  V30 20 2 20 21
M  V30 21 1 21 22
M  V30 22 2 22 23
M  V30 23 1 23 24
M  V30 24 1 24 25
M  V30 25 2 24 26
M  V30 26 1 9 4
M  V30 27 1 18 14
M  V30 28 1 26 20
M  V30 29 1 1 27
M  V30 30 1 1 28
M  V30 31 1 1 29
M  V30 32 1 2 30
M  V30 33 1 2 31
M  V30 34 1 5 32
M  V30 35 1 6 33
M  V30 36 1 7 34
M  V30 37 1 8 35
M  V30 38 1 13 36
M  V30 39 1 13 37
M  V30 40 1 15 38
M  V30 41 1 15 39
M  V30 42 1 16 40
M  V30 43 1 16 41
M  V30 44 1 17 42
M  V30 45 1 17 43
M  V30 46 1 21 44
M  V30 47 1 22 45
M  V30 48 1 23 46
M  V30 49 1 26 47
M  V30 END BOND
M  V30 END CTAB
M  END
>  <Dataset>  (610) 
ChEMBL_Kinases

>  <Ligand_Instance>  (610) 
nan

>  <PDB_ID>  (610) 
nan

>  <Standardized_SMILES>  (610) 
CCOc1ccccc1C(=O)N(CN1CCCC1=O)c1cccc(Cl)c1

>  <Name>  (610) 
nan

>  <Pocket>  (610) 
nan

>  <ATP_Site>  (610) 
nan

>  <Peripheral>  (610) 
nan

>  <Num_H_Atoms_ProtBoundConf>  (610) 
nan

>  <Num_Resolved_Atoms>  (610) 
nan

>  <Num_Not_Resolved_Atoms>  (610) 
nan

$$$$
CHEMBL152208
     RDKit          3D

  0  0  0  0  0  0  0  0  0  0999 V3000
M  V30 BEGIN CTAB
M  V30 COUNTS 42 44 0 0 0
M  V30 BEGIN ATOM
M  V30 1 C 0.289371 -4.763746 -3.017035 0
M  V30 2 C 0.405692 -4.924571 -1.543695 0
M  V30 3 C 0.467521 -6.208916 -1.054100 0
M  V30 4 C 0.576057 -6.464008 0.295784 0
M  V30 5 F 0.636414 -7.725140 0.775184 0
M  V30 6 C 0.621825 -5.396627 1.149897 0
M  V30 7 C 0.556657 -4.131575 0.609343 0
M  V30 8 C 0.448252 -3.823376 -0.719483 0
M  V30 9 N 0.365718 -2.543399 -1.290634 0
M  V30 10 C 0.321646 -1.238735 -0.756394 0
M  V30 11 C -0.298750 -0.843324 0.407088 0
M  V30 12 C -0.311930 0.428965 0.935314 0
M  V30 13 C 0.364695 1.394302 0.221383 0
M  V30 14 C 0.383707 2.760756 0.735329 0
M  V30 15 O 0.162224 3.670429 -0.126084 0
M  V30 16 C 0.655879 2.863967 2.165786 0
M  V30 17 C 1.689335 2.098003 2.698186 0
M  V30 18 C 1.992691 2.155305 4.048074 0
M  V30 19 C 1.267863 2.978869 4.886083 0
M  V30 20 C 0.238572 3.747797 4.381428 0
M  V30 21 C -0.053435 3.682296 3.038287 0
M  V30 22 C -1.135150 4.460729 2.382683 0
M  V30 23 C 1.024496 1.124106 -0.957602 0
M  V30 24 Cl 1.869764 2.353512 -1.840900 0
M  V30 25 C 0.974205 -0.178950 -1.394525 0
M  V30 26 H -0.608018 -4.100603 -3.176849 0
M  V30 27 H 1.163129 -4.268177 -3.464304 0
M  V30 28 H 0.067543 -5.717915 -3.515089 0
M  V30 29 H 0.430435 -7.054980 -1.743916 0
M  V30 30 H 0.706136 -5.572623 2.203636 0
M  V30 31 H 0.609345 -3.331566 1.331778 0
M  V30 32 H 0.320711 -2.487032 -2.346028 0
M  V30 33 H -0.849973 -1.571110 0.982683 0
M  V30 34 H -0.821497 0.661838 1.855343 0
M  V30 35 H 2.294584 1.434475 2.100738 0
M  V30 36 H 2.790206 1.575092 4.504943 0
M  V30 37 H 1.431158 3.090640 5.955158 0
M  V30 38 H -0.388683 4.427690 4.967791 0
M  V30 39 H -1.585768 5.142425 3.133602 0
M  V30 40 H -1.943597 3.813347 1.991240 0
M  V30 41 H -0.766194 5.068508 1.553189 0
M  V30 42 H 1.502056 -0.379225 -2.331600 0
M  V30 END ATOM
M  V30 BEGIN BOND
M  V30 1 1 1 2
M  V30 2 2 2 3
M  V30 3 1 3 4
M  V30 4 1 4 5
M  V30 5 2 4 6
M  V30 6 1 6 7
M  V30 7 2 7 8
M  V30 8 1 8 9
M  V30 9 1 9 10
M  V30 10 2 10 11
M  V30 11 1 11 12
M  V30 12 2 12 13
M  V30 13 1 13 14
M  V30 14 2 14 15
M  V30 15 1 14 16
M  V30 16 2 16 17
M  V30 17 1 17 18
M  V30 18 2 18 19
M  V30 19 1 19 20
M  V30 20 2 20 21
M  V30 21 1 21 22
M  V30 22 1 13 23
M  V30 23 1 23 24
M  V30 24 2 23 25
M  V30 25 1 8 2
M  V30 26 1 25 10
M  V30 27 1 21 16
M  V30 28 1 1 26
M  V30 29 1 1 27
M  V30 30 1 1 28
M  V30 31 1 3 29
M  V30 32 1 6 30
M  V30 33 1 7 31
M  V30 34 1 9 32
M  V30 35 1 11 33
M  V30 36 1 12 34
M  V30 37 1 17 35
M  V30 38 1 18 36
M  V30 39 1 19 37
M  V30 40 1 20 38
M  V30 41 1 22 39
M  V30 42 1 22 40
M  V30 43 1 22 41
M  V30 44 1 25 42
M  V30 END BOND
M  V30 END CTAB
M  END
>  <Dataset>  (611) 
ChEMBL_Kinases

>  <Ligand_Instance>  (611) 
nan

>  <PDB_ID>  (611) 
nan

>  <Standardized_SMILES>  (611) 
Cc1cc(F)ccc1Nc1ccc(C(=O)c2ccccc2C)c(Cl)c1

>  <Name>  (611) 
nan

>  <Pocket>  (611) 
nan

>  <ATP_Site>  (611) 
nan

>  <Peripheral>  (611) 
nan

>  <Num_H_Atoms_ProtBoundConf>  (611) 
nan

>  <Num_Resolved_Atoms>  (611) 
nan

>  <Num_Not_Resolved_Atoms>  (611) 
nan

$$$$
CHEMBL1522086
     RDKit          3D

  0  0  0  0  0  0  0  0  0  0999 V3000
M  V30 BEGIN CTAB
M  V30 COUNTS 30 30 0 0 0
M  V30 BEGIN ATOM
M  V30 1 C -2.929263 -1.089168 0.076750 0
M  V30 2 C -2.478391 -1.521896 1.466408 0
M  V30 3 C -2.043301 -2.936386 1.466144 0
M  V30 4 C -0.928125 -3.351666 0.601933 0
M  V30 5 C 0.408824 -2.745481 0.802184 0
M  V30 6 C 0.463404 -1.293736 0.571631 0
M  V30 7 O 0.107438 -0.103663 0.276240 0
M  V30 8 N 1.814139 -0.890333 0.862801 0
M  V30 9 C 2.308331 0.463607 0.766209 0
M  V30 10 C 2.862543 1.005424 -0.374236 0
M  V30 11 C 3.296738 2.331350 -0.314972 0
M  V30 12 C 3.154102 3.024567 0.858591 0
M  V30 13 Cl 3.712643 4.693635 0.896187 0
M  V30 14 C 2.601373 2.481335 1.992955 0
M  V30 15 N 2.191854 1.197243 1.901630 0
M  V30 16 H -3.946095 -1.436182 -0.140774 0
M  V30 17 H -2.203183 -1.458664 -0.679672 0
M  V30 18 H -2.887776 0.003735 0.053347 0
M  V30 19 H -1.841754 -0.791537 1.953154 0
M  V30 20 H -3.459797 -1.516624 2.059127 0
M  V30 21 H -2.949872 -3.536435 1.125656 0
M  V30 22 H -1.901888 -3.298839 2.515947 0
M  V30 23 H -1.238475 -3.330239 -0.491480 0
M  V30 24 H -0.796635 -4.470632 0.773844 0
M  V30 25 H 1.174583 -3.214089 0.107593 0
M  V30 26 H 0.830392 -3.010239 1.818674 0
M  V30 27 H 2.749342 -1.320771 1.183930 0
M  V30 28 H 2.920252 0.347783 -1.247698 0
M  V30 29 H 3.719496 2.709881 -1.221664 0
M  V30 30 H 2.491976 3.040878 2.922466 0
M  V30 END ATOM
M  V30 BEGIN BOND
M  V30 1 1 1 2
M  V30 2 1 2 3
M  V30 3 1 3 4
M  V30 4 1 4 5
M  V30 5 1 5 6
M  V30 6 2 6 7
M  V30 7 1 6 8
M  V30 8 1 8 9
M  V30 9 2 9 10
M  V30 10 1 10 11
M  V30 11 2 11 12
M  V30 12 1 12 13
M  V30 13 1 12 14
M  V30 14 2 14 15
M  V30 15 1 15 9
M  V30 16 1 1 16
M  V30 17 1 1 17
M  V30 18 1 1 18
M  V30 19 1 2 19
M  V30 20 1 2 20
M  V30 21 1 3 21
M  V30 22 1 3 22
M  V30 23 1 4 23
M  V30 24 1 4 24
M  V30 25 1 5 25
M  V30 26 1 5 26
M  V30 27 1 8 27
M  V30 28 1 10 28
M  V30 29 1 11 29
M  V30 30 1 14 30
M  V30 END BOND
M  V30 END CTAB
M  END
>  <Dataset>  (612) 
ChEMBL_Kinases

>  <Ligand_Instance>  (612) 
nan

>  <PDB_ID>  (612) 
nan

>  <Standardized_SMILES>  (612) 
CCCCCC(=O)Nc1ccc(Cl)cn1

>  <Name>  (612) 
nan

>  <Pocket>  (612) 
nan

>  <ATP_Site>  (612) 
nan

>  <Peripheral>  (612) 
nan

>  <Num_H_Atoms_ProtBoundConf>  (612) 
nan

>  <Num_Resolved_Atoms>  (612) 
nan

>  <Num_Not_Resolved_Atoms>  (612) 
nan

$$$$
CHEMBL1522399
     RDKit          3D

  0  0  0  0  0  0  0  0  0  0999 V3000
M  V30 BEGIN CTAB
M  V30 COUNTS 38 39 0 0 0
M  V30 BEGIN ATOM
M  V30 1 C -1.495681 -1.970412 4.735175 0
M  V30 2 C -1.346020 -2.435539 3.336606 0
M  V30 3 C -0.251237 -3.076936 2.963531 0
M  V30 4 C 0.073083 -3.614286 1.614341 0
M  V30 5 S 1.566107 -2.835147 1.010187 0
M  V30 6 C 1.389620 -1.091414 0.684819 0
M  V30 7 N 1.599183 -0.089668 1.580318 0
M  V30 8 C 1.386105 1.108661 1.006570 0
M  V30 9 C 1.027451 0.861945 -0.303113 0
M  V30 10 C 0.735586 1.910554 -1.177712 0
M  V30 11 O 0.409981 1.739638 -2.357885 0
M  V30 12 N 0.834341 3.136092 -0.640070 0
M  V30 13 C 1.178318 3.423722 0.623883 0
M  V30 14 O 1.241615 4.627896 1.032490 0
M  V30 15 N 1.456395 2.377307 1.449987 0
M  V30 16 C 1.829991 2.679999 2.820521 0
M  V30 17 N 1.032977 -0.488534 -0.488911 0
M  V30 18 C 0.716357 -1.166872 -1.743219 0
M  V30 19 C -0.774559 -1.469955 -1.858087 0
M  V30 20 C -1.108996 -2.169698 -3.139905 0
M  V30 21 H -0.513354 -1.771753 5.205446 0
M  V30 22 H -2.065377 -1.024750 4.725054 0
M  V30 23 H -2.106940 -2.682326 5.341734 0
M  V30 24 H -2.083480 -2.291036 2.560370 0
M  V30 25 H 0.562207 -3.287814 3.635083 0
M  V30 26 H -0.808183 -3.485500 0.945289 0
M  V30 27 H 0.280746 -4.711075 1.659660 0
M  V30 28 H 0.628807 3.969669 -1.239822 0
M  V30 29 H 2.436369 1.835962 3.220916 0
M  V30 30 H 0.931320 2.779659 3.464195 0
M  V30 31 H 2.383562 3.633549 2.876325 0
M  V30 32 H 0.962778 -0.513901 -2.603794 0
M  V30 33 H 1.271412 -2.116528 -1.728747 0
M  V30 34 H -1.374984 -0.534652 -1.807509 0
M  V30 35 H -1.050311 -2.053837 -0.951366 0
M  V30 36 H -0.162878 -2.298237 -3.705678 0
M  V30 37 H -1.530362 -3.179177 -2.922951 0
M  V30 38 H -1.787231 -1.546741 -3.741549 0
M  V30 END ATOM
M  V30 BEGIN BOND
M  V30 1 1 1 2
M  V30 2 2 2 3
M  V30 3 1 3 4
M  V30 4 1 4 5
M  V30 5 1 5 6
M  V30 6 2 6 7
M  V30 7 1 7 8
M  V30 8 2 8 9
M  V30 9 1 9 10
M  V30 10 2 10 11
M  V30 11 1 10 12
M  V30 12 1 12 13
M  V30 13 2 13 14
M  V30 14 1 13 15
M  V30 15 1 15 16
M  V30 16 1 9 17
M  V30 17 1 17 18
M  V30 18 1 18 19
M  V30 19 1 19 20
M  V30 20 1 17 6
M  V30 21 1 15 8
M  V30 22 1 1 21
M  V30 23 1 1 22
M  V30 24 1 1 23
M  V30 25 1 2 24
M  V30 26 1 3 25
M  V30 27 1 4 26
M  V30 28 1 4 27
M  V30 29 1 12 28
M  V30 30 1 16 29
M  V30 31 1 16 30
M  V30 32 1 16 31
M  V30 33 1 18 32
M  V30 34 1 18 33
M  V30 35 1 19 34
M  V30 36 1 19 35
M  V30 37 1 20 36
M  V30 38 1 20 37
M  V30 39 1 20 38
M  V30 END BOND
M  V30 END CTAB
M  END
>  <Dataset>  (613) 
ChEMBL_Kinases

>  <Ligand_Instance>  (613) 
nan

>  <PDB_ID>  (613) 
nan

>  <Standardized_SMILES>  (613) 
C/C=C/CSc1nc2c(c(=O)[nH]c(=O)n2C)n1CCC

>  <Name>  (613) 
nan

>  <Pocket>  (613) 
nan

>  <ATP_Site>  (613) 
nan

>  <Peripheral>  (613) 
nan

>  <Num_H_Atoms_ProtBoundConf>  (613) 
nan

>  <Num_Resolved_Atoms>  (613) 
nan

>  <Num_Not_Resolved_Atoms>  (613) 
nan

$$$$
CHEMBL1522160
     RDKit          3D

  0  0  0  0  0  0  0  0  0  0999 V3000
M  V30 BEGIN CTAB
M  V30 COUNTS 57 61 0 0 0
M  V30 BEGIN ATOM
M  V30 1 N -4.220473 -0.006276 2.083547 0
M  V30 2 C -3.084626 -0.818429 1.808143 0
M  V30 3 N -2.167302 -0.882156 2.796278 0
M  V30 4 C -1.087858 -1.646387 2.550066 0
M  V30 5 C 0.063821 -1.875576 3.484879 0
M  V30 6 N 1.110961 -0.919775 3.319476 0
M  V30 7 C 1.694745 -0.895267 2.015381 0
M  V30 8 C 2.576637 0.358098 1.960763 0
M  V30 9 N 1.677780 1.486808 1.887536 0
M  V30 10 C 1.793662 2.566683 0.979726 0
M  V30 11 C 2.789563 2.689181 0.035791 0
M  V30 12 C 2.901873 3.739201 -0.846695 0
M  V30 13 C 1.939601 4.751510 -0.781406 0
M  V30 14 C 0.913650 4.661317 0.164063 0
M  V30 15 Cl -0.284411 5.933949 0.236153 0
M  V30 16 C 0.862836 3.582258 1.015667 0
M  V30 17 C 0.613446 1.435800 2.839869 0
M  V30 18 C 0.852723 0.382760 3.866468 0
M  V30 19 N -0.916806 -2.310726 1.400565 0
M  V30 20 C -1.811208 -2.266187 0.401145 0
M  V30 21 N -1.933943 -2.829683 -0.899322 0
M  V30 22 C -2.980484 -2.568744 -1.892045 0
M  V30 23 C -2.309720 -2.015280 -3.112143 0
M  V30 24 C -1.536884 -3.129639 -3.775282 0
M  V30 25 C -0.799543 -3.868225 -2.722571 0
M  V30 26 C 0.153269 -4.769952 -3.185251 0
M  V30 27 C 0.911700 -5.527124 -2.309178 0
M  V30 28 C 0.755242 -5.420425 -0.931139 0
M  V30 29 C -0.192593 -4.522942 -0.487853 0
M  V30 30 C -0.956144 -3.761081 -1.345390 0
M  V30 31 N -2.880332 -1.496652 0.670782 0
M  V30 32 H -4.231605 0.981372 2.445864 0
M  V30 33 H -5.139916 -0.493075 1.886458 0
M  V30 34 H -0.341620 -1.722401 4.527092 0
M  V30 35 H 0.445072 -2.896552 3.450001 0
M  V30 36 H 2.300647 -1.801885 1.863253 0
M  V30 37 H 0.918533 -0.769505 1.211333 0
M  V30 38 H 3.300888 0.286203 1.149065 0
M  V30 39 H 3.075075 0.450377 2.967793 0
M  V30 40 H 3.542991 1.922395 -0.034546 0
M  V30 41 H 3.725433 3.773828 -1.577370 0
M  V30 42 H 2.018819 5.571794 -1.463530 0
M  V30 43 H 0.042945 3.582772 1.716893 0
M  V30 44 H -0.403830 1.414023 2.398165 0
M  V30 45 H 0.647265 2.422836 3.388316 0
M  V30 46 H 1.718925 0.674743 4.495974 0
M  V30 47 H -0.027818 0.388995 4.557217 0
M  V30 48 H -3.483335 -3.514995 -2.098083 0
M  V30 49 H -3.647629 -1.822002 -1.397136 0
M  V30 50 H -3.109654 -1.611545 -3.765165 0
M  V30 51 H -1.582821 -1.249240 -2.797904 0
M  V30 52 H -0.846580 -2.758325 -4.557412 0
M  V30 53 H -2.283845 -3.851655 -4.188767 0
M  V30 54 H 0.333751 -4.909584 -4.258506 0
M  V30 55 H 1.648987 -6.222574 -2.736633 0
M  V30 56 H 1.357144 -6.020007 -0.278845 0
M  V30 57 H -0.364990 -4.396784 0.559540 0
M  V30 END ATOM
M  V30 BEGIN BOND
M  V30 1 1 1 2
M  V30 2 2 2 3
M  V30 3 1 3 4
M  V30 4 1 4 5
M  V30 5 1 5 6
M  V30 6 1 6 7
M  V30 7 1 7 8
M  V30 8 1 8 9
M  V30 9 1 9 10
M  V30 10 2 10 11
M  V30 11 1 11 12
M  V30 12 2 12 13
M  V30 13 1 13 14
M  V30 14 1 14 15
M  V30 15 2 14 16
M  V30 16 1 9 17
M  V30 17 1 17 18
M  V30 18 2 4 19
M  V30 19 1 19 20
M  V30 20 1 20 21
M  V30 21 1 21 22
M  V30 22 1 22 23
M  V30 23 1 23 24
M  V30 24 1 24 25
M  V30 25 2 25 26
M  V30 26 1 26 27
M  V30 27 2 27 28
M  V30 28 1 28 29
M  V30 29 2 29 30
M  V30 30 2 20 31
M  V30 31 1 31 2
M  V30 32 1 18 6
M  V30 33 1 30 21
M  V30 34 1 16 10
M  V30 35 1 30 25
M  V30 36 1 1 32
M  V30 37 1 1 33
M  V30 38 1 5 34
M  V30 39 1 5 35
M  V30 40 1 7 36
M  V30 41 1 7 37
M  V30 42 1 8 38
M  V30 43 1 8 39
M  V30 44 1 11 40
M  V30 45 1 12 41
M  V30 46 1 13 42
M  V30 47 1 16 43
M  V30 48 1 17 44
M  V30 49 1 17 45
M  V30 50 1 18 46
M  V30 51 1 18 47
M  V30 52 1 22 48
M  V30 53 1 22 49
M  V30 54 1 23 50
M  V30 55 1 23 51
M  V30 56 1 24 52
M  V30 57 1 24 53
M  V30 58 1 26 54
M  V30 59 1 27 55
M  V30 60 1 28 56
M  V30 61 1 29 57
M  V30 END BOND
M  V30 END CTAB
M  END
>  <Dataset>  (614) 
ChEMBL_Kinases

>  <Ligand_Instance>  (614) 
nan

>  <PDB_ID>  (614) 
nan

>  <Standardized_SMILES>  (614) 
Nc1nc(CN2CCN(c3cccc(Cl)c3)CC2)nc(N2CCCc3ccccc32)n1

>  <Name>  (614) 
nan

>  <Pocket>  (614) 
nan

>  <ATP_Site>  (614) 
nan

>  <Peripheral>  (614) 
nan

>  <Num_H_Atoms_ProtBoundConf>  (614) 
nan

>  <Num_Resolved_Atoms>  (614) 
nan

>  <Num_Not_Resolved_Atoms>  (614) 
nan

$$$$
CHEMBL1522275
     RDKit          3D

  0  0  0  0  0  0  0  0  0  0999 V3000
M  V30 BEGIN CTAB
M  V30 COUNTS 40 41 0 0 0
M  V30 BEGIN ATOM
M  V30 1 C -1.907602 -3.586618 0.813914 0
M  V30 2 C -0.454400 -3.781657 0.372694 0
M  V30 3 C 0.248433 -4.496835 1.474051 0
M  V30 4 C 0.077687 -2.404969 0.066905 0
M  V30 5 C 1.499765 -2.381131 -0.386218 0 CFG=2
M  V30 6 N 2.313071 -2.957775 0.694215 0
M  V30 7 C 1.861674 -0.954729 -0.610254 0
M  V30 8 N 3.140414 -0.524199 -0.672222 0
M  V30 9 N 3.147967 0.800324 -0.881843 0
M  V30 10 C 1.839169 1.176863 -0.947769 0
M  V30 11 S 1.211682 2.791938 -1.206448 0
M  V30 12 O -0.084716 2.771859 -1.960170 0
M  V30 13 O 2.159485 3.643733 -1.986096 0
M  V30 14 C 0.996141 3.591808 0.386185 0
M  V30 15 C 0.043460 2.817214 1.218436 0
M  V30 16 C 0.576954 1.822680 2.035013 0
M  V30 17 C -0.236066 1.062079 2.834661 0
M  V30 18 C -1.579162 1.319263 2.796361 0
M  V30 19 F -2.372743 0.546701 3.603954 0
M  V30 20 C -2.189411 2.284440 2.017155 0
M  V30 21 C -1.324639 3.030496 1.223148 0
M  V30 22 O 1.119489 0.112679 -0.782800 0
M  V30 23 H -2.410912 -2.837464 0.151295 0
M  V30 24 H -1.868235 -3.199618 1.840126 0
M  V30 25 H -2.437028 -4.559300 0.817499 0
M  V30 26 H -0.414070 -4.405999 -0.541188 0
M  V30 27 H -0.496877 -5.207343 1.938210 0
M  V30 28 H 1.081391 -5.138761 1.156270 0
M  V30 29 H 0.535884 -3.821859 2.319602 0
M  V30 30 H -0.022227 -1.731070 0.942107 0
M  V30 31 H -0.582743 -2.008376 -0.749719 0
M  V30 32 H 1.668743 -2.917381 -1.333526 0
M  V30 33 H 3.317660 -2.820589 0.378586 0
M  V30 34 H 2.229561 -2.319267 1.520656 0
M  V30 35 H 0.647524 4.625554 0.199157 0
M  V30 36 H 1.993990 3.596059 0.872456 0
M  V30 37 H 1.649981 1.651306 2.035004 0
M  V30 38 H 0.189295 0.292054 3.465128 0
M  V30 39 H -3.245326 2.447507 2.022185 0
M  V30 40 H -1.719784 3.821937 0.569107 0
M  V30 END ATOM
M  V30 BEGIN BOND
M  V30 1 1 1 2
M  V30 2 1 2 3
M  V30 3 1 2 4
M  V30 4 1 4 5
M  V30 5 1 5 6
M  V30 6 1 5 7
M  V30 7 2 7 8
M  V30 8 1 8 9
M  V30 9 2 9 10
M  V30 10 1 10 11
M  V30 11 2 11 12
M  V30 12 2 11 13
M  V30 13 1 11 14
M  V30 14 1 14 15
M  V30 15 2 15 16
M  V30 16 1 16 17
M  V30 17 2 17 18
M  V30 18 1 18 19
M  V30 19 1 18 20
M  V30 20 2 20 21
M  V30 21 1 10 22
M  V30 22 1 22 7
M  V30 23 1 21 15
M  V30 24 1 1 23
M  V30 25 1 1 24
M  V30 26 1 1 25
M  V30 27 1 2 26
M  V30 28 1 3 27
M  V30 29 1 3 28
M  V30 30 1 3 29
M  V30 31 1 4 30
M  V30 32 1 4 31
M  V30 33 1 5 32 CFG=3
M  V30 34 1 6 33
M  V30 35 1 6 34
M  V30 36 1 14 35
M  V30 37 1 14 36
M  V30 38 1 16 37
M  V30 39 1 17 38
M  V30 40 1 20 39
M  V30 41 1 21 40
M  V30 END BOND
M  V30 END CTAB
M  END
>  <Dataset>  (615) 
ChEMBL_Kinases

>  <Ligand_Instance>  (615) 
nan

>  <PDB_ID>  (615) 
nan

>  <Standardized_SMILES>  (615) 
CC(C)C[C@H](N)c1nnc(S(=O)(=O)Cc2ccc(F)cc2)o1

>  <Name>  (615) 
nan

>  <Pocket>  (615) 
nan

>  <ATP_Site>  (615) 
nan

>  <Peripheral>  (615) 
nan

>  <Num_H_Atoms_ProtBoundConf>  (615) 
nan

>  <Num_Resolved_Atoms>  (615) 
nan

>  <Num_Not_Resolved_Atoms>  (615) 
nan

$$$$
CHEMBL1522306
     RDKit          3D

  0  0  0  0  0  0  0  0  0  0999 V3000
M  V30 BEGIN CTAB
M  V30 COUNTS 58 60 0 0 0
M  V30 BEGIN ATOM
M  V30 1 C 1.655146 -0.056790 6.218305 0
M  V30 2 C 1.948780 -0.407652 4.773026 0
M  V30 3 N 2.101041 0.834904 4.029727 0
M  V30 4 C 3.271360 1.549629 4.405205 0
M  V30 5 C 4.575154 0.917754 4.035543 0
M  V30 6 C 1.957263 0.592797 2.599869 0
M  V30 7 C 2.089287 1.811911 1.772144 0
M  V30 8 C 1.994084 1.599375 0.296969 0
M  V30 9 N 0.812484 1.007329 -0.237064 0
M  V30 10 C -0.364629 1.802996 -0.512444 0
M  V30 11 O -0.495288 3.030608 -0.175022 0
M  V30 12 C -1.264948 0.892741 -1.213891 0
M  V30 13 O -2.462427 1.432500 -1.585903 0
M  V30 14 C -0.704028 -0.295219 -1.339360 0
M  V30 15 C -1.195403 -1.488765 -1.950366 0
M  V30 16 O -0.287142 -2.393152 -1.819233 0
M  V30 17 C -2.311799 -2.050704 -2.648433 0
M  V30 18 C -3.465785 -1.397304 -3.002711 0
M  V30 19 C -4.568812 -1.878460 -3.663589 0
M  V30 20 C -4.463738 -3.229693 -4.007924 0
M  V30 21 O -5.497357 -3.865522 -4.681218 0
M  V30 22 C -6.657948 -3.120767 -5.012931 0
M  V30 23 C -3.363015 -3.986597 -3.708561 0
M  V30 24 Cl -3.290298 -5.674331 -4.164407 0
M  V30 25 C -2.330556 -3.376511 -3.043402 0
M  V30 26 C 0.677524 -0.336034 -0.664544 0
M  V30 27 C 0.736938 -1.437839 0.265017 0
M  V30 28 C 1.673260 -2.460916 0.097545 0
M  V30 29 C 1.568010 -3.412241 1.075717 0
M  V30 30 C 0.540122 -2.930631 1.835977 0
M  V30 31 O 0.121858 -1.823172 1.325800 0
M  V30 32 H 0.850158 -0.724515 6.640017 0
M  V30 33 H 2.512293 -0.148324 6.888296 0
M  V30 34 H 1.279763 1.002407 6.296608 0
M  V30 35 H 2.845585 -1.057848 4.728628 0
M  V30 36 H 1.075099 -0.994136 4.398952 0
M  V30 37 H 3.260674 1.626989 5.535862 0
M  V30 38 H 3.253133 2.579875 4.028666 0
M  V30 39 H 5.344638 1.382463 4.720027 0
M  V30 40 H 4.891908 1.122609 2.999975 0
M  V30 41 H 4.622170 -0.166771 4.286864 0
M  V30 42 H 2.510041 -0.250759 2.213933 0
M  V30 43 H 0.846466 0.322599 2.535871 0
M  V30 44 H 1.321783 2.598860 2.046162 0
M  V30 45 H 3.060683 2.316595 2.034075 0
M  V30 46 H 2.147178 2.594290 -0.241431 0
M  V30 47 H 2.898005 1.019325 -0.081804 0
M  V30 48 H -2.561635 2.137845 -2.303777 0
M  V30 49 H -3.629864 -0.376971 -2.786773 0
M  V30 50 H -5.459758 -1.351949 -3.930702 0
M  V30 51 H -7.099557 -2.596085 -4.123925 0
M  V30 52 H -7.455517 -3.748054 -5.427244 0
M  V30 53 H -6.382846 -2.363869 -5.798498 0
M  V30 54 H -1.489119 -4.065699 -2.846665 0
M  V30 55 H 1.418705 -0.453522 -1.526212 0
M  V30 56 H 2.435781 -2.570658 -0.689007 0
M  V30 57 H 2.119436 -4.318811 1.251818 0
M  V30 58 H 0.130266 -3.403982 2.737705 0
M  V30 END ATOM
M  V30 BEGIN BOND
M  V30 1 1 1 2
M  V30 2 1 2 3
M  V30 3 1 3 4
M  V30 4 1 4 5
M  V30 5 1 3 6
M  V30 6 1 6 7
M  V30 7 1 7 8
M  V30 8 1 8 9
M  V30 9 1 9 10
M  V30 10 2 10 11
M  V30 11 1 10 12
M  V30 12 1 12 13
M  V30 13 2 12 14
M  V30 14 1 14 15
M  V30 15 2 15 16
M  V30 16 1 15 17
M  V30 17 2 17 18
M  V30 18 1 18 19
M  V30 19 2 19 20
M  V30 20 1 20 21
M  V30 21 1 21 22
M  V30 22 1 20 23
M  V30 23 1 23 24
M  V30 24 2 23 25
M  V30 25 1 14 26
M  V30 26 1 26 27
M  V30 27 2 27 28
M  V30 28 1 28 29
M  V30 29 2 29 30
M  V30 30 1 30 31
M  V30 31 1 26 9
M  V30 32 1 31 27
M  V30 33 1 25 17
M  V30 34 1 1 32
M  V30 35 1 1 33
M  V30 36 1 1 34
M  V30 37 1 2 35
M  V30 38 1 2 36
M  V30 39 1 4 37
M  V30 40 1 4 38
M  V30 41 1 5 39
M  V30 42 1 5 40
M  V30 43 1 5 41
M  V30 44 1 6 42
M  V30 45 1 6 43
M  V30 46 1 7 44
M  V30 47 1 7 45
M  V30 48 1 8 46
M  V30 49 1 8 47
M  V30 50 1 13 48
M  V30 51 1 18 49
M  V30 52 1 19 50
M  V30 53 1 22 51
M  V30 54 1 22 52
M  V30 55 1 22 53
M  V30 56 1 25 54
M  V30 57 1 26 55
M  V30 58 1 28 56
M  V30 59 1 29 57
M  V30 60 1 30 58
M  V30 END BOND
M  V30 END CTAB
M  END
>  <Dataset>  (616) 
ChEMBL_Kinases

>  <Ligand_Instance>  (616) 
nan

>  <PDB_ID>  (616) 
nan

>  <Standardized_SMILES>  (616) 
CCN(CC)CCCN1C(=O)C(O)=C(C(=O)c2ccc(OC)c(Cl)c2)C1c1ccco1

>  <Name>  (616) 
nan

>  <Pocket>  (616) 
nan

>  <ATP_Site>  (616) 
nan

>  <Peripheral>  (616) 
nan

>  <Num_H_Atoms_ProtBoundConf>  (616) 
nan

>  <Num_Resolved_Atoms>  (616) 
nan

>  <Num_Not_Resolved_Atoms>  (616) 
nan

$$$$
CHEMBL1522339
     RDKit          3D

  0  0  0  0  0  0  0  0  0  0999 V3000
M  V30 BEGIN CTAB
M  V30 COUNTS 17 17 0 0 0
M  V30 BEGIN ATOM
M  V30 1 C -0.418236 0.323672 -1.005948 0
M  V30 2 C 0.027874 1.096825 0.212525 0
M  V30 3 C 0.090215 0.262469 1.457454 0
M  V30 4 S 1.272082 -1.126495 1.247850 0
M  V30 5 C 2.589127 -0.393036 2.219814 0
M  V30 6 N 3.932578 -0.797810 2.479171 0
M  V30 7 N 2.213302 0.708919 2.775099 0
M  V30 8 C 0.863969 1.041223 2.467486 0
M  V30 9 O 0.212813 1.997041 3.003168 0
M  V30 10 H -0.059031 -0.710672 -1.029712 0
M  V30 11 H -0.090080 0.891074 -1.901989 0
M  V30 12 H -1.539748 0.352801 -1.005592 0
M  V30 13 H 1.089685 1.408417 0.008178 0
M  V30 14 H -0.621321 1.949321 0.407887 0
M  V30 15 H -0.871761 -0.088663 1.842430 0
M  V30 16 H 4.828772 -0.688574 1.946766 0
M  V30 17 H 4.196710 -1.319458 3.352438 0
M  V30 END ATOM
M  V30 BEGIN BOND
M  V30 1 1 1 2
M  V30 2 1 2 3
M  V30 3 1 3 4
M  V30 4 1 4 5
M  V30 5 1 5 6
M  V30 6 2 5 7
M  V30 7 1 7 8
M  V30 8 2 8 9
M  V30 9 1 8 3
M  V30 10 1 1 10
M  V30 11 1 1 11
M  V30 12 1 1 12
M  V30 13 1 2 13
M  V30 14 1 2 14
M  V30 15 1 3 15
M  V30 16 1 6 16
M  V30 17 1 6 17
M  V30 END BOND
M  V30 END CTAB
M  END
>  <Dataset>  (617) 
ChEMBL_Kinases

>  <Ligand_Instance>  (617) 
nan

>  <PDB_ID>  (617) 
nan

>  <Standardized_SMILES>  (617) 
CCC1SC(N)=NC1=O

>  <Name>  (617) 
nan

>  <Pocket>  (617) 
nan

>  <ATP_Site>  (617) 
nan

>  <Peripheral>  (617) 
nan

>  <Num_H_Atoms_ProtBoundConf>  (617) 
nan

>  <Num_Resolved_Atoms>  (617) 
nan

>  <Num_Not_Resolved_Atoms>  (617) 
nan

$$$$
CHEMBL1522364
     RDKit          3D

  0  0  0  0  0  0  0  0  0  0999 V3000
M  V30 BEGIN CTAB
M  V30 COUNTS 26 27 0 0 0
M  V30 BEGIN ATOM
M  V30 1 C 0.008585 -4.241916 -0.238673 0
M  V30 2 O 0.597010 -3.016201 0.147070 0
M  V30 3 C 1.940327 -2.866105 0.408265 0
M  V30 4 O 2.727306 -3.809658 0.320006 0
M  V30 5 C 2.450571 -1.515065 0.810171 0
M  V30 6 S 4.286811 -1.370179 1.153080 0
M  V30 7 C 3.934801 0.456036 1.521047 0
M  V30 8 C 2.671201 0.723031 1.370858 0
M  V30 9 C 1.913476 -0.281004 1.008469 0
M  V30 10 N 0.524274 -0.108603 0.815037 0
M  V30 11 C -0.141088 1.128618 0.992565 0
M  V30 12 O 0.416839 2.174484 1.331167 0
M  V30 13 C -1.577206 1.277989 0.785856 0
M  V30 14 C -2.291330 2.444237 0.938644 0
M  V30 15 C -3.639752 2.186046 0.651312 0
M  V30 16 C -3.649266 0.840034 0.334676 0
M  V30 17 O -2.426465 0.341983 0.423874 0
M  V30 18 H 0.283807 -5.028071 0.463557 0
M  V30 19 H -1.105351 -4.093737 -0.159260 0
M  V30 20 H 0.234157 -4.503617 -1.298429 0
M  V30 21 H 5.038972 0.971267 1.827395 0
M  V30 22 H 2.629866 1.766513 1.608002 0
M  V30 23 H -0.126478 -0.855929 0.530665 0
M  V30 24 H -1.955414 3.438021 1.227766 0
M  V30 25 H -4.432678 2.918022 0.689202 0
M  V30 26 H -4.537020 0.286875 0.055823 0
M  V30 END ATOM
M  V30 BEGIN BOND
M  V30 1 1 1 2
M  V30 2 1 2 3
M  V30 3 2 3 4
M  V30 4 1 3 5
M  V30 5 1 5 6
M  V30 6 1 6 7
M  V30 7 2 7 8
M  V30 8 1 8 9
M  V30 9 1 9 10
M  V30 10 1 10 11
M  V30 11 2 11 12
M  V30 12 1 11 13
M  V30 13 2 13 14
M  V30 14 1 14 15
M  V30 15 2 15 16
M  V30 16 1 16 17
M  V30 17 2 9 5
M  V30 18 1 17 13
M  V30 19 1 1 18
M  V30 20 1 1 19
M  V30 21 1 1 20
M  V30 22 1 7 21
M  V30 23 1 8 22
M  V30 24 1 10 23
M  V30 25 1 14 24
M  V30 26 1 15 25
M  V30 27 1 16 26
M  V30 END BOND
M  V30 END CTAB
M  END
>  <Dataset>  (618) 
ChEMBL_Kinases

>  <Ligand_Instance>  (618) 
nan

>  <PDB_ID>  (618) 
nan

>  <Standardized_SMILES>  (618) 
COC(=O)c1sccc1NC(=O)c1ccco1

>  <Name>  (618) 
nan

>  <Pocket>  (618) 
nan

>  <ATP_Site>  (618) 
nan

>  <Peripheral>  (618) 
nan

>  <Num_H_Atoms_ProtBoundConf>  (618) 
nan

>  <Num_Resolved_Atoms>  (618) 
nan

>  <Num_Not_Resolved_Atoms>  (618) 
nan

$$$$
CHEMBL1522373
     RDKit          3D

  0  0  0  0  0  0  0  0  0  0999 V3000
M  V30 BEGIN CTAB
M  V30 COUNTS 52 54 0 0 0
M  V30 BEGIN ATOM
M  V30 1 C 0.133816 -6.021245 4.157061 0
M  V30 2 C 1.449036 -5.256012 4.027186 0
M  V30 3 O 1.195970 -4.140162 3.197764 0
M  V30 4 C 2.116999 -3.209986 2.839837 0
M  V30 5 O 2.927714 -3.878363 3.530874 0
M  V30 6 C 2.235090 -2.001302 2.056924 0
M  V30 7 C 3.523621 -1.517033 2.109079 0
M  V30 8 N 3.800475 -0.371182 1.415420 0
M  V30 9 C 2.802492 0.237967 0.709115 0
M  V30 10 N 2.979191 1.430989 -0.045991 0
M  V30 11 N 3.514722 1.441966 -1.266264 0
M  V30 12 C 3.559191 2.697165 -1.739355 0
M  V30 13 C 4.076208 3.186237 -3.059315 0
M  V30 14 C 3.022411 3.550741 -0.772495 0
M  V30 15 C 2.669394 2.703718 0.280811 0
M  V30 16 C 2.048124 3.119157 1.569504 0
M  V30 17 N 1.566419 -0.274662 0.691615 0
M  V30 18 C 1.222463 -1.390714 1.345336 0
M  V30 19 N -0.064717 -1.975636 1.361780 0
M  V30 20 C -1.217690 -1.522159 0.714105 0
M  V30 21 C -1.324692 -0.412201 -0.071440 0
M  V30 22 C -2.458958 0.036929 -0.710697 0
M  V30 23 C -3.624402 -0.685630 -0.563172 0
M  V30 24 N -4.852534 -0.326324 -1.169066 0
M  V30 25 C -6.076160 -1.113799 -0.994646 0
M  V30 26 C -4.846919 0.887591 -1.991963 0
M  V30 27 C -3.597965 -1.821232 0.216065 0
M  V30 28 C -2.424439 -2.203188 0.821249 0
M  V30 29 H -0.202490 -5.997734 5.216176 0
M  V30 30 H 0.233952 -7.090651 3.885024 0
M  V30 31 H -0.675172 -5.566506 3.521253 0
M  V30 32 H 1.853924 -4.990941 5.024825 0
M  V30 33 H 2.169918 -5.933962 3.528077 0
M  V30 34 H 4.366573 -1.931659 2.638065 0
M  V30 35 H 3.428871 3.960512 -3.486818 0
M  V30 36 H 5.123776 3.501936 -2.880021 0
M  V30 37 H 4.131170 2.269965 -3.705128 0
M  V30 38 H 2.890468 4.628999 -0.792229 0
M  V30 39 H 1.398252 4.004990 1.460754 0
M  V30 40 H 1.413360 2.317081 1.996424 0
M  V30 41 H 2.803528 3.339724 2.350626 0
M  V30 42 H -0.199252 -2.849679 1.914442 0
M  V30 43 H -0.482971 0.221816 -0.254224 0
M  V30 44 H -2.522650 0.905523 -1.319519 0
M  V30 45 H -6.067750 -2.006088 -1.666398 0
M  V30 46 H -6.921234 -0.485567 -1.356410 0
M  V30 47 H -6.259174 -1.383321 0.063888 0
M  V30 48 H -5.881607 1.091943 -2.337528 0
M  V30 49 H -4.143919 0.689706 -2.827085 0
M  V30 50 H -4.455784 1.753058 -1.415565 0
M  V30 51 H -4.503670 -2.397765 0.340905 0
M  V30 52 H -2.488638 -3.119552 1.424832 0
M  V30 END ATOM
M  V30 BEGIN BOND
M  V30 1 1 1 2
M  V30 2 1 2 3
M  V30 3 1 3 4
M  V30 4 2 4 5
M  V30 5 1 4 6
M  V30 6 2 6 7
M  V30 7 1 7 8
M  V30 8 2 8 9
M  V30 9 1 9 10
M  V30 10 1 10 11
M  V30 11 2 11 12
M  V30 12 1 12 13
M  V30 13 1 12 14
M  V30 14 2 14 15
M  V30 15 1 15 16
M  V30 16 1 9 17
M  V30 17 2 17 18
M  V30 18 1 18 19
M  V30 19 1 19 20
M  V30 20 2 20 21
M  V30 21 1 21 22
M  V30 22 2 22 23
M  V30 23 1 23 24
M  V30 24 1 24 25
M  V30 25 1 24 26
M  V30 26 1 23 27
M  V30 27 2 27 28
M  V30 28 1 18 6
M  V30 29 1 28 20
M  V30 30 1 15 10
M  V30 31 1 1 29
M  V30 32 1 1 30
M  V30 33 1 1 31
M  V30 34 1 2 32
M  V30 35 1 2 33
M  V30 36 1 7 34
M  V30 37 1 13 35
M  V30 38 1 13 36
M  V30 39 1 13 37
M  V30 40 1 14 38
M  V30 41 1 16 39
M  V30 42 1 16 40
M  V30 43 1 16 41
M  V30 44 1 19 42
M  V30 45 1 21 43
M  V30 46 1 22 44
M  V30 47 1 25 45
M  V30 48 1 25 46
M  V30 49 1 25 47
M  V30 50 1 26 48
M  V30 51 1 26 49
M  V30 52 1 26 50
M  V30 53 1 27 51
M  V30 54 1 28 52
M  V30 END BOND
M  V30 END CTAB
M  END
>  <Dataset>  (619) 
ChEMBL_Kinases

>  <Ligand_Instance>  (619) 
nan

>  <PDB_ID>  (619) 
nan

>  <Standardized_SMILES>  (619) 
CCOC(=O)c1cnc(-n2nc(C)cc2C)nc1Nc1ccc(N(C)C)cc1

>  <Name>  (619) 
nan

>  <Pocket>  (619) 
nan

>  <ATP_Site>  (619) 
nan

>  <Peripheral>  (619) 
nan

>  <Num_H_Atoms_ProtBoundConf>  (619) 
nan

>  <Num_Resolved_Atoms>  (619) 
nan

>  <Num_Not_Resolved_Atoms>  (619) 
nan

$$$$
CHEMBL1522390
     RDKit          3D

  0  0  0  0  0  0  0  0  0  0999 V3000
M  V30 BEGIN CTAB
M  V30 COUNTS 48 51 0 0 0
M  V30 BEGIN ATOM
M  V30 1 C 4.558472 -2.414159 0.664235 0
M  V30 2 C 3.786408 -1.176524 0.371849 0 CFG=2
M  V30 3 N 3.114154 -0.715901 1.579277 0
M  V30 4 C 2.297344 0.460169 1.568012 0
M  V30 5 N 2.437549 1.317476 0.613252 0
M  V30 6 S 1.342543 2.636197 0.831015 0
M  V30 7 O 2.026997 3.926368 1.040223 0
M  V30 8 O 0.356772 2.628440 -0.290724 0
M  V30 9 C 0.650621 1.974086 2.319156 0
M  V30 10 C -0.329265 2.501384 3.103220 0
M  V30 11 C -0.710716 1.808063 4.219744 0
M  V30 12 C -0.077877 0.620026 4.478693 0
M  V30 13 C 0.905220 0.099350 3.684538 0
M  V30 14 C 1.307282 0.781375 2.551622 0
M  V30 15 C 2.733296 -1.350532 -0.662465 0
M  V30 16 O 3.018313 -1.747013 -1.825671 0
M  V30 17 O 1.358931 -1.119411 -0.522425 0
M  V30 18 C 0.491681 -1.336468 -1.614793 0
M  V30 19 C -0.900599 -1.002206 -1.149787 0
M  V30 20 C -1.539619 0.186586 -1.513805 0
M  V30 21 C -2.816066 0.464553 -1.072251 0
M  V30 22 N -3.484857 1.663132 -1.426367 0 CHG=1 VAL=4
M  V30 23 O -3.044116 2.574268 -2.142849 0
M  V30 24 O -4.751665 1.905503 -0.966063 0 CHG=-1 VAL=1
M  V30 25 C -3.500302 -0.414619 -0.262448 0
M  V30 26 C -2.866240 -1.572668 0.086732 0
M  V30 27 C -1.573563 -1.907253 -0.330767 0
M  V30 28 O -1.020635 -3.110279 0.081978 0
M  V30 29 C -1.891871 -4.217206 0.188230 0
M  V30 30 O -3.201068 -3.905044 0.429205 0
M  V30 31 C -3.439468 -2.649571 0.952206 0
M  V30 32 H 4.098514 -3.072773 1.408209 0
M  V30 33 H 4.696494 -2.943865 -0.315703 0
M  V30 34 H 5.583049 -2.104619 0.958172 0
M  V30 35 H 4.446824 -0.317841 0.077696 0
M  V30 36 H 3.215812 -1.240819 2.487781 0
M  V30 37 H -0.812800 3.440454 2.876427 0
M  V30 38 H -1.490027 2.217275 4.851373 0
M  V30 39 H -0.355698 0.031008 5.367682 0
M  V30 40 H 1.368963 -0.858845 3.953695 0
M  V30 41 H 0.492868 -2.400197 -1.959345 0
M  V30 42 H 0.769627 -0.713603 -2.485616 0
M  V30 43 H -1.004583 0.869115 -2.144606 0
M  V30 44 H -4.498011 -0.257016 0.116091 0
M  V30 45 H -1.521629 -4.801993 1.078629 0
M  V30 46 H -1.851358 -4.876875 -0.701446 0
M  V30 47 H -3.092484 -2.547631 1.990018 0
M  V30 48 H -4.539193 -2.497106 0.952899 0
M  V30 END ATOM
M  V30 BEGIN BOND
M  V30 1 1 1 2
M  V30 2 1 2 3
M  V30 3 1 3 4
M  V30 4 2 4 5
M  V30 5 1 5 6
M  V30 6 2 6 7
M  V30 7 2 6 8
M  V30 8 1 6 9
M  V30 9 2 9 10
M  V30 10 1 10 11
M  V30 11 2 11 12
M  V30 12 1 12 13
M  V30 13 2 13 14
M  V30 14 1 2 15
M  V30 15 2 15 16
M  V30 16 1 15 17
M  V30 17 1 17 18
M  V30 18 1 18 19
M  V30 19 2 19 20
M  V30 20 1 20 21
M  V30 21 1 21 22
M  V30 22 2 22 23
M  V30 23 1 22 24
M  V30 24 2 21 25
M  V30 25 1 25 26
M  V30 26 2 26 27
M  V30 27 1 27 28
M  V30 28 1 28 29
M  V30 29 1 29 30
M  V30 30 1 30 31
M  V30 31 1 14 4
M  V30 32 1 27 19
M  V30 33 1 14 9
M  V30 34 1 31 26
M  V30 35 1 1 32
M  V30 36 1 1 33
M  V30 37 1 1 34
M  V30 38 1 2 35 CFG=3
M  V30 39 1 3 36
M  V30 40 1 10 37
M  V30 41 1 11 38
M  V30 42 1 12 39
M  V30 43 1 13 40
M  V30 44 1 18 41
M  V30 45 1 18 42
M  V30 46 1 20 43
M  V30 47 1 25 44
M  V30 48 1 29 45
M  V30 49 1 29 46
M  V30 50 1 31 47
M  V30 51 1 31 48
M  V30 END BOND
M  V30 END CTAB
M  END
>  <Dataset>  (620) 
ChEMBL_Kinases

>  <Ligand_Instance>  (620) 
nan

>  <PDB_ID>  (620) 
nan

>  <Standardized_SMILES>  (620) 
C[C@H](NC1=NS(=O)(=O)c2ccccc21)C(=O)OCc1cc([N+](=O)[O-])cc2c1OCOC2

>  <Name>  (620) 
nan

>  <Pocket>  (620) 
nan

>  <ATP_Site>  (620) 
nan

>  <Peripheral>  (620) 
nan

>  <Num_H_Atoms_ProtBoundConf>  (620) 
nan

>  <Num_Resolved_Atoms>  (620) 
nan

>  <Num_Not_Resolved_Atoms>  (620) 
nan

$$$$
CHEMBL1522395
     RDKit          3D

  0  0  0  0  0  0  0  0  0  0999 V3000
M  V30 BEGIN CTAB
M  V30 COUNTS 41 44 0 0 0
M  V30 BEGIN ATOM
M  V30 1 C 0.642361 -4.713701 -1.284301 0
M  V30 2 C 0.998822 -4.159239 0.061925 0
M  V30 3 C 2.157105 -4.821723 0.708707 0
M  V30 4 C 3.142983 -3.738552 1.088236 0
M  V30 5 C 2.624093 -2.575079 0.322623 0
M  V30 6 O 3.348074 -1.589639 -0.045234 0
M  V30 7 N 1.232162 -2.729533 0.071943 0
M  V30 8 C 0.015024 -2.019072 -0.166554 0
M  V30 9 C 0.203754 -0.577749 0.076894 0
M  V30 10 O 1.284038 -0.019160 0.446745 0
M  V30 11 N -0.834124 0.376729 -0.079979 0
M  V30 12 C -0.496509 1.744688 0.194439 0
M  V30 13 C -0.013591 2.592560 -0.802608 0
M  V30 14 C 0.315206 3.909647 -0.554342 0
M  V30 15 C 0.158216 4.401811 0.731967 0
M  V30 16 C -0.317775 3.579262 1.731213 0
M  V30 17 C -0.486719 4.042742 3.032542 0
M  V30 18 C -0.956812 3.281503 4.083442 0
M  V30 19 C -1.278073 1.952761 3.788430 0
M  V30 20 C -1.130863 1.436630 2.513808 0
M  V30 21 C -0.650719 2.252545 1.488562 0
M  V30 22 C -1.027428 -2.484301 0.828372 0
M  V30 23 S -0.496512 -4.201316 1.127155 0
M  V30 24 H -0.449469 -4.962779 -1.334128 0
M  V30 25 H 1.163758 -5.709181 -1.380009 0
M  V30 26 H 0.863029 -4.052447 -2.121945 0
M  V30 27 H 2.660463 -5.454886 -0.061869 0
M  V30 28 H 1.899067 -5.429602 1.599481 0
M  V30 29 H 3.075734 -3.575553 2.186019 0
M  V30 30 H 4.171791 -3.988601 0.759504 0
M  V30 31 H -0.302303 -2.259041 -1.198451 0
M  V30 32 H -1.799039 0.061401 -0.385884 0
M  V30 33 H 0.104054 2.187000 -1.812597 0
M  V30 34 H 0.689875 4.561330 -1.335537 0
M  V30 35 H 0.414347 5.450065 0.953246 0
M  V30 36 H -0.239231 5.084229 3.282212 0
M  V30 37 H -1.064262 3.699272 5.065205 0
M  V30 38 H -1.652049 1.329306 4.602115 0
M  V30 39 H -1.382819 0.406638 2.297609 0
M  V30 40 H -2.022526 -2.480461 0.318949 0
M  V30 41 H -1.010295 -1.904557 1.757177 0
M  V30 END ATOM
M  V30 BEGIN BOND
M  V30 1 1 1 2
M  V30 2 1 2 3
M  V30 3 1 3 4
M  V30 4 1 4 5
M  V30 5 2 5 6
M  V30 6 1 5 7
M  V30 7 1 7 8
M  V30 8 1 8 9
M  V30 9 2 9 10
M  V30 10 1 9 11
M  V30 11 1 11 12
M  V30 12 2 12 13
M  V30 13 1 13 14
M  V30 14 2 14 15
M  V30 15 1 15 16
M  V30 16 2 16 17
M  V30 17 1 17 18
M  V30 18 2 18 19
M  V30 19 1 19 20
M  V30 20 2 20 21
M  V30 21 1 8 22
M  V30 22 1 22 23
M  V30 23 1 7 2
M  V30 24 1 21 12
M  V30 25 1 23 2
M  V30 26 1 21 16
M  V30 27 1 1 24
M  V30 28 1 1 25
M  V30 29 1 1 26
M  V30 30 1 3 27
M  V30 31 1 3 28
M  V30 32 1 4 29
M  V30 33 1 4 30
M  V30 34 1 8 31
M  V30 35 1 11 32
M  V30 36 1 13 33
M  V30 37 1 14 34
M  V30 38 1 15 35
M  V30 39 1 17 36
M  V30 40 1 18 37
M  V30 41 1 19 38
M  V30 42 1 20 39
M  V30 43 1 22 40
M  V30 44 1 22 41
M  V30 END BOND
M  V30 END CTAB
M  END
>  <Dataset>  (621) 
ChEMBL_Kinases

>  <Ligand_Instance>  (621) 
nan

>  <PDB_ID>  (621) 
nan

>  <Standardized_SMILES>  (621) 
CC12CCC(=O)N1C(C(=O)Nc1cccc3ccccc13)CS2

>  <Name>  (621) 
nan

>  <Pocket>  (621) 
nan

>  <ATP_Site>  (621) 
nan

>  <Peripheral>  (621) 
nan

>  <Num_H_Atoms_ProtBoundConf>  (621) 
nan

>  <Num_Resolved_Atoms>  (621) 
nan

>  <Num_Not_Resolved_Atoms>  (621) 
nan

$$$$
CHEMBL1522139
     RDKit          3D

  0  0  0  0  0  0  0  0  0  0999 V3000
M  V30 BEGIN CTAB
M  V30 COUNTS 36 39 0 0 0
M  V30 BEGIN ATOM
M  V30 1 C -0.497660 -6.047050 2.232691 0
M  V30 2 O 0.792680 -5.631392 1.822775 0
M  V30 3 C 1.060297 -4.268901 1.876651 0
M  V30 4 C 2.351628 -3.935524 1.457427 0
M  V30 5 C 2.747290 -2.599926 1.463208 0
M  V30 6 C 1.862520 -1.602219 1.883881 0
M  V30 7 C 2.228615 -0.169926 1.910577 0
M  V30 8 C 1.912099 0.515546 0.629025 0
M  V30 9 N 2.814562 0.579876 -0.380977 0
M  V30 10 N 2.254164 1.250710 -1.395904 0
M  V30 11 C 1.013904 1.596848 -1.011783 0
M  V30 12 C 0.001249 2.301300 -1.672715 0
M  V30 13 C -0.075155 2.876001 -2.927501 0
M  V30 14 N -1.307417 3.413785 -2.993764 0
M  V30 15 N -1.933599 3.180965 -1.858218 0
M  V30 16 C -3.300134 3.610215 -1.545686 0
M  V30 17 C -1.194140 2.490570 -0.969013 0
M  V30 18 N -1.363910 2.026355 0.265497 0
M  V30 19 C -0.371367 1.351441 0.877390 0
M  V30 20 N 0.790594 1.147437 0.239633 0
M  V30 21 C 0.575666 -1.952179 2.299724 0
M  V30 22 C 0.193350 -3.277957 2.290301 0
M  V30 23 H -0.673570 -7.120084 2.015217 0
M  V30 24 H -0.528638 -5.938842 3.340172 0
M  V30 25 H -1.303201 -5.400460 1.812507 0
M  V30 26 H 3.100086 -4.644389 1.116267 0
M  V30 27 H 3.725020 -2.269171 1.154311 0
M  V30 28 H 1.722449 0.284387 2.790245 0
M  V30 29 H 3.316362 -0.111973 2.135848 0
M  V30 30 H 0.750657 2.842629 -3.638605 0
M  V30 31 H -3.910496 2.782639 -1.157520 0
M  V30 32 H -3.817192 3.965189 -2.480175 0
M  V30 33 H -3.257548 4.502675 -0.885360 0
M  V30 34 H -0.519223 0.985642 1.863625 0
M  V30 35 H -0.169727 -1.268124 2.637093 0
M  V30 36 H -0.776548 -3.592964 2.598140 0
M  V30 END ATOM
M  V30 BEGIN BOND
M  V30 1 1 1 2
M  V30 2 1 2 3
M  V30 3 2 3 4
M  V30 4 1 4 5
M  V30 5 2 5 6
M  V30 6 1 6 7
M  V30 7 1 7 8
M  V30 8 2 8 9
M  V30 9 1 9 10
M  V30 10 2 10 11
M  V30 11 1 11 12
M  V30 12 1 12 13
M  V30 13 2 13 14
M  V30 14 1 14 15
M  V30 15 1 15 16
M  V30 16 1 15 17
M  V30 17 1 17 18
M  V30 18 2 18 19
M  V30 19 1 19 20
M  V30 20 1 6 21
M  V30 21 2 21 22
M  V30 22 1 22 3
M  V30 23 1 20 8
M  V30 24 1 20 11
M  V30 25 2 17 12
M  V30 26 1 1 23
M  V30 27 1 1 24
M  V30 28 1 1 25
M  V30 29 1 4 26
M  V30 30 1 5 27
M  V30 31 1 7 28
M  V30 32 1 7 29
M  V30 33 1 13 30
M  V30 34 1 16 31
M  V30 35 1 16 32
M  V30 36 1 16 33
M  V30 37 1 19 34
M  V30 38 1 21 35
M  V30 39 1 22 36
M  V30 END BOND
M  V30 END CTAB
M  END
>  <Dataset>  (622) 
ChEMBL_Kinases

>  <Ligand_Instance>  (622) 
nan

>  <PDB_ID>  (622) 
nan

>  <Standardized_SMILES>  (622) 
COc1ccc(Cc2nnc3c4cnn(C)c4ncn23)cc1

>  <Name>  (622) 
nan

>  <Pocket>  (622) 
nan

>  <ATP_Site>  (622) 
nan

>  <Peripheral>  (622) 
nan

>  <Num_H_Atoms_ProtBoundConf>  (622) 
nan

>  <Num_Resolved_Atoms>  (622) 
nan

>  <Num_Not_Resolved_Atoms>  (622) 
nan

$$$$
CHEMBL1541708
     RDKit          3D

  0  0  0  0  0  0  0  0  0  0999 V3000
M  V30 BEGIN CTAB
M  V30 COUNTS 44 46 0 0 0
M  V30 BEGIN ATOM
M  V30 1 C 0.582875 -5.426106 2.833890 0
M  V30 2 C 0.819801 -3.920811 2.935552 0
M  V30 3 C 2.219226 -3.569290 2.504226 0
M  V30 4 S 2.581019 -1.877533 2.596260 0
M  V30 5 C 1.935753 -0.731479 1.443587 0
M  V30 6 N 2.526449 0.415049 1.904256 0
M  V30 7 C 2.182107 1.433115 1.068932 0
M  V30 8 C 1.386217 0.815350 0.137263 0
M  V30 9 C 0.888779 1.590904 -0.880287 0
M  V30 10 O 0.162228 1.143163 -1.791281 0
M  V30 11 N 1.146755 2.888417 -0.980924 0
M  V30 12 C 1.920850 3.498895 -0.071077 0
M  V30 13 O 2.217928 4.718090 -0.081843 0
M  V30 14 N 2.429050 2.776619 0.937086 0
M  V30 15 C 3.281500 3.360777 1.970360 0
M  V30 16 N 1.211981 -0.498195 0.337203 0
M  V30 17 C 0.521187 -1.567434 -0.271465 0
M  V30 18 C -0.886670 -1.822006 0.133075 0
M  V30 19 C -1.749287 -0.669932 -0.210179 0
M  V30 20 C -1.933655 0.393972 0.619678 0
M  V30 21 C -2.764752 1.427166 0.242975 0
M  V30 22 C -3.383519 1.311060 -1.006360 0
M  V30 23 C -3.228523 0.248367 -1.888293 0
M  V30 24 C -2.374004 -0.760765 -1.442734 0
M  V30 25 H -0.446912 -5.623895 2.490113 0
M  V30 26 H 1.291068 -5.887849 2.106781 0
M  V30 27 H 0.687242 -5.930003 3.823956 0
M  V30 28 H 0.650851 -3.648988 4.012566 0
M  V30 29 H 0.016693 -3.452384 2.381563 0
M  V30 30 H 2.322739 -4.034030 1.481822 0
M  V30 31 H 2.940604 -4.169190 3.155693 0
M  V30 32 H 0.787246 3.515716 -1.740166 0
M  V30 33 H 3.143616 4.471005 1.969802 0
M  V30 34 H 2.995767 2.943835 2.963801 0
M  V30 35 H 4.358860 3.165291 1.768307 0
M  V30 36 H 0.490918 -1.440685 -1.383532 0
M  V30 37 H 1.161060 -2.504425 -0.171652 0
M  V30 38 H -1.060360 -1.992040 1.216300 0
M  V30 39 H -1.205158 -2.761247 -0.380330 0
M  V30 40 H -1.413980 0.402760 1.573212 0
M  V30 41 H -2.937335 2.282905 0.866869 0
M  V30 42 H -4.050141 2.130648 -1.315675 0
M  V30 43 H -3.764368 0.275855 -2.828107 0
M  V30 44 H -2.263821 -1.591489 -2.153637 0
M  V30 END ATOM
M  V30 BEGIN BOND
M  V30 1 1 1 2
M  V30 2 1 2 3
M  V30 3 1 3 4
M  V30 4 1 4 5
M  V30 5 2 5 6
M  V30 6 1 6 7
M  V30 7 2 7 8
M  V30 8 1 8 9
M  V30 9 2 9 10
M  V30 10 1 9 11
M  V30 11 1 11 12
M  V30 12 2 12 13
M  V30 13 1 12 14
M  V30 14 1 14 15
M  V30 15 1 8 16
M  V30 16 1 16 17
M  V30 17 1 17 18
M  V30 18 1 18 19
M  V30 19 2 19 20
M  V30 20 1 20 21
M  V30 21 2 21 22
M  V30 22 1 22 23
M  V30 23 2 23 24
M  V30 24 1 16 5
M  V30 25 1 24 19
M  V30 26 1 14 7
M  V30 27 1 1 25
M  V30 28 1 1 26
M  V30 29 1 1 27
M  V30 30 1 2 28
M  V30 31 1 2 29
M  V30 32 1 3 30
M  V30 33 1 3 31
M  V30 34 1 11 32
M  V30 35 1 15 33
M  V30 36 1 15 34
M  V30 37 1 15 35
M  V30 38 1 17 36
M  V30 39 1 17 37
M  V30 40 1 18 38
M  V30 41 1 18 39
M  V30 42 1 20 40
M  V30 43 1 21 41
M  V30 44 1 22 42
M  V30 45 1 23 43
M  V30 46 1 24 44
M  V30 END BOND
M  V30 END CTAB
M  END
>  <Dataset>  (623) 
ChEMBL_Kinases

>  <Ligand_Instance>  (623) 
nan

>  <PDB_ID>  (623) 
nan

>  <Standardized_SMILES>  (623) 
CCCSc1nc2c(c(=O)[nH]c(=O)n2C)n1CCc1ccccc1

>  <Name>  (623) 
nan

>  <Pocket>  (623) 
nan

>  <ATP_Site>  (623) 
nan

>  <Peripheral>  (623) 
nan

>  <Num_H_Atoms_ProtBoundConf>  (623) 
nan

>  <Num_Resolved_Atoms>  (623) 
nan

>  <Num_Not_Resolved_Atoms>  (623) 
nan

$$$$
CHEMBL1541279
     RDKit          3D

  0  0  0  0  0  0  0  0  0  0999 V3000
M  V30 BEGIN CTAB
M  V30 COUNTS 45 47 0 0 0
M  V30 BEGIN ATOM
M  V30 1 N 3.808986 -3.286676 1.420266 0
M  V30 2 C 2.712145 -2.804532 2.184055 0
M  V30 3 N 2.491725 -3.339251 3.336187 0
M  V30 4 O 3.238209 -4.334787 3.871663 0
M  V30 5 C 1.860768 -1.735896 1.678936 0
M  V30 6 N 2.053023 -1.139225 0.468334 0
M  V30 7 C 1.255577 -0.158488 0.027689 0
M  V30 8 N 1.487059 0.441406 -1.242607 0
M  V30 9 C 2.600332 -0.027997 -2.050385 0
M  V30 10 C 1.950852 -0.508533 -3.341392 0
M  V30 11 C 1.366281 0.715536 -4.002827 0
M  V30 12 C 0.362638 1.444922 -3.184859 0
M  V30 13 C 0.622519 1.504133 -1.719178 0
M  V30 14 N 0.235530 0.247813 0.804756 0
M  V30 15 C 0.003213 -0.316418 2.019881 0
M  V30 16 N -1.060181 0.072371 2.884863 0
M  V30 17 C -1.258564 -0.566805 4.172176 0
M  V30 18 C -2.686969 -0.995831 4.377264 0
M  V30 19 C -3.567147 -0.697553 3.192016 0
M  V30 20 C -3.409297 0.705504 2.659819 0
M  V30 21 C -1.979944 1.122648 2.503889 0
M  V30 22 N 0.833219 -1.307354 2.431327 0
M  V30 23 H 3.584053 -4.287855 1.176858 0
M  V30 24 H 4.701693 -3.404309 0.898309 0
M  V30 25 H 2.877293 -5.148909 4.363310 0
M  V30 26 H 3.237477 0.852606 -2.321853 0
M  V30 27 H 3.146093 -0.816296 -1.537414 0
M  V30 28 H 1.132758 -1.228655 -3.072209 0
M  V30 29 H 2.695708 -0.943476 -4.008044 0
M  V30 30 H 2.209211 1.325452 -4.375512 0
M  V30 31 H 0.839728 0.330599 -4.924183 0
M  V30 32 H -0.654234 1.035019 -3.370415 0
M  V30 33 H 0.344095 2.499387 -3.584867 0
M  V30 34 H -0.350174 1.453447 -1.169247 0
M  V30 35 H 1.082933 2.493473 -1.454984 0
M  V30 36 H -0.626105 -1.462044 4.211991 0
M  V30 37 H -0.938015 0.077741 5.012513 0
M  V30 38 H -3.129164 -0.494453 5.259636 0
M  V30 39 H -2.771297 -2.078864 4.572076 0
M  V30 40 H -3.405227 -1.429712 2.367747 0
M  V30 41 H -4.622708 -0.799520 3.537397 0
M  V30 42 H -3.979343 1.402809 3.332876 0
M  V30 43 H -3.928698 0.746153 1.687582 0
M  V30 44 H -1.749520 1.452011 1.470546 0
M  V30 45 H -1.787698 2.017406 3.156160 0
M  V30 END ATOM
M  V30 BEGIN BOND
M  V30 1 1 1 2
M  V30 2 2 2 3 CFG=2
M  V30 3 1 3 4
M  V30 4 1 2 5
M  V30 5 2 5 6
M  V30 6 1 6 7
M  V30 7 1 7 8
M  V30 8 1 8 9
M  V30 9 1 9 10
M  V30 10 1 10 11
M  V30 11 1 11 12
M  V30 12 1 12 13
M  V30 13 2 7 14
M  V30 14 1 14 15
M  V30 15 1 15 16
M  V30 16 1 16 17
M  V30 17 1 17 18
M  V30 18 1 18 19
M  V30 19 1 19 20
M  V30 20 1 20 21
M  V30 21 2 15 22
M  V30 22 1 22 5
M  V30 23 1 13 8
M  V30 24 1 21 16
M  V30 25 1 1 23
M  V30 26 1 1 24
M  V30 27 1 4 25
M  V30 28 1 9 26
M  V30 29 1 9 27
M  V30 30 1 10 28
M  V30 31 1 10 29
M  V30 32 1 11 30
M  V30 33 1 11 31
M  V30 34 1 12 32
M  V30 35 1 12 33
M  V30 36 1 13 34
M  V30 37 1 13 35
M  V30 38 1 17 36
M  V30 39 1 17 37
M  V30 40 1 18 38
M  V30 41 1 18 39
M  V30 42 1 19 40
M  V30 43 1 19 41
M  V30 44 1 20 42
M  V30 45 1 20 43
M  V30 46 1 21 44
M  V30 47 1 21 45
M  V30 END BOND
M  V30 END CTAB
M  END
>  <Dataset>  (624) 
ChEMBL_Kinases

>  <Ligand_Instance>  (624) 
nan

>  <PDB_ID>  (624) 
nan

>  <Standardized_SMILES>  (624) 
NC(=NO)c1nc(N2CCCCC2)nc(N2CCCCC2)n1

>  <Name>  (624) 
nan

>  <Pocket>  (624) 
nan

>  <ATP_Site>  (624) 
nan

>  <Peripheral>  (624) 
nan

>  <Num_H_Atoms_ProtBoundConf>  (624) 
nan

>  <Num_Resolved_Atoms>  (624) 
nan

>  <Num_Not_Resolved_Atoms>  (624) 
nan

$$$$
CHEMBL1541086
     RDKit          3D

  0  0  0  0  0  0  0  0  0  0999 V3000
M  V30 BEGIN CTAB
M  V30 COUNTS 50 51 0 0 0
M  V30 BEGIN ATOM
M  V30 1 C 2.994997 -5.495871 -3.164662 0
M  V30 2 O 3.393874 -4.392712 -2.378913 0
M  V30 3 C 2.593988 -3.268166 -2.284805 0
M  V30 4 C 1.376103 -2.937823 -2.833863 0
M  V30 5 C 0.772048 -1.729238 -2.582039 0
M  V30 6 C 1.341953 -0.766956 -1.764765 0
M  V30 7 O 0.703594 0.437207 -1.535243 0
M  V30 8 C -0.544657 0.776000 -2.098644 0
M  V30 9 C 2.562471 -1.103036 -1.217159 0
M  V30 10 S 3.272584 0.136162 -0.179157 0
M  V30 11 O 4.554321 -0.361419 0.377034 0
M  V30 12 O 3.505059 1.400176 -0.953278 0
M  V30 13 N 2.140363 0.385626 1.096853 0
M  V30 14 C 2.452851 1.065623 2.150211 0
M  V30 15 N 3.659033 1.716449 2.511202 0
M  V30 16 N 1.365816 1.155239 3.094098 0
M  V30 17 C -0.018241 1.052485 2.638306 0
M  V30 18 C -1.016461 1.166020 3.753544 0
M  V30 19 C -2.396988 1.045809 3.164793 0
M  V30 20 C -3.238472 2.122815 2.977929 0
M  V30 21 C -4.498954 1.934926 2.428900 0
M  V30 22 C -4.888940 0.669526 2.078791 0
M  V30 23 C -4.018126 -0.391395 2.280249 0
M  V30 24 C -2.767319 -0.255640 2.817305 0
M  V30 25 O -1.918771 -1.342983 3.005415 0
M  V30 26 C -2.358874 -2.626793 2.631839 0
M  V30 27 C 3.196632 -2.319916 -1.455303 0
M  V30 28 H 3.312305 -6.437360 -2.640322 0
M  V30 29 H 3.488830 -5.456076 -4.158684 0
M  V30 30 H 1.900308 -5.542640 -3.296293 0
M  V30 31 H 0.998359 -3.735729 -3.456525 0
M  V30 32 H -0.174843 -1.589577 -3.067326 0
M  V30 33 H -1.241411 -0.081367 -2.203191 0
M  V30 34 H -0.334437 1.152043 -3.122573 0
M  V30 35 H -1.060793 1.571149 -1.554300 0
M  V30 36 H 3.887100 2.681531 2.176937 0
M  V30 37 H 4.114337 0.996588 3.109025 0
M  V30 38 H 1.518514 1.295443 4.128965 0
M  V30 39 H -0.172791 1.881604 1.922208 0
M  V30 40 H -0.207247 0.076304 2.121347 0
M  V30 41 H -0.978970 2.188269 4.194928 0
M  V30 42 H -0.870851 0.429305 4.547509 0
M  V30 43 H -2.883678 3.094366 3.269318 0
M  V30 44 H -5.076327 2.841018 2.325816 0
M  V30 45 H -5.877950 0.585893 1.657770 0
M  V30 46 H -4.365862 -1.372858 1.989264 0
M  V30 47 H -3.261352 -2.909597 3.205731 0
M  V30 48 H -2.626606 -2.613617 1.556635 0
M  V30 49 H -1.551457 -3.359741 2.846454 0
M  V30 50 H 4.146460 -2.408505 -0.942063 0
M  V30 END ATOM
M  V30 BEGIN BOND
M  V30 1 1 1 2
M  V30 2 1 2 3
M  V30 3 2 3 4
M  V30 4 1 4 5
M  V30 5 2 5 6
M  V30 6 1 6 7
M  V30 7 1 7 8
M  V30 8 1 6 9
M  V30 9 1 9 10
M  V30 10 2 10 11
M  V30 11 2 10 12
M  V30 12 1 10 13
M  V30 13 2 13 14 CFG=2
M  V30 14 1 14 15
M  V30 15 1 14 16
M  V30 16 1 16 17
M  V30 17 1 17 18
M  V30 18 1 18 19
M  V30 19 2 19 20
M  V30 20 1 20 21
M  V30 21 2 21 22
M  V30 22 1 22 23
M  V30 23 2 23 24
M  V30 24 1 24 25
M  V30 25 1 25 26
M  V30 26 2 9 27
M  V30 27 1 27 3
M  V30 28 1 24 19
M  V30 29 1 1 28
M  V30 30 1 1 29
M  V30 31 1 1 30
M  V30 32 1 4 31
M  V30 33 1 5 32
M  V30 34 1 8 33
M  V30 35 1 8 34
M  V30 36 1 8 35
M  V30 37 1 15 36
M  V30 38 1 15 37
M  V30 39 1 16 38
M  V30 40 1 17 39
M  V30 41 1 17 40
M  V30 42 1 18 41
M  V30 43 1 18 42
M  V30 44 1 20 43
M  V30 45 1 21 44
M  V30 46 1 22 45
M  V30 47 1 23 46
M  V30 48 1 26 47
M  V30 49 1 26 48
M  V30 50 1 26 49
M  V30 51 1 27 50
M  V30 END BOND
M  V30 END CTAB
M  END
>  <Dataset>  (625) 
ChEMBL_Kinases

>  <Ligand_Instance>  (625) 
nan

>  <PDB_ID>  (625) 
nan

>  <Standardized_SMILES>  (625) 
COc1ccc(OC)c(S(=O)(=O)N=C(N)NCCc2ccccc2OC)c1

>  <Name>  (625) 
nan

>  <Pocket>  (625) 
nan

>  <ATP_Site>  (625) 
nan

>  <Peripheral>  (625) 
nan

>  <Num_H_Atoms_ProtBoundConf>  (625) 
nan

>  <Num_Resolved_Atoms>  (625) 
nan

>  <Num_Not_Resolved_Atoms>  (625) 
nan

$$$$
CHEMBL1541041
     RDKit          3D

  0  0  0  0  0  0  0  0  0  0999 V3000
M  V30 BEGIN CTAB
M  V30 COUNTS 56 59 0 0 0
M  V30 BEGIN ATOM
M  V30 1 C 1.974623 3.215498 -1.519707 0
M  V30 2 C 2.188753 1.722410 -1.482830 0
M  V30 3 S 3.324565 0.858505 -2.570375 0
M  V30 4 C 3.024044 -0.735475 -1.952627 0
M  V30 5 C 3.532357 -1.989590 -2.282913 0
M  V30 6 O 4.367823 -2.006376 -3.195118 0
M  V30 7 N 3.131419 -3.109097 -1.641530 0
M  V30 8 C 2.218743 -2.870229 -0.684938 0
M  V30 9 N 1.723142 -1.686500 -0.355871 0
M  V30 10 C 2.090350 -0.547781 -0.963872 0
M  V30 11 C 1.630153 0.704639 -0.686670 0
M  V30 12 C 0.651947 1.105472 0.309229 0
M  V30 13 O 0.331796 2.299564 0.430149 0
M  V30 14 N 0.000791 0.237048 1.191111 0
M  V30 15 C -0.922310 0.987430 2.058367 0
M  V30 16 C -1.577757 -0.020304 2.973634 0
M  V30 17 C -2.550777 0.555211 3.932769 0
M  V30 18 N -3.666007 1.237574 3.469814 0
M  V30 19 C -4.707886 0.590501 2.785117 0
M  V30 20 C -4.746958 0.825292 1.284069 0
M  V30 21 O -4.293451 2.089386 0.926853 0
M  V30 22 C -4.369606 3.006222 1.943736 0
M  V30 23 C -3.598435 2.619776 3.188035 0
M  V30 24 C 1.648030 -3.987908 0.145698 0
M  V30 25 C 1.119635 -5.038806 -0.790616 0
M  V30 26 C 2.249774 -5.942566 -1.240458 0
M  V30 27 C 2.798578 -5.369202 -2.526392 0
M  V30 28 C 3.792120 -4.291242 -2.151565 0
M  V30 29 H 0.938069 3.326108 -1.888147 0
M  V30 30 H 2.732069 3.635481 -2.175807 0
M  V30 31 H 1.998062 3.647426 -0.498916 0
M  V30 32 H 0.193028 -0.785535 1.178215 0
M  V30 33 H -1.656401 1.547684 1.452221 0
M  V30 34 H -0.350003 1.720983 2.650075 0
M  V30 35 H -0.732730 -0.475957 3.557995 0
M  V30 36 H -1.958435 -0.842731 2.349078 0
M  V30 37 H -1.960733 1.255436 4.597234 0
M  V30 38 H -2.886908 -0.237375 4.658018 0
M  V30 39 H -5.672007 1.054080 3.154513 0
M  V30 40 H -4.843327 -0.481916 3.031511 0
M  V30 41 H -5.776157 0.722485 0.877188 0
M  V30 42 H -4.130495 0.069333 0.741131 0
M  V30 43 H -3.921185 3.957919 1.581591 0
M  V30 44 H -5.427687 3.252157 2.212446 0
M  V30 45 H -2.555558 2.961650 3.156839 0
M  V30 46 H -4.058613 3.155364 4.071857 0
M  V30 47 H 2.418053 -4.428572 0.799241 0
M  V30 48 H 0.784881 -3.559998 0.689533 0
M  V30 49 H 0.661944 -4.505330 -1.670409 0
M  V30 50 H 0.283590 -5.629137 -0.341150 0
M  V30 51 H 3.087340 -5.983592 -0.520121 0
M  V30 52 H 1.899569 -6.986478 -1.410782 0
M  V30 53 H 1.979083 -4.872124 -3.093662 0
M  V30 54 H 3.334410 -6.109249 -3.138600 0
M  V30 55 H 4.334105 -4.019016 -3.070545 0
M  V30 56 H 4.544083 -4.654412 -1.420800 0
M  V30 END ATOM
M  V30 BEGIN BOND
M  V30 1 1 1 2
M  V30 2 1 2 3
M  V30 3 1 3 4
M  V30 4 1 4 5
M  V30 5 2 5 6
M  V30 6 1 5 7
M  V30 7 1 7 8
M  V30 8 2 8 9
M  V30 9 1 9 10
M  V30 10 1 10 11
M  V30 11 1 11 12
M  V30 12 2 12 13
M  V30 13 1 12 14
M  V30 14 1 14 15
M  V30 15 1 15 16
M  V30 16 1 16 17
M  V30 17 1 17 18
M  V30 18 1 18 19
M  V30 19 1 19 20
M  V30 20 1 20 21
M  V30 21 1 21 22
M  V30 22 1 22 23
M  V30 23 1 8 24
M  V30 24 1 24 25
M  V30 25 1 25 26
M  V30 26 1 26 27
M  V30 27 1 27 28
M  V30 28 2 11 2
M  V30 29 1 23 18
M  V30 30 2 10 4
M  V30 31 1 28 7
M  V30 32 1 1 29
M  V30 33 1 1 30
M  V30 34 1 1 31
M  V30 35 1 14 32
M  V30 36 1 15 33
M  V30 37 1 15 34
M  V30 38 1 16 35
M  V30 39 1 16 36
M  V30 40 1 17 37
M  V30 41 1 17 38
M  V30 42 1 19 39
M  V30 43 1 19 40
M  V30 44 1 20 41
M  V30 45 1 20 42
M  V30 46 1 22 43
M  V30 47 1 22 44
M  V30 48 1 23 45
M  V30 49 1 23 46
M  V30 50 1 24 47
M  V30 51 1 24 48
M  V30 52 1 25 49
M  V30 53 1 25 50
M  V30 54 1 26 51
M  V30 55 1 26 52
M  V30 56 1 27 53
M  V30 57 1 27 54
M  V30 58 1 28 55
M  V30 59 1 28 56
M  V30 END BOND
M  V30 END CTAB
M  END
>  <Dataset>  (626) 
ChEMBL_Kinases

>  <Ligand_Instance>  (626) 
nan

>  <PDB_ID>  (626) 
nan

>  <Standardized_SMILES>  (626) 
Cc1sc2c(=O)n3c(nc2c1C(=O)NCCCN1CCOCC1)CCCCC3

>  <Name>  (626) 
nan

>  <Pocket>  (626) 
nan

>  <ATP_Site>  (626) 
nan

>  <Peripheral>  (626) 
nan

>  <Num_H_Atoms_ProtBoundConf>  (626) 
nan

>  <Num_Resolved_Atoms>  (626) 
nan

>  <Num_Not_Resolved_Atoms>  (626) 
nan

$$$$
CHEMBL1540912
     RDKit          3D

  0  0  0  0  0  0  0  0  0  0999 V3000
M  V30 BEGIN CTAB
M  V30 COUNTS 34 36 0 0 0
M  V30 BEGIN ATOM
M  V30 1 C -0.032860 -5.013100 3.801066 0
M  V30 2 O -1.043507 -4.156974 3.286655 0
M  V30 3 C -0.672438 -3.188663 2.362219 0
M  V30 4 C 0.613603 -2.992772 1.901213 0
M  V30 5 C 0.889359 -2.002865 0.979590 0
M  V30 6 C -0.118007 -1.189914 0.501875 0
M  V30 7 C 0.010724 -0.105648 -0.468357 0
M  V30 8 C -0.122476 -0.314223 -1.846940 0
M  V30 9 C -0.397195 -1.665899 -2.287011 0
M  V30 10 N -0.598773 -2.747301 -2.645141 0
M  V30 11 C 0.004994 0.736400 -2.746939 0
M  V30 12 S -0.186775 0.342978 -4.488710 0
M  V30 13 N 0.261822 1.987685 -2.303165 0
M  V30 14 C 0.396801 2.229038 -0.984378 0
M  V30 15 C 0.271972 1.197916 -0.097138 0
M  V30 16 C 0.458658 1.699758 1.288548 0
M  V30 17 C 0.770668 3.158804 1.165567 0
M  V30 18 C 0.677431 3.517518 -0.294098 0
M  V30 19 C -1.430573 -1.363697 0.949697 0
M  V30 20 C -1.700812 -2.369025 1.883456 0
M  V30 21 H 0.579941 -5.442035 2.978797 0
M  V30 22 H -0.438612 -5.826028 4.409718 0
M  V30 23 H 0.683248 -4.462550 4.444811 0
M  V30 24 H 1.388397 -3.624322 2.274096 0
M  V30 25 H 1.861812 -1.808516 0.590867 0
M  V30 26 H -1.189428 1.233711 -4.964285 0
M  V30 27 H -0.399517 1.472518 1.938083 0
M  V30 28 H 1.346241 1.187362 1.699799 0
M  V30 29 H -0.002253 3.696505 1.782198 0
M  V30 30 H 1.779809 3.416297 1.574771 0
M  V30 31 H -0.259407 4.131242 -0.419102 0
M  V30 32 H 1.577240 4.017080 -0.681170 0
M  V30 33 H -2.268438 -0.781945 0.634313 0
M  V30 34 H -2.713255 -2.512822 2.237335 0
M  V30 END ATOM
M  V30 BEGIN BOND
M  V30 1 1 1 2
M  V30 2 1 2 3
M  V30 3 2 3 4
M  V30 4 1 4 5
M  V30 5 2 5 6
M  V30 6 1 6 7
M  V30 7 2 7 8
M  V30 8 1 8 9
M  V30 9 3 9 10
M  V30 10 1 8 11
M  V30 11 1 11 12
M  V30 12 2 11 13
M  V30 13 1 13 14
M  V30 14 2 14 15
M  V30 15 1 15 16
M  V30 16 1 16 17
M  V30 17 1 17 18
M  V30 18 1 6 19
M  V30 19 2 19 20
M  V30 20 1 20 3
M  V30 21 1 15 7
M  V30 22 1 18 14
M  V30 23 1 1 21
M  V30 24 1 1 22
M  V30 25 1 1 23
M  V30 26 1 4 24
M  V30 27 1 5 25
M  V30 28 1 12 26
M  V30 29 1 16 27
M  V30 30 1 16 28
M  V30 31 1 17 29
M  V30 32 1 17 30
M  V30 33 1 18 31
M  V30 34 1 18 32
M  V30 35 1 19 33
M  V30 36 1 20 34
M  V30 END BOND
M  V30 END CTAB
M  END
>  <Dataset>  (627) 
ChEMBL_Kinases

>  <Ligand_Instance>  (627) 
nan

>  <PDB_ID>  (627) 
nan

>  <Standardized_SMILES>  (627) 
COc1ccc(-c2c(C#N)c(S)nc3c2CCC3)cc1

>  <Name>  (627) 
nan

>  <Pocket>  (627) 
nan

>  <ATP_Site>  (627) 
nan

>  <Peripheral>  (627) 
nan

>  <Num_H_Atoms_ProtBoundConf>  (627) 
nan

>  <Num_Resolved_Atoms>  (627) 
nan

>  <Num_Not_Resolved_Atoms>  (627) 
nan

$$$$
CHEMBL1540891
     RDKit          3D

  0  0  0  0  0  0  0  0  0  0999 V3000
M  V30 BEGIN CTAB
M  V30 COUNTS 41 43 0 0 0
M  V30 BEGIN ATOM
M  V30 1 C -0.792036 -4.732049 -0.224957 0
M  V30 2 C 0.129449 -3.545417 -0.496864 0
M  V30 3 C 0.902680 -3.360207 0.798425 0
M  V30 4 O -0.562413 -2.405908 -0.771363 0
M  V30 5 C -0.362199 -1.791359 -1.964565 0
M  V30 6 C 1.018757 -1.303738 -2.261520 0
M  V30 7 C 1.493253 -0.280629 -1.246971 0
M  V30 8 N 0.595678 0.872273 -1.223641 0
M  V30 9 C 0.878289 1.900224 -0.248956 0
M  V30 10 N 1.433746 3.117112 -0.339369 0
M  V30 11 C 1.581623 3.857759 0.768038 0
M  V30 12 N 1.209543 3.473165 1.999258 0
M  V30 13 C 0.644537 2.266177 2.176555 0
M  V30 14 C 0.192547 1.654980 3.323217 0
M  V30 15 C 0.096489 1.916015 4.673288 0
M  V30 16 C -0.441939 0.993493 5.543652 0
M  V30 17 F -0.535101 1.261131 6.871748 0
M  V30 18 C -0.891753 -0.212371 5.050140 0
M  V30 19 C -0.825262 -0.535209 3.717284 0
M  V30 20 C -0.274553 0.418762 2.852828 0
M  V30 21 N -0.120343 0.287199 1.522664 0
M  V30 22 C 0.454835 1.400664 0.989735 0
M  V30 23 H -1.278992 -5.137007 -1.102275 0
M  V30 24 H -1.523365 -4.440414 0.579995 0
M  V30 25 H -0.152587 -5.521069 0.217273 0
M  V30 26 H 0.833479 -3.871905 -1.277969 0
M  V30 27 H 0.971309 -4.336889 1.336598 0
M  V30 28 H 1.909307 -2.917270 0.646817 0
M  V30 29 H 0.332965 -2.636481 1.437865 0
M  V30 30 H -1.038176 -0.907454 -2.042169 0
M  V30 31 H -0.648256 -2.435152 -2.847775 0
M  V30 32 H 1.741449 -2.130853 -2.239781 0
M  V30 33 H 1.078380 -0.869683 -3.279665 0
M  V30 34 H 2.510846 0.024811 -1.526520 0
M  V30 35 H 1.557297 -0.764979 -0.269466 0
M  V30 36 H -0.240807 1.074962 -1.819477 0
M  V30 37 H 1.680742 3.309814 -1.330484 0
M  V30 38 H 2.045922 4.832379 0.568244 0
M  V30 39 H 0.462194 2.868982 4.983327 0
M  V30 40 H -1.333049 -0.996304 5.687535 0
M  V30 41 H -1.181652 -1.493606 3.324382 0
M  V30 END ATOM
M  V30 BEGIN BOND
M  V30 1 1 1 2
M  V30 2 1 2 3
M  V30 3 1 2 4
M  V30 4 1 4 5
M  V30 5 1 5 6
M  V30 6 1 6 7
M  V30 7 1 7 8
M  V30 8 1 8 9
M  V30 9 1 9 10
M  V30 10 1 10 11
M  V30 11 2 11 12
M  V30 12 1 12 13
M  V30 13 2 13 14
M  V30 14 1 14 15
M  V30 15 2 15 16
M  V30 16 1 16 17
M  V30 17 1 16 18
M  V30 18 2 18 19
M  V30 19 1 19 20
M  V30 20 2 20 21
M  V30 21 1 21 22
M  V30 22 2 22 9
M  V30 23 1 22 13
M  V30 24 1 20 14
M  V30 25 1 1 23
M  V30 26 1 1 24
M  V30 27 1 1 25
M  V30 28 1 2 26
M  V30 29 1 3 27
M  V30 30 1 3 28
M  V30 31 1 3 29
M  V30 32 1 5 30
M  V30 33 1 5 31
M  V30 34 1 6 32
M  V30 35 1 6 33
M  V30 36 1 7 34
M  V30 37 1 7 35
M  V30 38 1 8 36
M  V30 39 1 10 37
M  V30 40 1 11 38
M  V30 41 1 15 39
M  V30 42 1 18 40
M  V30 43 1 19 41
M  V30 END BOND
M  V30 END CTAB
M  END
>  <Dataset>  (628) 
ChEMBL_Kinases

>  <Ligand_Instance>  (628) 
nan

>  <PDB_ID>  (628) 
nan

>  <Standardized_SMILES>  (628) 
CC(C)OCCCNc1[nH]cnc2c3cc(F)ccc3nc1-2

>  <Name>  (628) 
nan

>  <Pocket>  (628) 
nan

>  <ATP_Site>  (628) 
nan

>  <Peripheral>  (628) 
nan

>  <Num_H_Atoms_ProtBoundConf>  (628) 
nan

>  <Num_Resolved_Atoms>  (628) 
nan

>  <Num_Not_Resolved_Atoms>  (628) 
nan

$$$$
CHEMBL1540820
     RDKit          3D

  0  0  0  0  0  0  0  0  0  0999 V3000
M  V30 BEGIN CTAB
M  V30 COUNTS 57 59 0 0 0
M  V30 BEGIN ATOM
M  V30 1 C -0.320918 -2.390127 4.182020 0
M  V30 2 O 0.522228 -2.238844 3.084984 0
M  V30 3 C 1.856346 -2.219809 3.402078 0
M  V30 4 C 2.681891 -2.053423 2.151989 0
M  V30 5 C 2.334279 -0.778067 1.478281 0
M  V30 6 N 0.966645 -0.638950 1.041505 0
M  V30 7 C 0.764485 0.677037 0.474031 0
M  V30 8 N 1.709790 1.651253 0.333641 0
M  V30 9 C 1.149559 2.767494 -0.215207 0
M  V30 10 C -0.173838 2.433714 -0.403352 0
M  V30 11 C -0.911861 3.460939 -0.957547 0
M  V30 12 O -2.136163 3.288172 -1.180819 0
M  V30 13 N -0.370759 4.651187 -1.271372 0
M  V30 14 C 0.928985 4.898861 -1.057283 0
M  V30 15 O 1.466598 6.000825 -1.339351 0
M  V30 16 N 1.715103 3.948539 -0.519874 0
M  V30 17 C 3.129558 4.146064 -0.259844 0
M  V30 18 N -0.406233 1.155297 0.018069 0
M  V30 19 C -1.707530 0.557224 -0.051327 0
M  V30 20 C -2.053782 -0.117789 -1.333130 0
M  V30 21 O -3.337993 -0.641302 -1.302881 0
M  V30 22 C -1.099000 -1.140673 -1.835767 0
M  V30 23 O -1.005878 -2.341628 -1.182701 0
M  V30 24 C -1.804224 -3.389273 -0.937855 0
M  V30 25 C -3.072779 -3.825479 -1.196338 0
M  V30 26 C -3.644798 -5.004107 -0.796330 0
M  V30 27 C -2.862288 -5.836546 -0.058745 0
M  V30 28 C -1.554747 -5.515940 0.274048 0
M  V30 29 C -1.057040 -4.304140 -0.171503 0
M  V30 30 C 0.372427 -4.182204 0.298468 0
M  V30 31 H -1.381862 -2.398583 3.867871 0
M  V30 32 H -0.121954 -3.412755 4.570782 0
M  V30 33 H -0.181539 -1.659655 4.978079 0
M  V30 34 H 2.042213 -1.325409 4.047134 0
M  V30 35 H 2.167771 -3.141333 3.947737 0
M  V30 36 H 2.661059 -2.915324 1.478851 0
M  V30 37 H 3.745095 -1.963221 2.528008 0
M  V30 38 H 2.980853 -0.626278 0.566145 0
M  V30 39 H 2.586561 0.122142 2.112969 0
M  V30 40 H 0.145610 -1.267672 1.053239 0
M  V30 41 H -0.931667 5.419387 -1.688229 0
M  V30 42 H 3.777678 3.600335 -0.970806 0
M  V30 43 H 3.410051 5.207517 -0.254207 0
M  V30 44 H 3.369010 3.738851 0.751028 0
M  V30 45 H -1.863546 -0.194267 0.762091 0
M  V30 46 H -2.457229 1.363696 0.177360 0
M  V30 47 H -2.148102 0.728556 -2.111132 0
M  V30 48 H -3.768064 -0.671209 -2.197556 0
M  V30 49 H -0.090276 -0.691249 -2.066952 0
M  V30 50 H -1.475907 -1.395005 -2.888463 0
M  V30 51 H -3.641489 -3.144632 -1.799987 0
M  V30 52 H -4.655961 -5.187557 -1.087791 0
M  V30 53 H -3.344579 -6.767373 0.245535 0
M  V30 54 H -1.082686 -6.277882 0.855084 0
M  V30 55 H 0.440394 -4.382888 1.380986 0
M  V30 56 H 0.952291 -5.021468 -0.182388 0
M  V30 57 H 0.850228 -3.268777 -0.052186 0
M  V30 END ATOM
M  V30 BEGIN BOND
M  V30 1 1 1 2
M  V30 2 1 2 3
M  V30 3 1 3 4
M  V30 4 1 4 5
M  V30 5 1 5 6
M  V30 6 1 6 7
M  V30 7 2 7 8
M  V30 8 1 8 9
M  V30 9 2 9 10
M  V30 10 1 10 11
M  V30 11 2 11 12
M  V30 12 1 11 13
M  V30 13 1 13 14
M  V30 14 2 14 15
M  V30 15 1 14 16
M  V30 16 1 16 17
M  V30 17 1 10 18
M  V30 18 1 18 19
M  V30 19 1 19 20
M  V30 20 1 20 21
M  V30 21 1 20 22
M  V30 22 1 22 23
M  V30 23 1 23 24
M  V30 24 2 24 25
M  V30 25 1 25 26
M  V30 26 2 26 27
M  V30 27 1 27 28
M  V30 28 2 28 29
M  V30 29 1 29 30
M  V30 30 1 18 7
M  V30 31 1 29 24
M  V30 32 1 16 9
M  V30 33 1 1 31
M  V30 34 1 1 32
M  V30 35 1 1 33
M  V30 36 1 3 34
M  V30 37 1 3 35
M  V30 38 1 4 36
M  V30 39 1 4 37
M  V30 40 1 5 38
M  V30 41 1 5 39
M  V30 42 1 6 40
M  V30 43 1 13 41
M  V30 44 1 17 42
M  V30 45 1 17 43
M  V30 46 1 17 44
M  V30 47 1 19 45
M  V30 48 1 19 46
M  V30 49 1 20 47
M  V30 50 1 21 48
M  V30 51 1 22 49
M  V30 52 1 22 50
M  V30 53 1 25 51
M  V30 54 1 26 52
M  V30 55 1 27 53
M  V30 56 1 28 54
M  V30 57 1 30 55
M  V30 58 1 30 56
M  V30 59 1 30 57
M  V30 END BOND
M  V30 END CTAB
M  END
>  <Dataset>  (629) 
ChEMBL_Kinases

>  <Ligand_Instance>  (629) 
nan

>  <PDB_ID>  (629) 
nan

>  <Standardized_SMILES>  (629) 
COCCCNc1nc2c(c(=O)[nH]c(=O)n2C)n1CC(O)COc1ccccc1C

>  <Name>  (629) 
nan

>  <Pocket>  (629) 
nan

>  <ATP_Site>  (629) 
nan

>  <Peripheral>  (629) 
nan

>  <Num_H_Atoms_ProtBoundConf>  (629) 
nan

>  <Num_Resolved_Atoms>  (629) 
nan

>  <Num_Not_Resolved_Atoms>  (629) 
nan

$$$$
CHEMBL1540800
     RDKit          3D

  0  0  0  0  0  0  0  0  0  0999 V3000
M  V30 BEGIN CTAB
M  V30 COUNTS 39 41 0 0 0
M  V30 BEGIN ATOM
M  V30 1 O 2.347288 -6.440006 1.079516 0
M  V30 2 C 3.522336 -5.705043 0.980256 0
M  V30 3 C 3.320986 -4.373412 0.298348 0
M  V30 4 O 2.430808 -3.552977 0.937401 0
M  V30 5 C 2.771241 -3.220223 2.236887 0
M  V30 6 C 1.734469 -2.306688 2.852613 0
M  V30 7 N 1.497978 -1.080059 2.237753 0
M  V30 8 C 1.258616 0.162002 1.615186 0
M  V30 9 N 2.026908 1.226220 1.337619 0
M  V30 10 C 1.549199 2.315734 0.727063 0
M  V30 11 N 0.259642 2.324284 0.390515 0
M  V30 12 C -0.577843 1.328924 0.619591 0
M  V30 13 C -0.102544 0.172673 1.258898 0
M  V30 14 C -1.245608 -0.607473 1.313962 0
M  V30 15 N -2.279983 0.060985 0.749174 0
M  V30 16 N -1.883765 1.251718 0.318725 0
M  V30 17 C -2.673266 2.245969 -0.324946 0
M  V30 18 C -3.459058 2.028841 -1.435758 0
M  V30 19 C -4.161673 3.089086 -1.936499 0
M  V30 20 C -4.057267 4.316616 -1.318587 0
M  V30 21 C -3.275014 4.556707 -0.203405 0
M  V30 22 C -2.555199 3.466534 0.308196 0
M  V30 23 H 1.956937 -6.291177 1.982747 0
M  V30 24 H 3.938272 -5.579550 1.998447 0
M  V30 25 H 4.275889 -6.313768 0.416407 0
M  V30 26 H 2.872877 -4.623245 -0.700726 0
M  V30 27 H 4.302795 -3.893975 0.173703 0
M  V30 28 H 2.751108 -4.155836 2.834845 0
M  V30 29 H 3.793864 -2.803526 2.349318 0
M  V30 30 H 1.893777 -2.285238 3.973394 0
M  V30 31 H 0.771748 -2.938939 2.790361 0
M  V30 32 H 2.516506 -0.896031 2.433553 0
M  V30 33 H 2.323502 3.058150 0.594928 0
M  V30 34 H -1.220721 -1.593017 1.760558 0
M  V30 35 H -3.486365 1.052342 -1.855496 0
M  V30 36 H -4.793009 2.970619 -2.806430 0
M  V30 37 H -4.599357 5.174879 -1.690183 0
M  V30 38 H -3.205444 5.530342 0.269055 0
M  V30 39 H -1.953664 3.686753 1.179123 0
M  V30 END ATOM
M  V30 BEGIN BOND
M  V30 1 1 1 2
M  V30 2 1 2 3
M  V30 3 1 3 4
M  V30 4 1 4 5
M  V30 5 1 5 6
M  V30 6 1 6 7
M  V30 7 1 7 8
M  V30 8 2 8 9
M  V30 9 1 9 10
M  V30 10 2 10 11
M  V30 11 1 11 12
M  V30 12 2 12 13
M  V30 13 1 13 14
M  V30 14 2 14 15
M  V30 15 1 15 16
M  V30 16 1 16 17
M  V30 17 2 17 18
M  V30 18 1 18 19
M  V30 19 2 19 20
M  V30 20 1 20 21
M  V30 21 2 21 22
M  V30 22 1 13 8
M  V30 23 1 22 17
M  V30 24 1 16 12
M  V30 25 1 1 23
M  V30 26 1 2 24
M  V30 27 1 2 25
M  V30 28 1 3 26
M  V30 29 1 3 27
M  V30 30 1 5 28
M  V30 31 1 5 29
M  V30 32 1 6 30
M  V30 33 1 6 31
M  V30 34 1 7 32
M  V30 35 1 10 33
M  V30 36 1 14 34
M  V30 37 1 18 35
M  V30 38 1 19 36
M  V30 39 1 20 37
M  V30 40 1 21 38
M  V30 41 1 22 39
M  V30 END BOND
M  V30 END CTAB
M  END
>  <Dataset>  (630) 
ChEMBL_Kinases

>  <Ligand_Instance>  (630) 
nan

>  <PDB_ID>  (630) 
nan

>  <Standardized_SMILES>  (630) 
OCCOCCNc1ncnc2c1cnn2-c1ccccc1

>  <Name>  (630) 
nan

>  <Pocket>  (630) 
nan

>  <ATP_Site>  (630) 
nan

>  <Peripheral>  (630) 
nan

>  <Num_H_Atoms_ProtBoundConf>  (630) 
nan

>  <Num_Resolved_Atoms>  (630) 
nan

>  <Num_Not_Resolved_Atoms>  (630) 
nan

$$$$
CHEMBL1540519
     RDKit          3D

  0  0  0  0  0  0  0  0  0  0999 V3000
M  V30 BEGIN CTAB
M  V30 COUNTS 46 47 0 0 0
M  V30 BEGIN ATOM
M  V30 1 C -1.219647 -5.416781 -0.027041 0
M  V30 2 C 0.259861 -5.143991 -0.212226 0
M  V30 3 C 0.626115 -3.893252 0.514908 0
M  V30 4 C -0.122784 -2.662684 0.048065 0
M  V30 5 C 0.411038 -1.511652 0.917615 0
M  V30 6 N -0.227461 -0.272193 0.591495 0
M  V30 7 C 0.223029 0.588973 -0.322006 0
M  V30 8 S 1.568136 0.753258 -1.394476 0
M  V30 9 C 2.991422 1.667621 -0.932006 0
M  V30 10 C 3.844779 1.181884 0.189634 0
M  V30 11 C 3.111521 1.185979 1.497819 0
M  V30 12 C 3.986869 0.679887 2.636396 0
M  V30 13 N -0.660612 1.628352 -0.358966 0
M  V30 14 C -1.659825 1.406985 0.537187 0
M  V30 15 C -1.384135 0.199467 1.140796 0
M  V30 16 C -2.249420 -0.273937 2.104042 0
M  V30 17 O -2.006101 -1.370206 2.657632 0
M  V30 18 N -3.351039 0.392051 2.479816 0
M  V30 19 C -3.596581 1.574355 1.871247 0
M  V30 20 O -4.625809 2.256027 2.183291 0
M  V30 21 N -2.775217 2.076081 0.921969 0
M  V30 22 C -3.072662 3.351883 0.293264 0
M  V30 23 H -1.794011 -4.750509 -0.685514 0
M  V30 24 H -1.471483 -5.165856 1.036510 0
M  V30 25 H -1.478898 -6.470664 -0.197174 0
M  V30 26 H 0.593124 -5.179972 -1.249933 0
M  V30 27 H 0.779046 -5.986136 0.330136 0
M  V30 28 H 0.427818 -4.010505 1.596977 0
M  V30 29 H 1.701692 -3.651313 0.432206 0
M  V30 30 H 0.129119 -2.519382 -1.021231 0
M  V30 31 H -1.206762 -2.757634 0.146107 0
M  V30 32 H 1.476191 -1.454144 0.674935 0
M  V30 33 H 0.252673 -1.749439 1.984859 0
M  V30 34 H 2.701786 2.748088 -0.730462 0
M  V30 35 H 3.686028 1.779095 -1.835016 0
M  V30 36 H 4.739342 1.857739 0.348281 0
M  V30 37 H 4.312787 0.192785 -0.018675 0
M  V30 38 H 2.887787 2.253703 1.782441 0
M  V30 39 H 2.161119 0.664828 1.436720 0
M  V30 40 H 4.472738 -0.262404 2.326381 0
M  V30 41 H 4.683322 1.459777 2.990132 0
M  V30 42 H 3.305595 0.451102 3.481024 0
M  V30 43 H -3.986893 0.011253 3.208848 0
M  V30 44 H -4.172981 3.444018 0.188671 0
M  V30 45 H -2.790785 4.180057 1.005309 0
M  V30 46 H -2.591540 3.470935 -0.682085 0
M  V30 END ATOM
M  V30 BEGIN BOND
M  V30 1 1 1 2
M  V30 2 1 2 3
M  V30 3 1 3 4
M  V30 4 1 4 5
M  V30 5 1 5 6
M  V30 6 1 6 7
M  V30 7 1 7 8
M  V30 8 1 8 9
M  V30 9 1 9 10
M  V30 10 1 10 11
M  V30 11 1 11 12
M  V30 12 2 7 13
M  V30 13 1 13 14
M  V30 14 2 14 15
M  V30 15 1 15 16
M  V30 16 2 16 17
M  V30 17 1 16 18
M  V30 18 1 18 19
M  V30 19 2 19 20
M  V30 20 1 19 21
M  V30 21 1 21 22
M  V30 22 1 15 6
M  V30 23 1 21 14
M  V30 24 1 1 23
M  V30 25 1 1 24
M  V30 26 1 1 25
M  V30 27 1 2 26
M  V30 28 1 2 27
M  V30 29 1 3 28
M  V30 30 1 3 29
M  V30 31 1 4 30
M  V30 32 1 4 31
M  V30 33 1 5 32
M  V30 34 1 5 33
M  V30 35 1 9 34
M  V30 36 1 9 35
M  V30 37 1 10 36
M  V30 38 1 10 37
M  V30 39 1 11 38
M  V30 40 1 11 39
M  V30 41 1 12 40
M  V30 42 1 12 41
M  V30 43 1 12 42
M  V30 44 1 18 43
M  V30 45 1 22 44
M  V30 46 1 22 45
M  V30 47 1 22 46
M  V30 END BOND
M  V30 END CTAB
M  END
>  <Dataset>  (631) 
ChEMBL_Kinases

>  <Ligand_Instance>  (631) 
nan

>  <PDB_ID>  (631) 
nan

>  <Standardized_SMILES>  (631) 
CCCCCn1c(SCCCC)nc2c1c(=O)[nH]c(=O)n2C

>  <Name>  (631) 
nan

>  <Pocket>  (631) 
nan

>  <ATP_Site>  (631) 
nan

>  <Peripheral>  (631) 
nan

>  <Num_H_Atoms_ProtBoundConf>  (631) 
nan

>  <Num_Resolved_Atoms>  (631) 
nan

>  <Num_Not_Resolved_Atoms>  (631) 
nan

$$$$
CHEMBL1540513
     RDKit          3D

  0  0  0  0  0  0  0  0  0  0999 V3000
M  V30 BEGIN CTAB
M  V30 COUNTS 41 43 0 0 0
M  V30 BEGIN ATOM
M  V30 1 C -0.515567 -4.851697 -0.375459 0
M  V30 2 O -1.082168 -4.686450 0.893911 0
M  V30 3 C -0.883573 -3.587543 1.684117 0
M  V30 4 C -0.069654 -2.601635 1.166225 0
M  V30 5 C 0.180944 -1.461441 1.900157 0
M  V30 6 C 1.014638 -0.328087 1.501065 0
M  V30 7 O 1.238308 0.710538 2.177417 0
M  V30 8 N 1.648645 -0.354335 0.250311 0
M  V30 9 C 2.508568 0.657013 -0.329757 0
M  V30 10 N 2.184326 1.640717 -1.053335 0
M  V30 11 C 3.109436 2.478082 -1.504260 0
M  V30 12 C 2.546860 3.603400 -2.358302 0
M  V30 13 C 3.320605 4.519083 -2.883960 0
M  V30 14 C 2.903404 5.554995 -3.656272 0
M  V30 15 C 1.435435 5.501931 -3.821403 0
M  V30 16 S 0.909245 3.972529 -2.838152 0
M  V30 17 C 4.422931 2.264237 -1.176203 0
M  V30 18 S 4.235479 0.700418 -0.122476 0
M  V30 19 C -0.413143 -1.351867 3.163632 0
M  V30 20 C -1.226177 -2.357481 3.658783 0
M  V30 21 O -1.830438 -2.275953 4.911954 0
M  V30 22 C -1.706032 -1.214531 5.805353 0
M  V30 23 C -1.482318 -3.508772 2.923676 0
M  V30 24 O -2.296378 -4.517852 3.417064 0
M  V30 25 C -3.695343 -4.542157 3.193182 0
M  V30 26 H -0.935608 -4.124484 -1.112523 0
M  V30 27 H 0.573188 -4.622207 -0.286207 0
M  V30 28 H -0.634582 -5.870483 -0.753334 0
M  V30 29 H 0.399024 -2.651118 0.208896 0
M  V30 30 H 1.583987 -1.126766 -0.448646 0
M  V30 31 H 4.419650 4.598450 -2.787664 0
M  V30 32 H 3.284021 6.401344 -4.188103 0
M  V30 33 H 0.726912 6.225545 -4.418202 0
M  V30 34 H 5.260403 2.960065 -1.541459 0
M  V30 35 H -0.261981 -0.485798 3.796725 0
M  V30 36 H -0.708122 -1.157831 6.307911 0
M  V30 37 H -2.507516 -1.358318 6.584667 0
M  V30 38 H -1.931664 -0.231881 5.357811 0
M  V30 39 H -4.145871 -3.571475 3.507663 0
M  V30 40 H -3.854176 -4.652786 2.100780 0
M  V30 41 H -4.172863 -5.391448 3.699500 0
M  V30 END ATOM
M  V30 BEGIN BOND
M  V30 1 1 1 2
M  V30 2 1 2 3
M  V30 3 2 3 4
M  V30 4 1 4 5
M  V30 5 1 5 6
M  V30 6 2 6 7
M  V30 7 1 6 8
M  V30 8 1 8 9
M  V30 9 2 9 10
M  V30 10 1 10 11
M  V30 11 1 11 12
M  V30 12 2 12 13
M  V30 13 1 13 14
M  V30 14 2 14 15
M  V30 15 1 15 16
M  V30 16 2 11 17
M  V30 17 1 17 18
M  V30 18 2 5 19
M  V30 19 1 19 20
M  V30 20 1 20 21
M  V30 21 1 21 22
M  V30 22 2 20 23
M  V30 23 1 23 24
M  V30 24 1 24 25
M  V30 25 1 23 3
M  V30 26 1 18 9
M  V30 27 1 16 12
M  V30 28 1 1 26
M  V30 29 1 1 27
M  V30 30 1 1 28
M  V30 31 1 4 29
M  V30 32 1 8 30
M  V30 33 1 13 31
M  V30 34 1 14 32
M  V30 35 1 15 33
M  V30 36 1 17 34
M  V30 37 1 19 35
M  V30 38 1 22 36
M  V30 39 1 22 37
M  V30 40 1 22 38
M  V30 41 1 25 39
M  V30 42 1 25 40
M  V30 43 1 25 41
M  V30 END BOND
M  V30 END CTAB
M  END
>  <Dataset>  (632) 
ChEMBL_Kinases

>  <Ligand_Instance>  (632) 
nan

>  <PDB_ID>  (632) 
nan

>  <Standardized_SMILES>  (632) 
COc1cc(C(=O)Nc2nc(-c3cccs3)cs2)cc(OC)c1OC

>  <Name>  (632) 
nan

>  <Pocket>  (632) 
nan

>  <ATP_Site>  (632) 
nan

>  <Peripheral>  (632) 
nan

>  <Num_H_Atoms_ProtBoundConf>  (632) 
nan

>  <Num_Resolved_Atoms>  (632) 
nan

>  <Num_Not_Resolved_Atoms>  (632) 
nan

$$$$
CHEMBL1540355
     RDKit          3D

  0  0  0  0  0  0  0  0  0  0999 V3000
M  V30 BEGIN CTAB
M  V30 COUNTS 46 48 0 0 0
M  V30 BEGIN ATOM
M  V30 1 O -0.742376 -1.558760 2.197360 0
M  V30 2 C -0.718923 -2.119843 1.071942 0
M  V30 3 N 0.615877 -2.216571 0.609301 0
M  V30 4 N 1.492172 -1.673575 1.516975 0
M  V30 5 C 2.109282 -0.552122 1.434124 0
M  V30 6 C 2.145126 0.530233 0.435473 0
M  V30 7 C 1.258869 0.244842 -0.745743 0
M  V30 8 C -0.070652 0.587962 -0.878400 0
M  V30 9 C -0.748526 0.254144 -2.028375 0
M  V30 10 C -0.144465 -0.418093 -3.066553 0
M  V30 11 C 1.196908 -0.770278 -2.945504 0
M  V30 12 C 1.880764 -0.436396 -1.791510 0
M  V30 13 C 3.004536 -0.229685 2.588933 0
M  V30 14 C 2.558021 1.032869 3.236398 0
M  V30 15 C 2.955448 2.322313 2.950222 0
M  V30 16 C 2.431356 3.381325 3.659400 0
M  V30 17 C 1.507994 3.211885 4.664137 0
M  V30 18 C 1.097113 1.913973 4.964229 0
M  V30 19 C 1.629653 0.860063 4.246290 0
M  V30 20 C -1.952478 -2.556706 0.448386 0
M  V30 21 C -3.127303 -2.332567 1.133185 0
M  V30 22 C -4.348350 -2.703156 0.639505 0
M  V30 23 C -4.489281 -3.325180 -0.574381 0
M  V30 24 C -3.328011 -3.560153 -1.278083 0
M  V30 25 C -2.124520 -3.178970 -0.759703 0
M  V30 26 O -0.996934 -3.442636 -1.513921 0
M  V30 27 H 0.758200 -2.667212 -0.319270 0
M  V30 28 H 3.167214 0.744117 0.068239 0
M  V30 29 H 1.806569 1.473743 0.944303 0
M  V30 30 H -0.480636 1.112586 -0.028283 0
M  V30 31 H -1.788913 0.536577 -2.102525 0
M  V30 32 H -0.706951 -0.673686 -3.975275 0
M  V30 33 H 1.700782 -1.307396 -3.761260 0
M  V30 34 H 2.922518 -0.741133 -1.763906 0
M  V30 35 H 3.129216 -1.049783 3.299221 0
M  V30 36 H 4.043321 -0.017163 2.203531 0
M  V30 37 H 3.682070 2.394708 2.152244 0
M  V30 38 H 2.840338 4.341112 3.320768 0
M  V30 39 H 1.175983 4.123628 5.142372 0
M  V30 40 H 0.371028 1.816475 5.758614 0
M  V30 41 H 1.234082 -0.090674 4.571110 0
M  V30 42 H -3.107942 -1.841096 2.110854 0
M  V30 43 H -5.237138 -2.499083 1.226460 0
M  V30 44 H -5.456116 -3.603382 -0.934855 0
M  V30 45 H -3.385032 -4.048908 -2.242774 0
M  V30 46 H -0.871597 -4.314817 -1.995353 0
M  V30 END ATOM
M  V30 BEGIN BOND
M  V30 1 2 1 2
M  V30 2 1 2 3
M  V30 3 1 3 4
M  V30 4 2 4 5 CFG=2
M  V30 5 1 5 6
M  V30 6 1 6 7
M  V30 7 2 7 8
M  V30 8 1 8 9
M  V30 9 2 9 10
M  V30 10 1 10 11
M  V30 11 2 11 12
M  V30 12 1 5 13
M  V30 13 1 13 14
M  V30 14 2 14 15
M  V30 15 1 15 16
M  V30 16 2 16 17
M  V30 17 1 17 18
M  V30 18 2 18 19
M  V30 19 1 2 20
M  V30 20 2 20 21
M  V30 21 1 21 22
M  V30 22 2 22 23
M  V30 23 1 23 24
M  V30 24 2 24 25
M  V30 25 1 25 26
M  V30 26 1 12 7
M  V30 27 1 19 14
M  V30 28 1 25 20
M  V30 29 1 3 27
M  V30 30 1 6 28
M  V30 31 1 6 29
M  V30 32 1 8 30
M  V30 33 1 9 31
M  V30 34 1 10 32
M  V30 35 1 11 33
M  V30 36 1 12 34
M  V30 37 1 13 35
M  V30 38 1 13 36
M  V30 39 1 15 37
M  V30 40 1 16 38
M  V30 41 1 17 39
M  V30 42 1 18 40
M  V30 43 1 19 41
M  V30 44 1 21 42
M  V30 45 1 22 43
M  V30 46 1 23 44
M  V30 47 1 24 45
M  V30 48 1 26 46
M  V30 END BOND
M  V30 END CTAB
M  END
>  <Dataset>  (633) 
ChEMBL_Kinases

>  <Ligand_Instance>  (633) 
nan

>  <PDB_ID>  (633) 
nan

>  <Standardized_SMILES>  (633) 
O=C(NN=C(Cc1ccccc1)Cc1ccccc1)c1ccccc1O

>  <Name>  (633) 
nan

>  <Pocket>  (633) 
nan

>  <ATP_Site>  (633) 
nan

>  <Peripheral>  (633) 
nan

>  <Num_H_Atoms_ProtBoundConf>  (633) 
nan

>  <Num_Resolved_Atoms>  (633) 
nan

>  <Num_Not_Resolved_Atoms>  (633) 
nan

$$$$
CHEMBL1540207
     RDKit          3D

  0  0  0  0  0  0  0  0  0  0999 V3000
M  V30 BEGIN CTAB
M  V30 COUNTS 32 34 0 0 0
M  V30 BEGIN ATOM
M  V30 1 C 2.175675 1.122440 4.356199 0
M  V30 2 S 2.559984 1.578420 2.657699 0
M  V30 3 C 2.401403 0.118578 1.640110 0
M  V30 4 N 3.511009 -0.641214 1.495875 0
M  V30 5 C 3.222647 -1.700789 0.701045 0
M  V30 6 C 3.964018 -2.768846 0.233614 0
M  V30 7 C 3.297827 -3.685763 -0.588743 0
M  V30 8 C 1.947786 -3.531194 -0.922776 0
M  V30 9 C 1.237692 -2.452134 -0.437999 0
M  V30 10 C 1.890169 -1.546596 0.372347 0
M  V30 11 N 1.401127 -0.434504 0.950483 0
M  V30 12 C 0.113587 0.171662 0.935055 0
M  V30 13 O -0.222170 1.216505 1.518370 0
M  V30 14 O -0.847484 -0.455867 0.208236 0
M  V30 15 C -2.162194 -0.083075 0.029185 0
M  V30 16 C -3.182378 -0.496728 0.865107 0
M  V30 17 C -4.471683 -0.047414 0.573482 0
M  V30 18 C -4.708821 0.784307 -0.519053 0
M  V30 19 C -3.660413 1.179228 -1.336340 0
M  V30 20 C -2.378837 0.741843 -1.059237 0
M  V30 21 H 1.457861 1.854961 4.797688 0
M  V30 22 H 1.716176 0.126487 4.452784 0
M  V30 23 H 3.125737 1.074069 4.925567 0
M  V30 24 H 5.000685 -2.877383 0.496966 0
M  V30 25 H 3.935106 -4.496250 -0.919308 0
M  V30 26 H 1.519134 -4.296279 -1.567813 0
M  V30 27 H 0.204522 -2.336923 -0.695831 0
M  V30 28 H -2.937592 -1.140853 1.695433 0
M  V30 29 H -5.277877 -0.354591 1.206663 0
M  V30 30 H -5.734740 1.124172 -0.726811 0
M  V30 31 H -3.820507 1.834489 -2.204023 0
M  V30 32 H -1.579565 1.074942 -1.726603 0
M  V30 END ATOM
M  V30 BEGIN BOND
M  V30 1 1 1 2
M  V30 2 1 2 3
M  V30 3 2 3 4
M  V30 4 1 4 5
M  V30 5 2 5 6
M  V30 6 1 6 7
M  V30 7 2 7 8
M  V30 8 1 8 9
M  V30 9 2 9 10
M  V30 10 1 10 11
M  V30 11 1 11 12
M  V30 12 2 12 13
M  V30 13 1 12 14
M  V30 14 1 14 15
M  V30 15 2 15 16
M  V30 16 1 16 17
M  V30 17 2 17 18
M  V30 18 1 18 19
M  V30 19 2 19 20
M  V30 20 1 11 3
M  V30 21 1 20 15
M  V30 22 1 10 5
M  V30 23 1 1 21
M  V30 24 1 1 22
M  V30 25 1 1 23
M  V30 26 1 6 24
M  V30 27 1 7 25
M  V30 28 1 8 26
M  V30 29 1 9 27
M  V30 30 1 16 28
M  V30 31 1 17 29
M  V30 32 1 18 30
M  V30 33 1 19 31
M  V30 34 1 20 32
M  V30 END BOND
M  V30 END CTAB
M  END
>  <Dataset>  (634) 
ChEMBL_Kinases

>  <Ligand_Instance>  (634) 
nan

>  <PDB_ID>  (634) 
nan

>  <Standardized_SMILES>  (634) 
CSc1nc2ccccc2n1C(=O)Oc1ccccc1

>  <Name>  (634) 
nan

>  <Pocket>  (634) 
nan

>  <ATP_Site>  (634) 
nan

>  <Peripheral>  (634) 
nan

>  <Num_H_Atoms_ProtBoundConf>  (634) 
nan

>  <Num_Resolved_Atoms>  (634) 
nan

>  <Num_Not_Resolved_Atoms>  (634) 
nan

$$$$
CHEMBL1540132
     RDKit          3D

  0  0  0  0  0  0  0  0  0  0999 V3000
M  V30 BEGIN CTAB
M  V30 COUNTS 47 50 0 0 0
M  V30 BEGIN ATOM
M  V30 1 C -5.363747 -7.836774 -1.016918 0
M  V30 2 O -4.004723 -7.514572 -0.836786 0
M  V30 3 C -3.522812 -6.246226 -0.541644 0
M  V30 4 C -2.140565 -6.273866 -0.429638 0
M  V30 5 C -1.411653 -5.116041 -0.135627 0
M  V30 6 C -2.138297 -3.942760 0.037692 0
M  V30 7 C -1.392740 -2.712414 0.347640 0
M  V30 8 C -0.391091 -2.783353 1.306066 0
M  V30 9 O 0.339573 -1.723302 1.655476 0
M  V30 10 C 0.121561 -0.542763 1.080384 0
M  V30 11 C 0.901857 0.552184 1.465212 0
M  V30 12 C 0.665821 1.781562 0.857919 0
M  V30 13 O 1.514236 2.764380 1.341666 0
M  V30 14 C 2.743783 3.088802 0.833840 0
M  V30 15 O 3.236634 2.493979 -0.166436 0
M  V30 16 N 3.340545 4.161372 1.593174 0
M  V30 17 C 2.809985 4.870737 2.746204 0
M  V30 18 C 3.742626 4.584480 3.907423 0
M  V30 19 O 4.858130 3.856422 3.513663 0
M  V30 20 C 5.557943 4.418233 2.465763 0
M  V30 21 C 4.666810 4.697120 1.249226 0
M  V30 22 C -0.320924 1.912994 -0.105599 0
M  V30 23 C -1.075613 0.804230 -0.462149 0
M  V30 24 C -0.866049 -0.429291 0.121699 0
M  V30 25 C -1.646970 -1.499433 -0.271506 0
M  V30 26 O -2.548300 -1.430443 -1.135560 0
M  V30 27 C -3.514044 -3.908549 -0.072441 0
M  V30 28 C -4.213561 -5.065018 -0.363677 0
M  V30 29 H -5.737801 -8.478241 -0.178346 0
M  V30 30 H -5.505083 -8.461954 -1.935882 0
M  V30 31 H -6.039699 -6.964039 -1.061588 0
M  V30 32 H -1.483248 -7.133547 -0.546020 0
M  V30 33 H -0.335138 -5.087541 -0.038382 0
M  V30 34 H -0.195546 -3.729798 1.786534 0
M  V30 35 H 1.650584 0.356188 2.226625 0
M  V30 36 H 2.856453 5.960550 2.538077 0
M  V30 37 H 1.761912 4.563487 2.942680 0
M  V30 38 H 3.164542 3.897825 4.592256 0
M  V30 39 H 3.990588 5.483833 4.501328 0
M  V30 40 H 6.348451 3.706608 2.186566 0
M  V30 41 H 6.069255 5.354818 2.801459 0
M  V30 42 H 5.089681 4.186378 0.361289 0
M  V30 43 H 4.630322 5.784268 1.103642 0
M  V30 44 H -0.424031 2.893439 -0.510361 0
M  V30 45 H -1.839496 0.938077 -1.218193 0
M  V30 46 H -4.090709 -3.006437 0.059299 0
M  V30 47 H -5.269366 -5.169872 -0.474453 0
M  V30 END ATOM
M  V30 BEGIN BOND
M  V30 1 1 1 2
M  V30 2 1 2 3
M  V30 3 2 3 4
M  V30 4 1 4 5
M  V30 5 2 5 6
M  V30 6 1 6 7
M  V30 7 2 7 8
M  V30 8 1 8 9
M  V30 9 1 9 10
M  V30 10 2 10 11
M  V30 11 1 11 12
M  V30 12 1 12 13
M  V30 13 1 13 14
M  V30 14 2 14 15
M  V30 15 1 14 16
M  V30 16 1 16 17
M  V30 17 1 17 18
M  V30 18 1 18 19
M  V30 19 1 19 20
M  V30 20 1 20 21
M  V30 21 2 12 22
M  V30 22 1 22 23
M  V30 23 2 23 24
M  V30 24 1 24 25
M  V30 25 2 25 26
M  V30 26 1 6 27
M  V30 27 2 27 28
M  V30 28 1 28 3
M  V30 29 1 25 7
M  V30 30 1 24 10
M  V30 31 1 21 16
M  V30 32 1 1 29
M  V30 33 1 1 30
M  V30 34 1 1 31
M  V30 35 1 4 32
M  V30 36 1 5 33
M  V30 37 1 8 34
M  V30 38 1 11 35
M  V30 39 1 17 36
M  V30 40 1 17 37
M  V30 41 1 18 38
M  V30 42 1 18 39
M  V30 43 1 20 40
M  V30 44 1 20 41
M  V30 45 1 21 42
M  V30 46 1 21 43
M  V30 47 1 22 44
M  V30 48 1 23 45
M  V30 49 1 27 46
M  V30 50 1 28 47
M  V30 END BOND
M  V30 END CTAB
M  END
>  <Dataset>  (635) 
ChEMBL_Kinases

>  <Ligand_Instance>  (635) 
nan

>  <PDB_ID>  (635) 
nan

>  <Standardized_SMILES>  (635) 
COc1ccc(-c2coc3cc(OC(=O)N4CCOCC4)ccc3c2=O)cc1

>  <Name>  (635) 
nan

>  <Pocket>  (635) 
nan

>  <ATP_Site>  (635) 
nan

>  <Peripheral>  (635) 
nan

>  <Num_H_Atoms_ProtBoundConf>  (635) 
nan

>  <Num_Resolved_Atoms>  (635) 
nan

>  <Num_Not_Resolved_Atoms>  (635) 
nan

$$$$
CHEMBL1540060
     RDKit          3D

  0  0  0  0  0  0  0  0  0  0999 V3000
M  V30 BEGIN CTAB
M  V30 COUNTS 40 42 0 0 0
M  V30 BEGIN ATOM
M  V30 1 O 1.559355 -0.237957 1.707211 0
M  V30 2 C 1.480656 -0.178784 0.454702 0
M  V30 3 C 2.767329 0.102269 -0.159807 0
M  V30 4 O 2.850363 0.195264 -1.526738 0
M  V30 5 C 2.597029 -0.679371 -2.525002 0
M  V30 6 C 2.157274 -2.012404 -2.532644 0
M  V30 7 C 1.972123 -2.700644 -3.712698 0
M  V30 8 C 2.211850 -2.106100 -4.934094 0
M  V30 9 C 2.645259 -0.796896 -4.970560 0
M  V30 10 C 2.833880 -0.096813 -3.776684 0
M  V30 11 N 0.200611 -0.389698 -0.083485 0
M  V30 12 C -1.122957 -0.655747 0.334227 0
M  V30 13 C -1.858899 0.337833 1.142518 0
M  V30 14 N -1.320159 0.724918 2.403191 0
M  V30 15 C -0.538698 1.760247 2.833469 0
M  V30 16 C -0.310182 1.729109 4.189087 0
M  V30 17 C -0.969004 0.627550 4.668839 0
M  V30 18 C -1.116313 0.071686 5.916812 0
M  V30 19 C -1.869386 -1.090681 6.109231 0
M  V30 20 C -2.480015 -1.697255 5.027547 0
M  V30 21 C -2.305498 -1.107142 3.800980 0
M  V30 22 C -1.561570 0.053040 3.567048 0
M  V30 23 H 3.586258 -0.576026 0.227450 0
M  V30 24 H 3.092976 1.110040 0.241538 0
M  V30 25 H 2.007170 -2.358348 -1.516885 0
M  V30 26 H 1.631577 -3.710149 -3.510283 0
M  V30 27 H 2.035184 -2.735048 -5.798190 0
M  V30 28 H 2.819793 -0.372549 -5.942742 0
M  V30 29 H 3.178772 0.928522 -3.961237 0
M  V30 30 H 0.310605 -0.308464 -1.146104 0
M  V30 31 H -1.084567 -1.604606 0.981114 0
M  V30 32 H -1.790973 -0.950747 -0.508787 0
M  V30 33 H -2.879750 -0.111501 1.338830 0
M  V30 34 H -2.118477 1.263298 0.559757 0
M  V30 35 H -0.179009 2.488684 2.102945 0
M  V30 36 H 0.280242 2.452099 4.732922 0
M  V30 37 H -0.640852 0.541370 6.767571 0
M  V30 38 H -1.995798 -1.541813 7.084423 0
M  V30 39 H -3.064404 -2.592453 5.150971 0
M  V30 40 H -2.808311 -1.623181 2.969386 0
M  V30 END ATOM
M  V30 BEGIN BOND
M  V30 1 2 1 2
M  V30 2 1 2 3
M  V30 3 1 3 4
M  V30 4 1 4 5
M  V30 5 2 5 6
M  V30 6 1 6 7
M  V30 7 2 7 8
M  V30 8 1 8 9
M  V30 9 2 9 10
M  V30 10 1 2 11
M  V30 11 1 11 12
M  V30 12 1 12 13
M  V30 13 1 13 14
M  V30 14 1 14 15
M  V30 15 2 15 16
M  V30 16 1 16 17
M  V30 17 2 17 18
M  V30 18 1 18 19
M  V30 19 2 19 20
M  V30 20 1 20 21
M  V30 21 2 21 22
M  V30 22 1 10 5
M  V30 23 1 22 14
M  V30 24 1 22 17
M  V30 25 1 3 23
M  V30 26 1 3 24
M  V30 27 1 6 25
M  V30 28 1 7 26
M  V30 29 1 8 27
M  V30 30 1 9 28
M  V30 31 1 10 29
M  V30 32 1 11 30
M  V30 33 1 12 31
M  V30 34 1 12 32
M  V30 35 1 13 33
M  V30 36 1 13 34
M  V30 37 1 15 35
M  V30 38 1 16 36
M  V30 39 1 18 37
M  V30 40 1 19 38
M  V30 41 1 20 39
M  V30 42 1 21 40
M  V30 END BOND
M  V30 END CTAB
M  END
>  <Dataset>  (636) 
ChEMBL_Kinases

>  <Ligand_Instance>  (636) 
nan

>  <PDB_ID>  (636) 
nan

>  <Standardized_SMILES>  (636) 
O=C(COc1ccccc1)NCCn1ccc2ccccc21

>  <Name>  (636) 
nan

>  <Pocket>  (636) 
nan

>  <ATP_Site>  (636) 
nan

>  <Peripheral>  (636) 
nan

>  <Num_H_Atoms_ProtBoundConf>  (636) 
nan

>  <Num_Resolved_Atoms>  (636) 
nan

>  <Num_Not_Resolved_Atoms>  (636) 
nan

$$$$
CHEMBL1540020
     RDKit          3D

  0  0  0  0  0  0  0  0  0  0999 V3000
M  V30 BEGIN CTAB
M  V30 COUNTS 29 31 0 0 0
M  V30 BEGIN ATOM
M  V30 1 O -0.495045 0.731448 2.188617 0
M  V30 2 C -0.320157 -0.399774 2.709487 0
M  V30 3 N -0.949295 -1.594138 2.294326 0
M  V30 4 C -1.890343 -1.543701 1.164318 0
M  V30 5 C -1.135124 -1.040069 -0.040087 0
M  V30 6 N -0.993038 0.260879 -0.421508 0
M  V30 7 C -0.252062 0.314997 -1.546724 0
M  V30 8 C 0.132294 1.438597 -2.271007 0
M  V30 9 C 0.908194 1.251378 -3.417954 0
M  V30 10 C 1.231138 -0.066071 -3.736238 0
M  V30 11 C 0.836880 -1.165771 -3.000078 0
M  V30 12 C 0.077900 -0.964789 -1.880431 0
M  V30 13 N -0.471754 -1.783007 -0.945876 0
M  V30 14 C 0.580848 -0.538783 3.816542 0
M  V30 15 C 0.988581 -1.552805 4.581043 0
M  V30 16 C 1.889475 -1.362835 5.596783 0
M  V30 17 C 2.340322 -0.033216 5.763032 0
M  V30 18 S 1.480084 0.921078 4.478454 0
M  V30 19 H -0.784945 -2.523556 2.746779 0
M  V30 20 H -2.272092 -2.546134 0.932615 0
M  V30 21 H -2.723021 -0.829791 1.389421 0
M  V30 22 H -0.134769 2.452483 -1.998086 0
M  V30 23 H 1.246710 2.077150 -4.034826 0
M  V30 24 H 1.837961 -0.172940 -4.638327 0
M  V30 25 H 1.116935 -2.167733 -3.294124 0
M  V30 26 H -0.404081 -2.822379 -0.914602 0
M  V30 27 H 0.565150 -2.519224 4.346670 0
M  V30 28 H 2.251925 -2.148992 6.244443 0
M  V30 29 H 3.064229 0.275299 6.536031 0
M  V30 END ATOM
M  V30 BEGIN BOND
M  V30 1 2 1 2
M  V30 2 1 2 3
M  V30 3 1 3 4
M  V30 4 1 4 5
M  V30 5 2 5 6
M  V30 6 1 6 7
M  V30 7 2 7 8
M  V30 8 1 8 9
M  V30 9 2 9 10
M  V30 10 1 10 11
M  V30 11 2 11 12
M  V30 12 1 12 13
M  V30 13 1 2 14
M  V30 14 2 14 15
M  V30 15 1 15 16
M  V30 16 2 16 17
M  V30 17 1 17 18
M  V30 18 1 13 5
M  V30 19 1 18 14
M  V30 20 1 12 7
M  V30 21 1 3 19
M  V30 22 1 4 20
M  V30 23 1 4 21
M  V30 24 1 8 22
M  V30 25 1 9 23
M  V30 26 1 10 24
M  V30 27 1 11 25
M  V30 28 1 13 26
M  V30 29 1 15 27
M  V30 30 1 16 28
M  V30 31 1 17 29
M  V30 END BOND
M  V30 END CTAB
M  END
>  <Dataset>  (637) 
ChEMBL_Kinases

>  <Ligand_Instance>  (637) 
nan

>  <PDB_ID>  (637) 
nan

>  <Standardized_SMILES>  (637) 
O=C(NCc1nc2ccccc2[nH]1)c1cccs1

>  <Name>  (637) 
nan

>  <Pocket>  (637) 
nan

>  <ATP_Site>  (637) 
nan

>  <Peripheral>  (637) 
nan

>  <Num_H_Atoms_ProtBoundConf>  (637) 
nan

>  <Num_Resolved_Atoms>  (637) 
nan

>  <Num_Not_Resolved_Atoms>  (637) 
nan

$$$$
CHEMBL1530323
     RDKit          3D

  0  0  0  0  0  0  0  0  0  0999 V3000
M  V30 BEGIN CTAB
M  V30 COUNTS 47 50 0 0 0
M  V30 BEGIN ATOM
M  V30 1 C 1.136775 -3.562587 0.543573 0
M  V30 2 O 0.983688 -2.181619 0.191566 0
M  V30 3 C 1.174176 -1.794096 -1.111701 0
M  V30 4 C 1.512189 -2.611625 -2.179986 0
M  V30 5 C 1.680193 -2.117145 -3.455666 0
M  V30 6 C 1.512369 -0.764012 -3.708390 0
M  V30 7 C 1.171889 0.069676 -2.640814 0
M  V30 8 C 1.004163 -0.442822 -1.351577 0
M  V30 9 N 0.658588 0.540385 -0.380014 0
M  V30 10 C 1.548111 0.736645 0.747799 0
M  V30 11 C 1.224055 1.979030 1.526879 0
M  V30 12 N -0.143974 2.301897 1.601576 0
M  V30 13 S -1.062572 1.670907 2.860603 0
M  V30 14 O -0.572006 2.269221 4.164723 0
M  V30 15 O -2.470729 2.247714 2.715434 0
M  V30 16 C -1.192597 -0.041489 2.942737 0
M  V30 17 C -0.332536 -0.866503 3.675470 0
M  V30 18 C 0.772369 -0.252293 4.459602 0
M  V30 19 C -0.521804 -2.254982 3.671058 0
M  V30 20 C -1.556459 -2.783297 2.941965 0
M  V30 21 C -2.373402 -1.919852 2.238404 0
M  V30 22 N -3.413591 -2.663672 1.529855 0
M  V30 23 S -4.226728 -1.206908 0.772579 0
M  V30 24 N -3.191246 -0.010060 1.432464 0
M  V30 25 C -2.210229 -0.600511 2.229703 0
M  V30 26 C -0.817309 2.393878 0.334265 0
M  V30 27 C -0.560087 1.266322 -0.602049 0
M  V30 28 H 2.089294 -3.989693 0.168849 0
M  V30 29 H 1.088755 -3.661548 1.639208 0
M  V30 30 H 0.295706 -4.163890 0.116411 0
M  V30 31 H 1.627901 -3.645892 -1.921649 0
M  V30 32 H 1.940008 -2.829804 -4.207249 0
M  V30 33 H 1.652291 -0.417476 -4.717062 0
M  V30 34 H 1.066610 1.096986 -2.947129 0
M  V30 35 H 1.510578 -0.122265 1.449092 0
M  V30 36 H 2.579626 0.755472 0.337374 0
M  V30 37 H 1.680938 2.022736 2.528931 0
M  V30 38 H 1.726763 2.823989 0.964207 0
M  V30 39 H 1.191513 -1.082690 5.108128 0
M  V30 40 H 1.606460 0.050390 3.832927 0
M  V30 41 H 0.427668 0.489189 5.208763 0
M  V30 42 H 0.197535 -2.832122 4.271771 0
M  V30 43 H -1.557265 -3.867177 3.049597 0
M  V30 44 H -0.449648 3.330996 -0.148621 0
M  V30 45 H -1.897807 2.532350 0.539357 0
M  V30 46 H -1.384210 0.502459 -0.641033 0
M  V30 47 H -0.535926 1.661519 -1.660333 0
M  V30 END ATOM
M  V30 BEGIN BOND
M  V30 1 1 1 2
M  V30 2 1 2 3
M  V30 3 2 3 4
M  V30 4 1 4 5
M  V30 5 2 5 6
M  V30 6 1 6 7
M  V30 7 2 7 8
M  V30 8 1 8 9
M  V30 9 1 9 10
M  V30 10 1 10 11
M  V30 11 1 11 12
M  V30 12 1 12 13
M  V30 13 2 13 14
M  V30 14 2 13 15
M  V30 15 1 13 16
M  V30 16 2 16 17
M  V30 17 1 17 18
M  V30 18 1 17 19
M  V30 19 2 19 20
M  V30 20 1 20 21
M  V30 21 2 21 22
M  V30 22 1 22 23
M  V30 23 1 23 24
M  V30 24 2 24 25
M  V30 25 1 12 26
M  V30 26 1 26 27
M  V30 27 1 8 3
M  V30 28 1 27 9
M  V30 29 1 25 16
M  V30 30 1 25 21
M  V30 31 1 1 28
M  V30 32 1 1 29
M  V30 33 1 1 30
M  V30 34 1 4 31
M  V30 35 1 5 32
M  V30 36 1 6 33
M  V30 37 1 7 34
M  V30 38 1 10 35
M  V30 39 1 10 36
M  V30 40 1 11 37
M  V30 41 1 11 38
M  V30 42 1 18 39
M  V30 43 1 18 40
M  V30 44 1 18 41
M  V30 45 1 19 42
M  V30 46 1 20 43
M  V30 47 1 26 44
M  V30 48 1 26 45
M  V30 49 1 27 46
M  V30 50 1 27 47
M  V30 END BOND
M  V30 END CTAB
M  END
>  <Dataset>  (638) 
ChEMBL_Kinases

>  <Ligand_Instance>  (638) 
nan

>  <PDB_ID>  (638) 
nan

>  <Standardized_SMILES>  (638) 
COc1ccccc1N1CCN(S(=O)(=O)c2c(C)ccc3nsnc23)CC1

>  <Name>  (638) 
nan

>  <Pocket>  (638) 
nan

>  <ATP_Site>  (638) 
nan

>  <Peripheral>  (638) 
nan

>  <Num_H_Atoms_ProtBoundConf>  (638) 
nan

>  <Num_Resolved_Atoms>  (638) 
nan

>  <Num_Not_Resolved_Atoms>  (638) 
nan

$$$$
CHEMBL1538281
     RDKit          3D

  0  0  0  0  0  0  0  0  0  0999 V3000
M  V30 BEGIN CTAB
M  V30 COUNTS 41 42 0 0 0
M  V30 BEGIN ATOM
M  V30 1 C -0.765023 -4.949934 -0.728327 0
M  V30 2 O 0.047464 -3.808988 -0.535857 0
M  V30 3 C 1.412173 -3.875923 -0.407238 0
M  V30 4 C 2.003841 -5.109575 -0.469669 0
M  V30 5 C 3.372005 -5.227401 -0.345703 0
M  V30 6 C 4.072148 -4.060820 -0.161888 0
M  V30 7 C 3.458104 -2.845734 -0.103494 0
M  V30 8 C 2.091630 -2.698185 -0.224378 0
M  V30 9 C 1.538925 -1.356869 -0.147470 0
M  V30 10 O 2.323985 -0.375331 0.026566 0
M  V30 11 N 0.210512 -0.909525 -0.235072 0
M  V30 12 C 0.049181 0.516367 -0.111147 0
M  V30 13 C 0.081343 1.359036 -1.207786 0
M  V30 14 C -0.081782 2.722219 -1.007559 0
M  V30 15 C -0.274831 3.251264 0.260680 0
M  V30 16 C -0.308483 2.417439 1.362592 0
M  V30 17 N -0.497232 2.814622 2.716978 0
M  V30 18 C 0.654105 3.146697 3.544161 0
M  V30 19 S -2.138437 2.867858 3.275153 0
M  V30 20 C -2.890185 1.254836 3.187285 0
M  V30 21 O -2.982766 3.815114 2.499027 0
M  V30 22 O -2.211818 3.288074 4.718718 0
M  V30 23 C -0.144898 1.041739 1.170025 0
M  V30 24 H -0.363649 -5.620820 -1.517122 0
M  V30 25 H -0.840797 -5.530312 0.227690 0
M  V30 26 H -1.807155 -4.642006 -0.954474 0
M  V30 27 H 1.424733 -6.004709 -0.614827 0
M  V30 28 H 3.919358 -6.156338 -0.382626 0
M  V30 29 H 5.147176 -4.118878 -0.061100 0
M  V30 30 H 4.100790 -1.964419 0.046636 0
M  V30 31 H -0.513661 -1.626470 -0.377093 0
M  V30 32 H 0.230454 0.956546 -2.193177 0
M  V30 33 H -0.061261 3.409526 -1.849574 0
M  V30 34 H -0.404956 4.299097 0.457964 0
M  V30 35 H 0.387978 3.757837 4.413041 0
M  V30 36 H 1.455451 3.625384 2.952981 0
M  V30 37 H 1.076125 2.161470 3.878938 0
M  V30 38 H -3.864587 1.304101 3.673949 0
M  V30 39 H -2.191958 0.504470 3.638427 0
M  V30 40 H -2.998517 0.940083 2.132193 0
M  V30 41 H -0.162650 0.332407 2.007656 0
M  V30 END ATOM
M  V30 BEGIN BOND
M  V30 1 1 1 2
M  V30 2 1 2 3
M  V30 3 2 3 4
M  V30 4 1 4 5
M  V30 5 2 5 6
M  V30 6 1 6 7
M  V30 7 2 7 8
M  V30 8 1 8 9
M  V30 9 2 9 10
M  V30 10 1 9 11
M  V30 11 1 11 12
M  V30 12 2 12 13
M  V30 13 1 13 14
M  V30 14 2 14 15
M  V30 15 1 15 16
M  V30 16 1 16 17
M  V30 17 1 17 18
M  V30 18 1 17 19
M  V30 19 1 19 20
M  V30 20 2 19 21
M  V30 21 2 19 22
M  V30 22 2 16 23
M  V30 23 1 8 3
M  V30 24 1 23 12
M  V30 25 1 1 24
M  V30 26 1 1 25
M  V30 27 1 1 26
M  V30 28 1 4 27
M  V30 29 1 5 28
M  V30 30 1 6 29
M  V30 31 1 7 30
M  V30 32 1 11 31
M  V30 33 1 13 32
M  V30 34 1 14 33
M  V30 35 1 15 34
M  V30 36 1 18 35
M  V30 37 1 18 36
M  V30 38 1 18 37
M  V30 39 1 20 38
M  V30 40 1 20 39
M  V30 41 1 20 40
M  V30 42 1 23 41
M  V30 END BOND
M  V30 END CTAB
M  END
>  <Dataset>  (639) 
ChEMBL_Kinases

>  <Ligand_Instance>  (639) 
nan

>  <PDB_ID>  (639) 
nan

>  <Standardized_SMILES>  (639) 
COc1ccccc1C(=O)Nc1cccc(N(C)S(C)(=O)=O)c1

>  <Name>  (639) 
nan

>  <Pocket>  (639) 
nan

>  <ATP_Site>  (639) 
nan

>  <Peripheral>  (639) 
nan

>  <Num_H_Atoms_ProtBoundConf>  (639) 
nan

>  <Num_Resolved_Atoms>  (639) 
nan

>  <Num_Not_Resolved_Atoms>  (639) 
nan

$$$$
CHEMBL1538317
     RDKit          3D

  0  0  0  0  0  0  0  0  0  0999 V3000
M  V30 BEGIN CTAB
M  V30 COUNTS 34 35 0 0 0
M  V30 BEGIN ATOM
M  V30 1 C -0.780381 -1.933006 3.074885 0
M  V30 2 C 0.590837 -2.155635 2.538106 0
M  V30 3 N 0.620338 -3.088184 1.399527 0
M  V30 4 C 0.781460 -4.524724 1.651842 0
M  V30 5 C 2.243816 -4.910777 1.658643 0
M  V30 6 C 0.494340 -2.681815 0.019356 0
M  V30 7 O 0.521963 -3.482686 -0.964645 0
M  V30 8 C 0.326034 -1.258834 -0.257465 0
M  V30 9 C -0.573338 -0.215766 -0.328936 0
M  V30 10 C 0.135867 0.915271 -0.689346 0
M  V30 11 C -0.584721 2.182620 -0.839269 0
M  V30 12 C -1.940148 2.365131 -0.656029 0
M  V30 13 C -2.421217 3.653348 -0.849393 0
M  V30 14 C -1.569532 4.705318 -1.210902 0
M  V30 15 Br -2.262582 6.450653 -1.466998 0
M  V30 16 C -0.224429 4.488652 -1.384905 0
M  V30 17 C 0.259134 3.215278 -1.195383 0
M  V30 18 O 1.410478 0.558734 -0.826919 0
M  V30 19 N 1.538806 -0.713050 -0.577640 0
M  V30 20 H -1.004940 -0.847259 3.067702 0
M  V30 21 H -0.914495 -2.260521 4.125864 0
M  V30 22 H -1.581676 -2.423705 2.477927 0
M  V30 23 H 0.997608 -1.188991 2.145048 0
M  V30 24 H 1.264589 -2.557574 3.332279 0
M  V30 25 H 0.286362 -5.075482 0.829328 0
M  V30 26 H 0.323148 -4.817807 2.602097 0
M  V30 27 H 2.818341 -4.445168 2.476790 0
M  V30 28 H 2.744378 -4.691270 0.706758 0
M  V30 29 H 2.317375 -6.007420 1.797379 0
M  V30 30 H -1.580038 -0.532786 -0.092182 0
M  V30 31 H -2.509272 1.496031 -0.379314 0
M  V30 32 H -3.483888 3.797368 -0.707394 0
M  V30 33 H 0.410085 5.318933 -1.665094 0
M  V30 34 H 1.344094 3.121637 -1.353473 0
M  V30 END ATOM
M  V30 BEGIN BOND
M  V30 1 1 1 2
M  V30 2 1 2 3
M  V30 3 1 3 4
M  V30 4 1 4 5
M  V30 5 1 3 6
M  V30 6 2 6 7
M  V30 7 1 6 8
M  V30 8 1 8 9
M  V30 9 2 9 10
M  V30 10 1 10 11
M  V30 11 2 11 12
M  V30 12 1 12 13
M  V30 13 2 13 14
M  V30 14 1 14 15
M  V30 15 1 14 16
M  V30 16 2 16 17
M  V30 17 1 10 18
M  V30 18 1 18 19
M  V30 19 2 19 8
M  V30 20 1 17 11
M  V30 21 1 1 20
M  V30 22 1 1 21
M  V30 23 1 1 22
M  V30 24 1 2 23
M  V30 25 1 2 24
M  V30 26 1 4 25
M  V30 27 1 4 26
M  V30 28 1 5 27
M  V30 29 1 5 28
M  V30 30 1 5 29
M  V30 31 1 9 30
M  V30 32 1 12 31
M  V30 33 1 13 32
M  V30 34 1 16 33
M  V30 35 1 17 34
M  V30 END BOND
M  V30 END CTAB
M  END
>  <Dataset>  (640) 
ChEMBL_Kinases

>  <Ligand_Instance>  (640) 
nan

>  <PDB_ID>  (640) 
nan

>  <Standardized_SMILES>  (640) 
CCN(CC)C(=O)c1cc(-c2ccc(Br)cc2)on1

>  <Name>  (640) 
nan

>  <Pocket>  (640) 
nan

>  <ATP_Site>  (640) 
nan

>  <Peripheral>  (640) 
nan

>  <Num_H_Atoms_ProtBoundConf>  (640) 
nan

>  <Num_Resolved_Atoms>  (640) 
nan

>  <Num_Not_Resolved_Atoms>  (640) 
nan

$$$$
CHEMBL1538470
     RDKit          3D

  0  0  0  0  0  0  0  0  0  0999 V3000
M  V30 BEGIN CTAB
M  V30 COUNTS 50 53 0 0 0
M  V30 BEGIN ATOM
M  V30 1 N 0.041128 -5.340757 -0.941204 0
M  V30 2 C -0.289054 -4.767830 -2.203032 0
M  V30 3 O -1.342225 -5.416294 -2.076873 0
M  V30 4 C 0.820627 -3.877886 -2.679180 0
M  V30 5 C 1.093914 -2.796573 -1.674631 0
M  V30 6 C 1.883877 -1.704046 -2.353539 0
M  V30 7 N 0.980298 -1.058734 -3.270622 0
M  V30 8 C 0.260716 0.179753 -3.157696 0
M  V30 9 O -0.526194 0.846632 -3.864949 0
M  V30 10 C 0.575022 0.754945 -1.841349 0
M  V30 11 C 1.669068 1.353400 -1.258321 0
M  V30 12 C 1.668929 1.769466 0.038047 0
M  V30 13 C 0.552756 1.612354 0.852849 0
M  V30 14 N 0.504807 1.982847 2.111515 0
M  V30 15 C -0.436729 1.848384 2.831749 0
M  V30 16 N -0.926083 2.040828 4.174146 0
M  V30 17 C -0.066475 2.547589 5.249290 0
M  V30 18 C -0.025438 1.431645 6.286944 0
M  V30 19 C -0.701480 0.163206 5.791780 0
M  V30 20 C -2.133264 0.395304 5.355825 0
M  V30 21 C -2.266605 1.761446 4.662525 0
M  V30 22 S -1.652542 1.037614 1.700984 0
M  V30 23 C -0.514758 1.023136 0.261926 0
M  V30 24 C -0.577938 0.572200 -1.065035 0
M  V30 25 C 0.922524 -1.966076 -4.377446 0
M  V30 26 C 0.597944 -3.367203 -4.043906 0
M  V30 27 H 0.287422 -5.769554 -0.027169 0
M  V30 28 H 0.209934 -5.616552 0.047231 0
M  V30 29 H 1.751952 -4.534771 -2.671222 0
M  V30 30 H 1.655585 -3.203969 -0.785928 0
M  V30 31 H 0.133663 -2.412430 -1.254086 0
M  V30 32 H 2.298633 -0.977006 -1.603501 0
M  V30 33 H 2.765224 -2.137175 -2.840471 0
M  V30 34 H 2.445287 1.407909 -2.002938 0
M  V30 35 H 2.631010 2.220040 0.312582 0
M  V30 36 H -0.492029 3.449561 5.716079 0
M  V30 37 H 0.950411 2.780175 4.911398 0
M  V30 38 H -0.511263 1.716829 7.230746 0
M  V30 39 H 1.030222 1.141033 6.511384 0
M  V30 40 H -0.146807 -0.273322 4.938401 0
M  V30 41 H -0.646411 -0.577488 6.607917 0
M  V30 42 H -2.395634 -0.380935 4.578251 0
M  V30 43 H -2.858332 0.274044 6.175890 0
M  V30 44 H -2.987454 1.646438 3.823845 0
M  V30 45 H -2.563755 2.562274 5.335047 0
M  V30 46 H -1.555035 0.147448 -1.249623 0
M  V30 47 H 1.947642 -1.945435 -4.872105 0
M  V30 48 H 0.255140 -1.602354 -5.203016 0
M  V30 49 H 1.096187 -4.080509 -4.761619 0
M  V30 50 H -0.512898 -3.501037 -4.257626 0
M  V30 END ATOM
M  V30 BEGIN BOND
M  V30 1 1 1 2
M  V30 2 2 2 3
M  V30 3 1 2 4
M  V30 4 1 4 5
M  V30 5 1 5 6
M  V30 6 1 6 7
M  V30 7 1 7 8
M  V30 8 2 8 9
M  V30 9 1 8 10
M  V30 10 2 10 11
M  V30 11 1 11 12
M  V30 12 2 12 13
M  V30 13 1 13 14
M  V30 14 2 14 15
M  V30 15 1 15 16
M  V30 16 1 16 17
M  V30 17 1 17 18
M  V30 18 1 18 19
M  V30 19 1 19 20
M  V30 20 1 20 21
M  V30 21 1 15 22
M  V30 22 1 22 23
M  V30 23 2 23 24
M  V30 24 1 7 25
M  V30 25 1 25 26
M  V30 26 1 26 4
M  V30 27 1 24 10
M  V30 28 1 23 13
M  V30 29 1 21 16
M  V30 30 1 1 27
M  V30 31 1 1 28
M  V30 32 1 4 29
M  V30 33 1 5 30
M  V30 34 1 5 31
M  V30 35 1 6 32
M  V30 36 1 6 33
M  V30 37 1 11 34
M  V30 38 1 12 35
M  V30 39 1 17 36
M  V30 40 1 17 37
M  V30 41 1 18 38
M  V30 42 1 18 39
M  V30 43 1 19 40
M  V30 44 1 19 41
M  V30 45 1 20 42
M  V30 46 1 20 43
M  V30 47 1 21 44
M  V30 48 1 21 45
M  V30 49 1 24 46
M  V30 50 1 25 47
M  V30 51 1 25 48
M  V30 52 1 26 49
M  V30 53 1 26 50
M  V30 END BOND
M  V30 END CTAB
M  END
>  <Dataset>  (641) 
ChEMBL_Kinases

>  <Ligand_Instance>  (641) 
nan

>  <PDB_ID>  (641) 
nan

>  <Standardized_SMILES>  (641) 
NC(=O)C1CCN(C(=O)c2ccc3nc(N4CCCCC4)sc3c2)CC1

>  <Name>  (641) 
nan

>  <Pocket>  (641) 
nan

>  <ATP_Site>  (641) 
nan

>  <Peripheral>  (641) 
nan

>  <Num_H_Atoms_ProtBoundConf>  (641) 
nan

>  <Num_Resolved_Atoms>  (641) 
nan

>  <Num_Not_Resolved_Atoms>  (641) 
nan

$$$$
CHEMBL1538503
     RDKit          3D

  0  0  0  0  0  0  0  0  0  0999 V3000
M  V30 BEGIN CTAB
M  V30 COUNTS 45 49 0 0 0
M  V30 BEGIN ATOM
M  V30 1 O 0.298331 -2.108227 3.096673 0
M  V30 2 C -0.696116 -2.421650 2.407684 0
M  V30 3 N -1.141168 -1.454291 1.447931 0
M  V30 4 C -0.463737 -0.207520 1.309883 0
M  V30 5 C -0.710029 0.981067 1.967488 0
M  V30 6 C 0.063808 2.091132 1.694425 0
M  V30 7 C 1.089824 2.004730 0.755687 0
M  V30 8 C 1.889043 3.196219 0.489218 0
M  V30 9 N 2.919981 3.242647 -0.405977 0
M  V30 10 C 3.441534 4.482826 -0.408763 0
M  V30 11 C 4.479953 5.015245 -1.130866 0
M  V30 12 C 4.821029 6.348082 -0.939478 0
M  V30 13 C 4.089522 7.092804 -0.016519 0
M  V30 14 C 3.048844 6.538067 0.699234 0
M  V30 15 C 2.711666 5.213132 0.507452 0
M  V30 16 O 1.818913 4.382187 0.990168 0
M  V30 17 C 1.341269 0.819291 0.094701 0
M  V30 18 O 2.373095 0.799381 -0.824530 0
M  V30 19 C 0.558909 -0.300780 0.371606 0
M  V30 20 C -1.519776 -3.627629 2.393389 0
M  V30 21 C -1.502764 -4.303108 1.191554 0
M  V30 22 C -2.249062 -5.457426 1.068809 0
M  V30 23 N -2.266335 -6.192544 -0.150190 0
M  V30 24 C -1.221539 -6.961311 -0.543150 0
M  V30 25 N -1.478579 -7.555202 -1.730023 0
M  V30 26 N -2.700373 -7.155291 -2.088636 0
M  V30 27 C -3.175907 -6.329947 -1.130432 0
M  V30 28 C -2.970515 -5.861609 2.171837 0
M  V30 29 C -3.030809 -5.235503 3.396832 0
M  V30 30 C -2.257653 -4.071128 3.469789 0
M  V30 31 Cl -2.219053 -3.152767 4.951986 0
M  V30 32 H -1.952759 -1.560487 0.797420 0
M  V30 33 H -1.528096 0.910569 2.664603 0
M  V30 34 H -0.176259 2.997085 2.241817 0
M  V30 35 H 5.002220 4.382385 -1.827602 0
M  V30 36 H 5.632173 6.797683 -1.490382 0
M  V30 37 H 4.385676 8.144057 0.111010 0
M  V30 38 H 2.485905 7.114523 1.410432 0
M  V30 39 H 3.323806 0.526380 -0.597361 0
M  V30 40 H 0.839485 -1.176937 -0.200394 0
M  V30 41 H -0.942422 -3.995509 0.324197 0
M  V30 42 H -0.288003 -7.137300 -0.057115 0
M  V30 43 H -4.119887 -5.810407 -1.062504 0
M  V30 44 H -3.567805 -6.779492 2.083703 0
M  V30 45 H -3.607509 -5.596432 4.214541 0
M  V30 END ATOM
M  V30 BEGIN BOND
M  V30 1 2 1 2
M  V30 2 1 2 3
M  V30 3 1 3 4
M  V30 4 2 4 5
M  V30 5 1 5 6
M  V30 6 2 6 7
M  V30 7 1 7 8
M  V30 8 2 8 9
M  V30 9 1 9 10
M  V30 10 2 10 11
M  V30 11 1 11 12
M  V30 12 2 12 13
M  V30 13 1 13 14
M  V30 14 2 14 15
M  V30 15 1 15 16
M  V30 16 1 7 17
M  V30 17 1 17 18
M  V30 18 2 17 19
M  V30 19 1 2 20
M  V30 20 2 20 21
M  V30 21 1 21 22
M  V30 22 1 22 23
M  V30 23 1 23 24
M  V30 24 2 24 25
M  V30 25 1 25 26
M  V30 26 2 26 27
M  V30 27 2 22 28
M  V30 28 1 28 29
M  V30 29 2 29 30
M  V30 30 1 30 31
M  V30 31 1 19 4
M  V30 32 1 30 20
M  V30 33 1 16 8
M  V30 34 1 27 23
M  V30 35 1 15 10
M  V30 36 1 3 32
M  V30 37 1 5 33
M  V30 38 1 6 34
M  V30 39 1 11 35
M  V30 40 1 12 36
M  V30 41 1 13 37
M  V30 42 1 14 38
M  V30 43 1 18 39
M  V30 44 1 19 40
M  V30 45 1 21 41
M  V30 46 1 24 42
M  V30 47 1 27 43
M  V30 48 1 28 44
M  V30 49 1 29 45
M  V30 END BOND
M  V30 END CTAB
M  END
>  <Dataset>  (642) 
ChEMBL_Kinases

>  <Ligand_Instance>  (642) 
nan

>  <PDB_ID>  (642) 
nan

>  <Standardized_SMILES>  (642) 
O=C(Nc1ccc(-c2nc3ccccc3o2)c(O)c1)c1cc(-n2cnnc2)ccc1Cl

>  <Name>  (642) 
nan

>  <Pocket>  (642) 
nan

>  <ATP_Site>  (642) 
nan

>  <Peripheral>  (642) 
nan

>  <Num_H_Atoms_ProtBoundConf>  (642) 
nan

>  <Num_Resolved_Atoms>  (642) 
nan

>  <Num_Not_Resolved_Atoms>  (642) 
nan

$$$$
CHEMBL1538577
     RDKit          3D

  0  0  0  0  0  0  0  0  0  0999 V3000
M  V30 BEGIN CTAB
M  V30 COUNTS 41 43 0 0 0
M  V30 BEGIN ATOM
M  V30 1 O -0.542975 -4.805273 4.035940 0
M  V30 2 C 0.047291 -4.708208 2.777771 0
M  V30 3 C 0.565252 -3.312582 2.585257 0
M  V30 4 N -0.464153 -2.293874 2.666096 0
M  V30 5 C -1.387888 -2.321810 1.597012 0
M  V30 6 C -1.628870 -1.077632 0.832866 0
M  V30 7 N -0.701925 0.003552 1.109066 0
M  V30 8 C 0.046233 0.850905 0.233788 0
M  V30 9 C -0.285256 2.193278 0.313270 0
M  V30 10 C 0.398661 3.064048 -0.509007 0
M  V30 11 C 0.123730 4.529499 -0.508621 0
M  V30 12 F -0.649348 4.887070 0.559381 0
M  V30 13 F -0.535525 4.835294 -1.675170 0
M  V30 14 F 1.292351 5.260708 -0.454487 0
M  V30 15 N 1.366614 2.683482 -1.380626 0
M  V30 16 C 1.683400 1.394828 -1.456143 0
M  V30 17 C 2.669582 0.918099 -2.324084 0
M  V30 18 C 2.981000 -0.438667 -2.377398 0
M  V30 19 C 2.293586 -1.325260 -1.549360 0
M  V30 20 C 1.321951 -0.844648 -0.696349 0
M  V30 21 C 1.034042 0.492214 -0.662022 0
M  V30 22 C -0.575156 0.166566 2.567411 0
M  V30 23 C 0.158351 -1.072201 3.002170 0
M  V30 24 H 0.077589 -4.299545 4.647063 0
M  V30 25 H -0.603684 -5.056082 1.964847 0
M  V30 26 H 0.927214 -5.382888 2.770533 0
M  V30 27 H 1.161836 -3.210832 1.671607 0
M  V30 28 H 1.284134 -3.130981 3.430195 0
M  V30 29 H -2.349796 -2.725780 2.021435 0
M  V30 30 H -1.074875 -3.101244 0.869083 0
M  V30 31 H -1.741319 -1.229939 -0.260555 0
M  V30 32 H -2.632213 -0.665116 1.163033 0
M  V30 33 H -1.055962 2.572889 0.994856 0
M  V30 34 H 3.212725 1.615397 -2.977522 0
M  V30 35 H 3.738180 -0.851064 -3.036169 0
M  V30 36 H 2.540898 -2.379410 -1.598027 0
M  V30 37 H 0.834378 -1.565836 -0.090175 0
M  V30 38 H -1.583688 0.275093 2.962867 0
M  V30 39 H 0.060017 1.033385 2.745129 0
M  V30 40 H 1.172148 -1.035087 2.501551 0
M  V30 41 H 0.374305 -1.038398 4.088572 0
M  V30 END ATOM
M  V30 BEGIN BOND
M  V30 1 1 1 2
M  V30 2 1 2 3
M  V30 3 1 3 4
M  V30 4 1 4 5
M  V30 5 1 5 6
M  V30 6 1 6 7
M  V30 7 1 7 8
M  V30 8 2 8 9
M  V30 9 1 9 10
M  V30 10 1 10 11
M  V30 11 1 11 12
M  V30 12 1 11 13
M  V30 13 1 11 14
M  V30 14 2 10 15
M  V30 15 1 15 16
M  V30 16 2 16 17
M  V30 17 1 17 18
M  V30 18 2 18 19
M  V30 19 1 19 20
M  V30 20 2 20 21
M  V30 21 1 7 22
M  V30 22 1 22 23
M  V30 23 1 23 4
M  V30 24 1 21 8
M  V30 25 1 21 16
M  V30 26 1 1 24
M  V30 27 1 2 25
M  V30 28 1 2 26
M  V30 29 1 3 27
M  V30 30 1 3 28
M  V30 31 1 5 29
M  V30 32 1 5 30
M  V30 33 1 6 31
M  V30 34 1 6 32
M  V30 35 1 9 33
M  V30 36 1 17 34
M  V30 37 1 18 35
M  V30 38 1 19 36
M  V30 39 1 20 37
M  V30 40 1 22 38
M  V30 41 1 22 39
M  V30 42 1 23 40
M  V30 43 1 23 41
M  V30 END BOND
M  V30 END CTAB
M  END
>  <Dataset>  (643) 
ChEMBL_Kinases

>  <Ligand_Instance>  (643) 
nan

>  <PDB_ID>  (643) 
nan

>  <Standardized_SMILES>  (643) 
OCCN1CCN(c2cc(C(F)(F)F)nc3ccccc23)CC1

>  <Name>  (643) 
nan

>  <Pocket>  (643) 
nan

>  <ATP_Site>  (643) 
nan

>  <Peripheral>  (643) 
nan

>  <Num_H_Atoms_ProtBoundConf>  (643) 
nan

>  <Num_Resolved_Atoms>  (643) 
nan

>  <Num_Not_Resolved_Atoms>  (643) 
nan

$$$$
CHEMBL1538707
     RDKit          3D

  0  0  0  0  0  0  0  0  0  0999 V3000
M  V30 BEGIN CTAB
M  V30 COUNTS 30 31 0 0 0
M  V30 BEGIN ATOM
M  V30 1 C -2.878874 -3.641118 3.063221 0
M  V30 2 C -1.727397 -4.468310 2.604742 0
M  V30 3 O -0.506783 -3.768726 2.560024 0
M  V30 4 C -0.232644 -2.654908 1.808113 0
M  V30 5 C 1.083288 -2.226791 2.012810 0
M  V30 6 C 1.590990 -1.103641 1.348919 0
M  V30 7 C 0.777414 -0.394525 0.467232 0
M  V30 8 N 1.291014 0.732677 -0.197394 0
M  V30 9 C 1.839988 0.654861 -1.441696 0
M  V30 10 O 1.892616 -0.462822 -2.023082 0
M  V30 11 C 2.326328 1.796892 -2.039994 0
M  V30 12 C 2.228394 2.971037 -1.335085 0
M  V30 13 O 2.720443 4.106810 -1.948585 0
M  V30 14 N 1.692320 3.080975 -0.105896 0
M  V30 15 C 1.226172 1.925264 0.442133 0
M  V30 16 O 0.724806 2.050972 1.601266 0
M  V30 17 C -0.517492 -0.833205 0.279300 0
M  V30 18 C -1.022469 -1.939331 0.931099 0
M  V30 19 H -3.722733 -3.724366 2.348296 0
M  V30 20 H -2.650156 -2.558941 3.150048 0
M  V30 21 H -3.264210 -3.959728 4.070316 0
M  V30 22 H -1.572334 -5.279952 3.374916 0
M  V30 23 H -1.979446 -4.945358 1.638464 0
M  V30 24 H 1.823446 -2.697237 2.679474 0
M  V30 25 H 2.608924 -0.760612 1.498057 0
M  V30 26 H 2.769806 1.774654 -3.028259 0
M  V30 27 H 2.244771 4.983591 -2.022480 0
M  V30 28 H 1.639186 3.996694 0.392563 0
M  V30 29 H -1.188616 -0.321615 -0.391114 0
M  V30 30 H -2.013877 -2.350381 0.845495 0
M  V30 END ATOM
M  V30 BEGIN BOND
M  V30 1 1 1 2
M  V30 2 1 2 3
M  V30 3 1 3 4
M  V30 4 2 4 5
M  V30 5 1 5 6
M  V30 6 2 6 7
M  V30 7 1 7 8
M  V30 8 1 8 9
M  V30 9 2 9 10
M  V30 10 1 9 11
M  V30 11 2 11 12
M  V30 12 1 12 13
M  V30 13 1 12 14
M  V30 14 1 14 15
M  V30 15 2 15 16
M  V30 16 1 7 17
M  V30 17 2 17 18
M  V30 18 1 18 4
M  V30 19 1 15 8
M  V30 20 1 1 19
M  V30 21 1 1 20
M  V30 22 1 1 21
M  V30 23 1 2 22
M  V30 24 1 2 23
M  V30 25 1 5 24
M  V30 26 1 6 25
M  V30 27 1 11 26
M  V30 28 1 13 27
M  V30 29 1 14 28
M  V30 30 1 17 29
M  V30 31 1 18 30
M  V30 END BOND
M  V30 END CTAB
M  END
>  <Dataset>  (644) 
ChEMBL_Kinases

>  <Ligand_Instance>  (644) 
nan

>  <PDB_ID>  (644) 
nan

>  <Standardized_SMILES>  (644) 
CCOc1ccc(-n2c(=O)cc(O)[nH]c2=O)cc1

>  <Name>  (644) 
nan

>  <Pocket>  (644) 
nan

>  <ATP_Site>  (644) 
nan

>  <Peripheral>  (644) 
nan

>  <Num_H_Atoms_ProtBoundConf>  (644) 
nan

>  <Num_Resolved_Atoms>  (644) 
nan

>  <Num_Not_Resolved_Atoms>  (644) 
nan

$$$$
CHEMBL1538893
     RDKit          3D

  0  0  0  0  0  0  0  0  0  0999 V3000
M  V30 BEGIN CTAB
M  V30 COUNTS 56 58 0 0 0
M  V30 BEGIN ATOM
M  V30 1 C 1.250696 -7.300332 2.786683 0
M  V30 2 C 1.350071 -6.195923 1.769734 0
M  V30 3 C 0.730852 -6.342550 0.544417 0
M  V30 4 C 0.817119 -5.318066 -0.407037 0
M  V30 5 C 1.532264 -4.169984 -0.086291 0
M  V30 6 C 1.649913 -3.074122 -1.042672 0
M  V30 7 N 2.298141 -1.929227 -0.871259 0
M  V30 8 C 2.194110 -1.153735 -1.965194 0
M  V30 9 C 2.792813 0.191353 -2.123346 0
M  V30 10 S 1.577478 1.475782 -1.956277 0
M  V30 11 O 0.558779 1.473768 -3.031988 0
M  V30 12 O 2.322789 2.780247 -2.033598 0
M  V30 13 C 0.794706 1.435867 -0.366735 0
M  V30 14 C -0.205375 2.533365 -0.303147 0
M  V30 15 O -0.387598 3.307955 -1.277662 0
M  V30 16 N -0.864209 2.542401 0.964326 0
M  V30 17 C -0.678819 1.667661 2.108694 0
M  V30 18 C -1.827033 0.692724 2.138878 0
M  V30 19 C -2.026443 0.106911 3.512236 0
M  V30 20 C -3.033169 1.383537 1.586924 0
M  V30 21 C -3.048268 2.877471 1.873818 0
M  V30 22 C -4.329759 3.430156 1.268034 0
M  V30 23 C -1.871908 3.544927 1.199784 0
M  V30 24 C 1.431263 -1.901852 -2.833232 0
M  V30 25 C 1.046828 -1.447950 -4.196667 0
M  V30 26 O 1.123432 -3.037911 -2.255774 0
M  V30 27 C 2.141111 -4.051684 1.147457 0
M  V30 28 C 2.061440 -5.056394 2.091767 0
M  V30 29 H 1.776751 -7.009508 3.705051 0
M  V30 30 H 1.615499 -8.260328 2.426092 0
M  V30 31 H 0.178390 -7.434588 3.100940 0
M  V30 32 H 0.173272 -7.245039 0.302346 0
M  V30 33 H 0.340699 -5.416130 -1.368909 0
M  V30 34 H 3.560742 0.394319 -1.353748 0
M  V30 35 H 3.286306 0.351325 -3.104722 0
M  V30 36 H 1.534225 1.631101 0.439958 0
M  V30 37 H 0.362229 0.442536 -0.124913 0
M  V30 38 H -0.652414 2.248506 3.038277 0
M  V30 39 H 0.290275 1.117222 2.052313 0
M  V30 40 H -1.620162 -0.178003 1.455412 0
M  V30 41 H -2.890698 0.548652 4.062524 0
M  V30 42 H -1.057944 0.283667 4.057195 0
M  V30 43 H -2.129024 -1.000015 3.490961 0
M  V30 44 H -3.967194 0.937098 2.029316 0
M  V30 45 H -3.138975 1.276276 0.483214 0
M  V30 46 H -3.047202 3.075968 2.968182 0
M  V30 47 H -4.291235 3.242886 0.159380 0
M  V30 48 H -4.296605 4.544258 1.396851 0
M  V30 49 H -5.227409 3.022478 1.750866 0
M  V30 50 H -2.217117 4.028900 0.272610 0
M  V30 51 H -1.503662 4.331783 1.910125 0
M  V30 52 H 1.712149 -0.647944 -4.569180 0
M  V30 53 H -0.020261 -1.214691 -4.200035 0
M  V30 54 H 1.194515 -2.310318 -4.900613 0
M  V30 55 H 2.691887 -3.126818 1.350540 0
M  V30 56 H 2.565244 -4.903854 3.050937 0
M  V30 END ATOM
M  V30 BEGIN BOND
M  V30 1 1 1 2
M  V30 2 2 2 3
M  V30 3 1 3 4
M  V30 4 2 4 5
M  V30 5 1 5 6
M  V30 6 2 6 7
M  V30 7 1 7 8
M  V30 8 1 8 9
M  V30 9 1 9 10
M  V30 10 2 10 11
M  V30 11 2 10 12
M  V30 12 1 10 13
M  V30 13 1 13 14
M  V30 14 2 14 15
M  V30 15 1 14 16
M  V30 16 1 16 17
M  V30 17 1 17 18
M  V30 18 1 18 19
M  V30 19 1 18 20
M  V30 20 1 20 21
M  V30 21 1 21 22
M  V30 22 1 21 23
M  V30 23 2 8 24
M  V30 24 1 24 25
M  V30 25 1 24 26
M  V30 26 1 5 27
M  V30 27 2 27 28
M  V30 28 1 28 2
M  V30 29 1 26 6
M  V30 30 1 23 16
M  V30 31 1 1 29
M  V30 32 1 1 30
M  V30 33 1 1 31
M  V30 34 1 3 32
M  V30 35 1 4 33
M  V30 36 1 9 34
M  V30 37 1 9 35
M  V30 38 1 13 36
M  V30 39 1 13 37
M  V30 40 1 17 38
M  V30 41 1 17 39
M  V30 42 1 18 40
M  V30 43 1 19 41
M  V30 44 1 19 42
M  V30 45 1 19 43
M  V30 46 1 20 44
M  V30 47 1 20 45
M  V30 48 1 21 46
M  V30 49 1 22 47
M  V30 50 1 22 48
M  V30 51 1 22 49
M  V30 52 1 23 50
M  V30 53 1 23 51
M  V30 54 1 25 52
M  V30 55 1 25 53
M  V30 56 1 25 54
M  V30 57 1 27 55
M  V30 58 1 28 56
M  V30 END BOND
M  V30 END CTAB
M  END
>  <Dataset>  (645) 
ChEMBL_Kinases

>  <Ligand_Instance>  (645) 
nan

>  <PDB_ID>  (645) 
nan

>  <Standardized_SMILES>  (645) 
Cc1ccc(-c2nc(CS(=O)(=O)CC(=O)N3CC(C)CC(C)C3)c(C)o2)cc1

>  <Name>  (645) 
nan

>  <Pocket>  (645) 
nan

>  <ATP_Site>  (645) 
nan

>  <Peripheral>  (645) 
nan

>  <Num_H_Atoms_ProtBoundConf>  (645) 
nan

>  <Num_Resolved_Atoms>  (645) 
nan

>  <Num_Not_Resolved_Atoms>  (645) 
nan

$$$$
CHEMBL1539964
     RDKit          3D

  0  0  0  0  0  0  0  0  0  0999 V3000
M  V30 BEGIN CTAB
M  V30 COUNTS 47 48 0 0 0
M  V30 BEGIN ATOM
M  V30 1 C 1.762426 -4.876103 1.924993 0
M  V30 2 C 2.163003 -3.626202 1.205503 0
M  V30 3 C 0.976840 -2.975026 0.526678 0
M  V30 4 C 1.367073 -1.738628 -0.186313 0
M  V30 5 O 2.555307 -1.322088 -0.196904 0
M  V30 6 N 0.390101 -0.980605 -0.888163 0
M  V30 7 C 0.666090 0.214186 -1.601318 0
M  V30 8 C 1.068262 0.312042 -2.910954 0
M  V30 9 C 1.307781 1.512351 -3.538869 0
M  V30 10 Cl 1.811547 1.429102 -5.206707 0
M  V30 11 C 1.132654 2.663165 -2.809698 0
M  V30 12 C 0.723474 2.591732 -1.473798 0
M  V30 13 C 0.486869 1.356662 -0.860372 0
M  V30 14 N 0.081852 1.620143 0.489435 0
M  V30 15 C 0.671872 1.262995 1.767676 0
M  V30 16 C -0.397804 1.159660 2.802461 0
M  V30 17 N -1.597735 0.620583 2.183908 0
M  V30 18 C -2.270662 -0.652842 2.308177 0
M  V30 19 O -3.340652 -0.917733 1.649612 0
M  V30 20 C -2.057994 -1.896604 3.070383 0
M  V30 21 C -0.823794 -1.869991 3.954513 0
M  V30 22 C -2.240222 1.551833 1.273674 0
M  V30 23 C -1.154419 2.400911 0.649835 0
M  V30 24 H 2.671494 -5.518312 2.086475 0
M  V30 25 H 1.426955 -4.592356 2.949439 0
M  V30 26 H 0.986269 -5.465548 1.406412 0
M  V30 27 H 2.948950 -3.846872 0.426212 0
M  V30 28 H 2.563591 -2.910569 1.966741 0
M  V30 29 H 0.195770 -2.804189 1.294368 0
M  V30 30 H 0.549701 -3.727766 -0.168885 0
M  V30 31 H -0.629063 -1.249596 -0.934782 0
M  V30 32 H 1.181647 -0.635201 -3.410026 0
M  V30 33 H 1.335194 3.574614 -3.354235 0
M  V30 34 H 0.639866 3.598697 -1.064687 0
M  V30 35 H 1.312815 0.382496 1.730171 0
M  V30 36 H 1.358627 2.125385 2.032988 0
M  V30 37 H -0.609943 2.223363 3.132840 0
M  V30 38 H -0.090922 0.652153 3.722399 0
M  V30 39 H -2.920786 -2.141823 3.745794 0
M  V30 40 H -1.920095 -2.764019 2.409150 0
M  V30 41 H -0.730465 -2.918486 4.372436 0
M  V30 42 H 0.110722 -1.704394 3.420684 0
M  V30 43 H -0.984631 -1.249349 4.857455 0
M  V30 44 H -2.970019 2.164569 1.842209 0
M  V30 45 H -2.771759 0.994189 0.463247 0
M  V30 46 H -0.910829 3.224376 1.383014 0
M  V30 47 H -1.434870 2.804825 -0.321575 0
M  V30 END ATOM
M  V30 BEGIN BOND
M  V30 1 1 1 2
M  V30 2 1 2 3
M  V30 3 1 3 4
M  V30 4 2 4 5
M  V30 5 1 4 6
M  V30 6 1 6 7
M  V30 7 2 7 8
M  V30 8 1 8 9
M  V30 9 1 9 10
M  V30 10 2 9 11
M  V30 11 1 11 12
M  V30 12 2 12 13
M  V30 13 1 13 14
M  V30 14 1 14 15
M  V30 15 1 15 16
M  V30 16 1 16 17
M  V30 17 1 17 18
M  V30 18 2 18 19
M  V30 19 1 18 20
M  V30 20 1 20 21
M  V30 21 1 17 22
M  V30 22 1 22 23
M  V30 23 1 13 7
M  V30 24 1 23 14
M  V30 25 1 1 24
M  V30 26 1 1 25
M  V30 27 1 1 26
M  V30 28 1 2 27
M  V30 29 1 2 28
M  V30 30 1 3 29
M  V30 31 1 3 30
M  V30 32 1 6 31
M  V30 33 1 8 32
M  V30 34 1 11 33
M  V30 35 1 12 34
M  V30 36 1 15 35
M  V30 37 1 15 36
M  V30 38 1 16 37
M  V30 39 1 16 38
M  V30 40 1 20 39
M  V30 41 1 20 40
M  V30 42 1 21 41
M  V30 43 1 21 42
M  V30 44 1 21 43
M  V30 45 1 22 44
M  V30 46 1 22 45
M  V30 47 1 23 46
M  V30 48 1 23 47
M  V30 END BOND
M  V30 END CTAB
M  END
>  <Dataset>  (646) 
ChEMBL_Kinases

>  <Ligand_Instance>  (646) 
nan

>  <PDB_ID>  (646) 
nan

>  <Standardized_SMILES>  (646) 
CCCC(=O)Nc1cc(Cl)ccc1N1CCN(C(=O)CC)CC1

>  <Name>  (646) 
nan

>  <Pocket>  (646) 
nan

>  <ATP_Site>  (646) 
nan

>  <Peripheral>  (646) 
nan

>  <Num_H_Atoms_ProtBoundConf>  (646) 
nan

>  <Num_Resolved_Atoms>  (646) 
nan

>  <Num_Not_Resolved_Atoms>  (646) 
nan

$$$$
CHEMBL1539163
     RDKit          3D

  0  0  0  0  0  0  0  0  0  0999 V3000
M  V30 BEGIN CTAB
M  V30 COUNTS 43 45 0 0 0
M  V30 BEGIN ATOM
M  V30 1 C -1.954584 -5.143326 -2.190855 0
M  V30 2 C -2.961947 -5.069375 -1.083245 0
M  V30 3 O -2.360879 -4.761530 0.138150 0
M  V30 4 C -1.653430 -3.606190 0.353764 0
M  V30 5 C -1.405917 -2.578385 -0.531672 0
M  V30 6 C -0.672627 -1.464305 -0.179609 0
M  V30 7 C -0.153607 -1.348395 1.106018 0
M  V30 8 N 0.571033 -0.164365 1.325913 0
M  V30 9 C 1.788178 0.131789 0.839115 0
M  V30 10 C 2.622321 -0.723915 -0.029948 0
M  V30 11 C 2.061966 1.390558 1.332593 0
M  V30 12 C 3.274554 2.163796 1.089491 0
M  V30 13 O 3.616521 3.310861 1.490811 0
M  V30 14 O 4.329509 1.745564 0.326200 0
M  V30 15 C 5.500584 2.515482 0.103140 0
M  V30 16 C 1.029870 1.869512 2.114648 0
M  V30 17 C 0.852402 3.060587 2.809896 0
M  V30 18 C -0.353960 3.143794 3.482928 0
M  V30 19 O -0.639351 4.293271 4.213585 0
M  V30 20 C -1.323833 2.167771 3.496529 0
M  V30 21 C -1.096874 1.007996 2.791227 0
M  V30 22 C 0.085529 0.848145 2.091960 0
M  V30 23 C -0.397056 -2.372587 1.997362 0
M  V30 24 C -1.130236 -3.486908 1.645976 0
M  V30 25 H -2.187655 -4.491430 -3.064540 0
M  V30 26 H -1.898054 -6.192117 -2.605939 0
M  V30 27 H -0.938397 -4.919089 -1.802706 0
M  V30 28 H -3.490974 -6.046378 -1.014617 0
M  V30 29 H -3.763564 -4.306917 -1.298986 0
M  V30 30 H -1.820055 -2.705598 -1.503935 0
M  V30 31 H -0.541141 -0.719837 -0.955827 0
M  V30 32 H 3.705910 -0.498431 0.128480 0
M  V30 33 H 2.424212 -1.815611 0.159225 0
M  V30 34 H 2.449953 -0.573595 -1.115987 0
M  V30 35 H 6.202376 1.907523 -0.482851 0
M  V30 36 H 5.288490 3.496917 -0.323830 0
M  V30 37 H 6.007277 2.695103 1.085070 0
M  V30 38 H 1.585669 3.839163 2.820169 0
M  V30 39 H -1.361327 4.938248 3.922934 0
M  V30 40 H -2.251722 2.282873 4.040060 0
M  V30 41 H -1.842138 0.228502 2.786757 0
M  V30 42 H 0.043584 -2.203518 2.979983 0
M  V30 43 H -1.265643 -4.225035 2.401354 0
M  V30 END ATOM
M  V30 BEGIN BOND
M  V30 1 1 1 2
M  V30 2 1 2 3
M  V30 3 1 3 4
M  V30 4 2 4 5
M  V30 5 1 5 6
M  V30 6 2 6 7
M  V30 7 1 7 8
M  V30 8 1 8 9
M  V30 9 1 9 10
M  V30 10 2 9 11
M  V30 11 1 11 12
M  V30 12 2 12 13
M  V30 13 1 12 14
M  V30 14 1 14 15
M  V30 15 1 11 16
M  V30 16 2 16 17
M  V30 17 1 17 18
M  V30 18 1 18 19
M  V30 19 2 18 20
M  V30 20 1 20 21
M  V30 21 2 21 22
M  V30 22 1 7 23
M  V30 23 2 23 24
M  V30 24 1 24 4
M  V30 25 1 22 8
M  V30 26 1 22 16
M  V30 27 1 1 25
M  V30 28 1 1 26
M  V30 29 1 1 27
M  V30 30 1 2 28
M  V30 31 1 2 29
M  V30 32 1 5 30
M  V30 33 1 6 31
M  V30 34 1 10 32
M  V30 35 1 10 33
M  V30 36 1 10 34
M  V30 37 1 15 35
M  V30 38 1 15 36
M  V30 39 1 15 37
M  V30 40 1 17 38
M  V30 41 1 19 39
M  V30 42 1 20 40
M  V30 43 1 21 41
M  V30 44 1 23 42
M  V30 45 1 24 43
M  V30 END BOND
M  V30 END CTAB
M  END
>  <Dataset>  (647) 
ChEMBL_Kinases

>  <Ligand_Instance>  (647) 
nan

>  <PDB_ID>  (647) 
nan

>  <Standardized_SMILES>  (647) 
CCOc1ccc(-n2c(C)c(C(=O)OC)c3cc(O)ccc32)cc1

>  <Name>  (647) 
nan

>  <Pocket>  (647) 
nan

>  <ATP_Site>  (647) 
nan

>  <Peripheral>  (647) 
nan

>  <Num_H_Atoms_ProtBoundConf>  (647) 
nan

>  <Num_Resolved_Atoms>  (647) 
nan

>  <Num_Not_Resolved_Atoms>  (647) 
nan

$$$$
CHEMBL1539305
     RDKit          3D

  0  0  0  0  0  0  0  0  0  0999 V3000
M  V30 BEGIN CTAB
M  V30 COUNTS 31 33 0 0 0
M  V30 BEGIN ATOM
M  V30 1 O -0.063155 0.002861 1.994134 0
M  V30 2 C -0.434562 -0.953680 1.161127 0
M  V30 3 C 0.288199 -1.358885 -0.130074 0
M  V30 4 C 1.293284 -0.672633 -0.568704 0
M  V30 5 C 1.886119 0.513335 0.005470 0
M  V30 6 C 3.255186 0.458759 0.260630 0
M  V30 7 C 3.924189 1.575007 0.778977 0
M  V30 8 C 3.175636 2.709199 1.019320 0
M  V30 9 Cl 3.975608 4.141791 1.675695 0
M  V30 10 C 1.820982 2.826778 0.788234 0
M  V30 11 Cl 0.911985 4.288827 1.108071 0
M  V30 12 C 1.227289 1.691821 0.278255 0
M  V30 13 N -0.697372 -2.328410 -0.038705 0
M  V30 14 C -2.090182 -2.228832 -0.598860 0
M  V30 15 C -2.742307 -1.526024 0.627482 0
M  V30 16 C -1.698219 -1.537225 1.767434 0
M  V30 17 C -1.388403 -3.029835 2.078715 0
M  V30 18 C -0.654894 -3.559143 0.819889 0
M  V30 19 H 1.528190 -1.262346 -1.463177 0
M  V30 20 H 3.891611 -0.412620 0.089167 0
M  V30 21 H 4.979767 1.601454 0.999647 0
M  V30 22 H 0.156879 1.777666 0.064770 0
M  V30 23 H -2.528922 -3.211596 -0.784783 0
M  V30 24 H -2.159920 -1.649194 -1.501962 0
M  V30 25 H -3.682092 -1.975078 0.915781 0
M  V30 26 H -2.869813 -0.474595 0.338976 0
M  V30 27 H -2.091341 -1.008911 2.593594 0
M  V30 28 H -0.766456 -3.099915 2.960591 0
M  V30 29 H -2.348036 -3.526165 2.240233 0
M  V30 30 H 0.328533 -3.932527 1.015300 0
M  V30 31 H -1.273145 -4.364199 0.420234 0
M  V30 END ATOM
M  V30 BEGIN BOND
M  V30 1 2 1 2
M  V30 2 1 2 3
M  V30 3 2 3 4
M  V30 4 1 4 5
M  V30 5 2 5 6
M  V30 6 1 6 7
M  V30 7 2 7 8
M  V30 8 1 8 9
M  V30 9 1 8 10
M  V30 10 1 10 11
M  V30 11 2 10 12
M  V30 12 1 3 13
M  V30 13 1 13 14
M  V30 14 1 14 15
M  V30 15 1 15 16
M  V30 16 1 16 17
M  V30 17 1 17 18
M  V30 18 1 16 2
M  V30 19 1 12 5
M  V30 20 1 18 13
M  V30 21 1 4 19
M  V30 22 1 6 20
M  V30 23 1 7 21
M  V30 24 1 12 22
M  V30 25 1 14 23
M  V30 26 1 14 24
M  V30 27 1 15 25
M  V30 28 1 15 26
M  V30 29 1 16 27
M  V30 30 1 17 28
M  V30 31 1 17 29
M  V30 32 1 18 30
M  V30 33 1 18 31
M  V30 END BOND
M  V30 END CTAB
M  END
>  <Dataset>  (648) 
ChEMBL_Kinases

>  <Ligand_Instance>  (648) 
nan

>  <PDB_ID>  (648) 
nan

>  <Standardized_SMILES>  (648) 
O=C1/C(=C\c2ccc(Cl)c(Cl)c2)N2CCC1CC2

>  <Name>  (648) 
nan

>  <Pocket>  (648) 
nan

>  <ATP_Site>  (648) 
nan

>  <Peripheral>  (648) 
nan

>  <Num_H_Atoms_ProtBoundConf>  (648) 
nan

>  <Num_Resolved_Atoms>  (648) 
nan

>  <Num_Not_Resolved_Atoms>  (648) 
nan

$$$$
CHEMBL1539308
     RDKit          3D

  0  0  0  0  0  0  0  0  0  0999 V3000
M  V30 BEGIN CTAB
M  V30 COUNTS 42 44 0 0 0
M  V30 BEGIN ATOM
M  V30 1 C -2.553857 -2.628258 2.627341 0
M  V30 2 C -1.643596 -3.758677 2.989061 0
M  V30 3 C -0.174610 -3.363917 2.886421 0
M  V30 4 N 0.187272 -2.952749 1.561367 0
M  V30 5 N 0.050326 -1.669406 1.302303 0
M  V30 6 C 0.350660 -1.135116 0.105501 0
M  V30 7 C 0.192011 0.281989 -0.166961 0
M  V30 8 O 0.382023 1.076950 -1.104823 0
M  V30 9 N -0.328569 1.060839 0.900542 0
M  V30 10 C -0.585421 2.487375 0.906136 0
M  V30 11 C 0.645642 3.292047 1.077850 0
M  V30 12 C 1.518112 3.847477 0.168865 0
M  V30 13 C 2.611001 4.559558 0.615445 0
M  V30 14 C 2.874179 4.743927 1.956733 0
M  V30 15 C 1.968339 4.166700 2.833499 0
M  V30 16 N 0.901260 3.471484 2.407435 0
M  V30 17 C 0.811628 -2.040915 -0.821944 0
M  V30 18 C 1.154409 -1.632926 -2.084150 0
M  V30 19 C 1.618281 -2.505302 -3.040401 0
M  V30 20 C 1.766668 -3.838538 -2.789984 0
M  V30 21 C 1.428657 -4.268880 -1.530737 0
M  V30 22 C 0.964041 -3.387325 -0.576928 0
M  V30 23 C 0.635784 -3.848449 0.666465 0
M  V30 24 O 0.721437 -5.030277 1.027662 0
M  V30 25 H -3.426793 -2.627921 3.309082 0
M  V30 26 H -2.055310 -1.639817 2.780347 0
M  V30 27 H -2.986404 -2.708481 1.600807 0
M  V30 28 H -1.861294 -4.634345 2.347585 0
M  V30 29 H -1.847050 -4.057088 4.042484 0
M  V30 30 H 0.407858 -4.272798 3.183887 0
M  V30 31 H 0.064461 -2.596092 3.636060 0
M  V30 32 H -0.579359 0.621201 1.825733 0
M  V30 33 H -1.388651 2.780865 1.588431 0
M  V30 34 H -0.977702 2.778885 -0.119634 0
M  V30 35 H 1.223531 3.650563 -0.842017 0
M  V30 36 H 3.237844 4.957508 -0.164093 0
M  V30 37 H 3.741767 5.309322 2.276302 0
M  V30 38 H 2.198828 4.327196 3.887236 0
M  V30 39 H 1.077602 -0.620841 -2.384431 0
M  V30 40 H 1.889784 -2.171017 -4.045870 0
M  V30 41 H 2.131154 -4.522784 -3.541441 0
M  V30 42 H 1.518947 -5.294516 -1.265456 0
M  V30 END ATOM
M  V30 BEGIN BOND
M  V30 1 1 1 2
M  V30 2 1 2 3
M  V30 3 1 3 4
M  V30 4 1 4 5
M  V30 5 2 5 6
M  V30 6 1 6 7
M  V30 7 2 7 8
M  V30 8 1 7 9
M  V30 9 1 9 10
M  V30 10 1 10 11
M  V30 11 2 11 12
M  V30 12 1 12 13
M  V30 13 2 13 14
M  V30 14 1 14 15
M  V30 15 2 15 16
M  V30 16 1 6 17
M  V30 17 2 17 18
M  V30 18 1 18 19
M  V30 19 2 19 20
M  V30 20 1 20 21
M  V30 21 2 21 22
M  V30 22 1 22 23
M  V30 23 2 23 24
M  V30 24 1 23 4
M  V30 25 1 16 11
M  V30 26 1 22 17
M  V30 27 1 1 25
M  V30 28 1 1 26
M  V30 29 1 1 27
M  V30 30 1 2 28
M  V30 31 1 2 29
M  V30 32 1 3 30
M  V30 33 1 3 31
M  V30 34 1 9 32
M  V30 35 1 10 33
M  V30 36 1 10 34
M  V30 37 1 12 35
M  V30 38 1 13 36
M  V30 39 1 14 37
M  V30 40 1 15 38
M  V30 41 1 18 39
M  V30 42 1 19 40
M  V30 43 1 20 41
M  V30 44 1 21 42
M  V30 END BOND
M  V30 END CTAB
M  END
>  <Dataset>  (649) 
ChEMBL_Kinases

>  <Ligand_Instance>  (649) 
nan

>  <PDB_ID>  (649) 
nan

>  <Standardized_SMILES>  (649) 
CCCn1nc(C(=O)NCc2ccccn2)c2ccccc2c1=O

>  <Name>  (649) 
nan

>  <Pocket>  (649) 
nan

>  <ATP_Site>  (649) 
nan

>  <Peripheral>  (649) 
nan

>  <Num_H_Atoms_ProtBoundConf>  (649) 
nan

>  <Num_Resolved_Atoms>  (649) 
nan

>  <Num_Not_Resolved_Atoms>  (649) 
nan

$$$$
CHEMBL1539363
     RDKit          3D

  0  0  0  0  0  0  0  0  0  0999 V3000
M  V30 BEGIN CTAB
M  V30 COUNTS 43 45 0 0 0
M  V30 BEGIN ATOM
M  V30 1 C 2.467770 -2.095797 1.324392 0
M  V30 2 C 1.462020 -1.226731 0.653803 0
M  V30 3 C 0.921232 -1.817720 -0.481768 0
M  V30 4 C -0.024864 -1.096624 -1.182226 0
M  V30 5 N -0.619183 -1.643278 -2.354470 0
M  V30 6 C -1.634079 -1.007180 -3.191902 0
M  V30 7 C -1.569028 -1.642057 -4.540916 0
M  V30 8 C -0.636656 -2.823911 -4.415531 0
M  V30 9 C -0.322334 -2.937144 -2.932099 0
M  V30 10 C -0.411440 0.158683 -0.765156 0
M  V30 11 C 0.153029 0.700196 0.364315 0
M  V30 12 C 1.118548 0.026426 1.125996 0
M  V30 13 C 1.872283 0.436258 2.294910 0
M  V30 14 C 1.522939 0.798997 3.514629 0
M  V30 15 C 2.387261 1.197164 4.597596 0
M  V30 16 O 3.647435 1.302882 4.536060 0
M  V30 17 N 1.517884 1.430605 5.698658 0
M  V30 18 C 1.913975 1.852204 7.019245 0
M  V30 19 C 0.190487 1.173015 5.260421 0
M  V30 20 S -1.153934 1.316717 6.211196 0
M  V30 21 N 0.149357 0.765800 3.871139 0
M  V30 22 C -1.033125 0.401101 3.132839 0
M  V30 23 H 3.337682 -2.195723 0.647584 0
M  V30 24 H 2.745074 -1.735733 2.328748 0
M  V30 25 H 2.019769 -3.107064 1.427775 0
M  V30 26 H 1.179428 -2.781434 -0.852205 0
M  V30 27 H -2.634773 -1.141218 -2.728711 0
M  V30 28 H -1.455406 0.107018 -3.232388 0
M  V30 29 H -2.577645 -2.033594 -4.863262 0
M  V30 30 H -1.238882 -0.974787 -5.357957 0
M  V30 31 H 0.298437 -2.681645 -5.029184 0
M  V30 32 H -1.104299 -3.755286 -4.795084 0
M  V30 33 H -0.944050 -3.731597 -2.497363 0
M  V30 34 H 0.765971 -3.129043 -2.815748 0
M  V30 35 H -1.140681 0.777031 -1.259372 0
M  V30 36 H -0.068145 1.686257 0.775839 0
M  V30 37 H 2.961618 0.441853 2.101783 0
M  V30 38 H 2.903125 2.393677 6.970785 0
M  V30 39 H 2.050449 0.975046 7.707796 0
M  V30 40 H 1.198633 2.516158 7.502857 0
M  V30 41 H -0.928081 -0.579981 2.584640 0
M  V30 42 H -1.784226 0.107835 3.940911 0
M  V30 43 H -1.528608 1.193242 2.590217 0
M  V30 END ATOM
M  V30 BEGIN BOND
M  V30 1 1 1 2
M  V30 2 2 2 3
M  V30 3 1 3 4
M  V30 4 1 4 5
M  V30 5 1 5 6
M  V30 6 1 6 7
M  V30 7 1 7 8
M  V30 8 1 8 9
M  V30 9 2 4 10
M  V30 10 1 10 11
M  V30 11 2 11 12
M  V30 12 1 12 13
M  V30 13 2 13 14
M  V30 14 1 14 15
M  V30 15 2 15 16
M  V30 16 1 15 17
M  V30 17 1 17 18
M  V30 18 1 17 19
M  V30 19 2 19 20
M  V30 20 1 19 21
M  V30 21 1 21 22
M  V30 22 1 12 2
M  V30 23 1 21 14
M  V30 24 1 9 5
M  V30 25 1 1 23
M  V30 26 1 1 24
M  V30 27 1 1 25
M  V30 28 1 3 26
M  V30 29 1 6 27
M  V30 30 1 6 28
M  V30 31 1 7 29
M  V30 32 1 7 30
M  V30 33 1 8 31
M  V30 34 1 8 32
M  V30 35 1 9 33
M  V30 36 1 9 34
M  V30 37 1 10 35
M  V30 38 1 11 36
M  V30 39 1 13 37
M  V30 40 1 18 38
M  V30 41 1 18 39
M  V30 42 1 18 40
M  V30 43 1 22 41
M  V30 44 1 22 42
M  V30 45 1 22 43
M  V30 END BOND
M  V30 END CTAB
M  END
>  <Dataset>  (650) 
ChEMBL_Kinases

>  <Ligand_Instance>  (650) 
nan

>  <PDB_ID>  (650) 
nan

>  <Standardized_SMILES>  (650) 
Cc1cc(N2CCCC2)ccc1/C=C1/C(=O)N(C)C(=S)N1C

>  <Name>  (650) 
nan

>  <Pocket>  (650) 
nan

>  <ATP_Site>  (650) 
nan

>  <Peripheral>  (650) 
nan

>  <Num_H_Atoms_ProtBoundConf>  (650) 
nan

>  <Num_Resolved_Atoms>  (650) 
nan

>  <Num_Not_Resolved_Atoms>  (650) 
nan

$$$$
CHEMBL1539370
     RDKit          3D

  0  0  0  0  0  0  0  0  0  0999 V3000
M  V30 BEGIN CTAB
M  V30 COUNTS 55 57 0 0 0
M  V30 BEGIN ATOM
M  V30 1 C 3.847548 -3.916228 2.924692 0
M  V30 2 O 4.064513 -2.834669 2.051165 0
M  V30 3 C 3.335776 -1.693575 2.165031 0
M  V30 4 O 2.667182 -2.125062 3.129287 0
M  V30 5 C 3.494649 -0.519490 1.315977 0
M  V30 6 C 4.526288 -0.594772 0.413839 0
M  V30 7 C 4.756511 0.548450 -0.329605 0
M  V30 8 C 3.998186 1.687183 -0.172614 0
M  V30 9 C 2.984529 1.653961 0.761830 0
M  V30 10 C 2.666550 0.548172 1.564955 0
M  V30 11 S 1.298876 0.636901 2.605675 0
M  V30 12 O 1.601000 0.104818 3.990714 0
M  V30 13 O 0.993611 2.119995 2.839142 0
M  V30 14 N -0.123013 -0.094663 2.064885 0
M  V30 15 C -1.155344 0.858896 1.876801 0
M  V30 16 C -1.181219 1.587639 0.581720 0
M  V30 17 C -1.349142 0.778125 -0.649151 0
M  V30 18 N -2.592853 0.035462 -0.685035 0
M  V30 19 C -3.739707 0.915337 -0.807862 0
M  V30 20 C -4.901551 0.115599 -1.360603 0
M  V30 21 O -4.696775 -0.058681 -2.718356 0
M  V30 22 C -3.346863 -0.217585 -3.004842 0
M  V30 23 C -2.593190 -0.819342 -1.832175 0
M  V30 24 C -0.546926 -1.320580 2.577566 0
M  V30 25 C -0.472471 -2.464095 1.585428 0
M  V30 26 C -1.592489 -2.767879 0.814550 0
M  V30 27 C -1.587818 -3.777100 -0.097255 0
M  V30 28 C -0.441848 -4.500014 -0.244126 0
M  V30 29 S 0.664548 -3.640496 1.024139 0
M  V30 30 H 4.555041 -4.749760 2.681385 0
M  V30 31 H 2.839017 -4.350035 2.900623 0
M  V30 32 H 4.012953 -3.623654 3.993654 0
M  V30 33 H 5.118288 -1.465651 0.282916 0
M  V30 34 H 5.545075 0.595669 -1.068568 0
M  V30 35 H 4.163707 2.589435 -0.743135 0
M  V30 36 H 2.387415 2.565234 0.878638 0
M  V30 37 H -1.161978 1.660161 2.677263 0
M  V30 38 H -2.182825 0.399179 2.004904 0
M  V30 39 H -0.316664 2.268216 0.430771 0
M  V30 40 H -2.071639 2.280079 0.630861 0
M  V30 41 H -1.316394 1.477735 -1.509738 0
M  V30 42 H -0.533235 0.043689 -0.804662 0
M  V30 43 H -4.070967 1.365560 0.135243 0
M  V30 44 H -3.509711 1.752849 -1.503446 0
M  V30 45 H -5.839053 0.724919 -1.211256 0
M  V30 46 H -5.033750 -0.828515 -0.817177 0
M  V30 47 H -2.831477 0.688241 -3.322619 0
M  V30 48 H -3.293566 -0.968350 -3.822608 0
M  V30 49 H -3.070409 -1.816064 -1.619443 0
M  V30 50 H -1.568942 -1.043401 -2.188577 0
M  V30 51 H -1.618668 -1.323168 2.935018 0
M  V30 52 H 0.004736 -1.664314 3.492759 0
M  V30 53 H -2.573074 -2.262292 0.846641 0
M  V30 54 H -2.294977 -4.193836 -0.788635 0
M  V30 55 H 0.027621 -5.309164 -0.769334 0
M  V30 END ATOM
M  V30 BEGIN BOND
M  V30 1 1 1 2
M  V30 2 1 2 3
M  V30 3 2 3 4
M  V30 4 1 3 5
M  V30 5 2 5 6
M  V30 6 1 6 7
M  V30 7 2 7 8
M  V30 8 1 8 9
M  V30 9 2 9 10
M  V30 10 1 10 11
M  V30 11 2 11 12
M  V30 12 2 11 13
M  V30 13 1 11 14
M  V30 14 1 14 15
M  V30 15 1 15 16
M  V30 16 1 16 17
M  V30 17 1 17 18
M  V30 18 1 18 19
M  V30 19 1 19 20
M  V30 20 1 20 21
M  V30 21 1 21 22
M  V30 22 1 22 23
M  V30 23 1 14 24
M  V30 24 1 24 25
M  V30 25 2 25 26
M  V30 26 1 26 27
M  V30 27 2 27 28
M  V30 28 1 28 29
M  V30 29 1 10 5
M  V30 30 1 23 18
M  V30 31 1 29 25
M  V30 32 1 1 30
M  V30 33 1 1 31
M  V30 34 1 1 32
M  V30 35 1 6 33
M  V30 36 1 7 34
M  V30 37 1 8 35
M  V30 38 1 9 36
M  V30 39 1 15 37
M  V30 40 1 15 38
M  V30 41 1 16 39
M  V30 42 1 16 40
M  V30 43 1 17 41
M  V30 44 1 17 42
M  V30 45 1 19 43
M  V30 46 1 19 44
M  V30 47 1 20 45
M  V30 48 1 20 46
M  V30 49 1 22 47
M  V30 50 1 22 48
M  V30 51 1 23 49
M  V30 52 1 23 50
M  V30 53 1 24 51
M  V30 54 1 24 52
M  V30 55 1 26 53
M  V30 56 1 27 54
M  V30 57 1 28 55
M  V30 END BOND
M  V30 END CTAB
M  END
>  <Dataset>  (651) 
ChEMBL_Kinases

>  <Ligand_Instance>  (651) 
nan

>  <PDB_ID>  (651) 
nan

>  <Standardized_SMILES>  (651) 
COC(=O)c1ccccc1S(=O)(=O)N(CCCN1CCOCC1)Cc1cccs1

>  <Name>  (651) 
nan

>  <Pocket>  (651) 
nan

>  <ATP_Site>  (651) 
nan

>  <Peripheral>  (651) 
nan

>  <Num_H_Atoms_ProtBoundConf>  (651) 
nan

>  <Num_Resolved_Atoms>  (651) 
nan

>  <Num_Not_Resolved_Atoms>  (651) 
nan

$$$$
CHEMBL1539467
     RDKit          3D

  0  0  0  0  0  0  0  0  0  0999 V3000
M  V30 BEGIN CTAB
M  V30 COUNTS 19 20 0 0 0
M  V30 BEGIN ATOM
M  V30 1 N -1.887246 -1.620915 3.408685 0
M  V30 2 C -0.827335 -1.027722 2.642884 0
M  V30 3 N -0.468699 -1.175405 1.539687 0
M  V30 4 C 0.538085 -0.561638 0.934495 0
M  V30 5 C 1.258970 0.389659 1.741278 0
M  V30 6 S 0.423654 0.299384 3.258417 0
M  V30 7 C 2.376177 1.110259 1.166468 0
M  V30 8 O 3.196443 1.560447 2.003488 0
M  V30 9 C 2.554086 1.312439 -0.320108 0
M  V30 10 C 1.407608 0.640119 -1.052487 0
M  V30 11 C 1.053040 -0.693162 -0.453525 0
M  V30 12 H -1.571791 -2.056348 4.320509 0
M  V30 13 H -2.809193 -1.518563 2.923315 0
M  V30 14 H 3.541751 1.010787 -0.660027 0
M  V30 15 H 2.432423 2.404504 -0.470393 0
M  V30 16 H 1.780051 0.427431 -2.079386 0
M  V30 17 H 0.531663 1.280591 -1.158329 0
M  V30 18 H 1.959536 -1.344608 -0.479449 0
M  V30 19 H 0.309274 -1.145631 -1.134595 0
M  V30 END ATOM
M  V30 BEGIN BOND
M  V30 1 1 1 2
M  V30 2 2 2 3
M  V30 3 1 3 4
M  V30 4 2 4 5
M  V30 5 1 5 6
M  V30 6 1 5 7
M  V30 7 2 7 8
M  V30 8 1 7 9
M  V30 9 1 9 10
M  V30 10 1 10 11
M  V30 11 1 6 2
M  V30 12 1 11 4
M  V30 13 1 1 12
M  V30 14 1 1 13
M  V30 15 1 9 14
M  V30 16 1 9 15
M  V30 17 1 10 16
M  V30 18 1 10 17
M  V30 19 1 11 18
M  V30 20 1 11 19
M  V30 END BOND
M  V30 END CTAB
M  END
>  <Dataset>  (652) 
ChEMBL_Kinases

>  <Ligand_Instance>  (652) 
nan

>  <PDB_ID>  (652) 
nan

>  <Standardized_SMILES>  (652) 
Nc1nc2c(s1)C(=O)CCC2

>  <Name>  (652) 
nan

>  <Pocket>  (652) 
nan

>  <ATP_Site>  (652) 
nan

>  <Peripheral>  (652) 
nan

>  <Num_H_Atoms_ProtBoundConf>  (652) 
nan

>  <Num_Resolved_Atoms>  (652) 
nan

>  <Num_Not_Resolved_Atoms>  (652) 
nan

$$$$
CHEMBL1539576
     RDKit          3D

  0  0  0  0  0  0  0  0  0  0999 V3000
M  V30 BEGIN CTAB
M  V30 COUNTS 49 52 0 0 0
M  V30 BEGIN ATOM
M  V30 1 C -3.372666 -4.393529 1.423837 0
M  V30 2 O -3.156934 -3.362390 0.483189 0
M  V30 3 C -1.959632 -2.646465 0.544831 0
M  V30 4 C -1.048568 -2.981915 1.520111 0
M  V30 5 C 0.118678 -2.262236 1.557278 0
M  V30 6 C 0.471681 -1.226394 0.705546 0
M  V30 7 C 1.716032 -0.475276 0.747249 0
M  V30 8 C 2.605955 -0.622793 -0.407943 0
M  V30 9 C 2.777844 -2.007417 -0.847619 0
M  V30 10 N 2.913766 -3.122021 -1.208529 0
M  V30 11 C 3.297143 0.238532 -1.145730 0
M  V30 12 N 4.134263 -0.113284 -2.267564 0
M  V30 13 O 3.166106 1.569022 -0.761026 0
M  V30 14 C 2.350973 1.858865 0.323012 0
M  V30 15 N 2.167849 3.127064 0.764895 0
M  V30 16 N 1.343419 3.042156 1.799681 0
M  V30 17 C 1.010672 1.748744 2.009708 0
M  V30 18 C 0.118710 1.324242 3.077125 0
M  V30 19 C 0.390463 1.910741 4.308988 0
M  V30 20 C -0.378251 1.601833 5.398165 0
M  V30 21 C -1.436162 0.718316 5.344092 0
M  V30 22 C -1.664541 0.162427 4.095379 0
M  V30 23 N -0.915182 0.465886 3.041561 0
M  V30 24 C 1.638194 0.946805 1.079350 0
M  V30 25 C -0.483374 -0.939474 -0.248494 0
M  V30 26 O -0.355281 0.052882 -1.207518 0
M  V30 27 C 0.187367 -0.079863 -2.478974 0
M  V30 28 C -1.696015 -1.625716 -0.351917 0
M  V30 29 O -2.661576 -1.366502 -1.284038 0
M  V30 30 C -2.758759 -1.952711 -2.544576 0
M  V30 31 H -2.564258 -5.148651 1.453460 0
M  V30 32 H -3.452462 -4.004576 2.475382 0
M  V30 33 H -4.335399 -4.909935 1.162458 0
M  V30 34 H -1.210918 -3.776611 2.247539 0
M  V30 35 H 0.856540 -2.519494 2.332002 0
M  V30 36 H 2.289559 -0.940236 1.614505 0
M  V30 37 H 3.870453 -0.138050 -3.277947 0
M  V30 38 H 5.141966 -0.402475 -2.267631 0
M  V30 39 H 2.535605 4.048624 0.448911 0
M  V30 40 H 1.209167 2.628442 4.465725 0
M  V30 41 H -0.167046 2.057143 6.353605 0
M  V30 42 H -2.065877 0.442836 6.160330 0
M  V30 43 H -2.464241 -0.556809 3.880938 0
M  V30 44 H 0.882699 0.793731 -2.644130 0
M  V30 45 H -0.628454 -0.030474 -3.253835 0
M  V30 46 H 0.686804 -1.057675 -2.607600 0
M  V30 47 H -3.741802 -2.495183 -2.624929 0
M  V30 48 H -2.860668 -1.119474 -3.291310 0
M  V30 49 H -1.910941 -2.568112 -2.851940 0
M  V30 END ATOM
M  V30 BEGIN BOND
M  V30 1 1 1 2
M  V30 2 1 2 3
M  V30 3 2 3 4
M  V30 4 1 4 5
M  V30 5 2 5 6
M  V30 6 1 6 7
M  V30 7 1 7 8
M  V30 8 1 8 9
M  V30 9 3 9 10
M  V30 10 2 8 11
M  V30 11 1 11 12
M  V30 12 1 11 13
M  V30 13 1 13 14
M  V30 14 1 14 15
M  V30 15 1 15 16
M  V30 16 2 16 17
M  V30 17 1 17 18
M  V30 18 2 18 19
M  V30 19 1 19 20
M  V30 20 2 20 21
M  V30 21 1 21 22
M  V30 22 2 22 23
M  V30 23 1 17 24
M  V30 24 1 6 25
M  V30 25 1 25 26
M  V30 26 1 26 27
M  V30 27 2 25 28
M  V30 28 1 28 29
M  V30 29 1 29 30
M  V30 30 1 28 3
M  V30 31 1 24 7
M  V30 32 2 24 14
M  V30 33 1 23 18
M  V30 34 1 1 31
M  V30 35 1 1 32
M  V30 36 1 1 33
M  V30 37 1 4 34
M  V30 38 1 5 35
M  V30 39 1 7 36
M  V30 40 1 12 37
M  V30 41 1 12 38
M  V30 42 1 15 39
M  V30 43 1 19 40
M  V30 44 1 20 41
M  V30 45 1 21 42
M  V30 46 1 22 43
M  V30 47 1 27 44
M  V30 48 1 27 45
M  V30 49 1 27 46
M  V30 50 1 30 47
M  V30 51 1 30 48
M  V30 52 1 30 49
M  V30 END BOND
M  V30 END CTAB
M  END
>  <Dataset>  (653) 
ChEMBL_Kinases

>  <Ligand_Instance>  (653) 
nan

>  <PDB_ID>  (653) 
nan

>  <Standardized_SMILES>  (653) 
COc1ccc(C2C(C#N)=C(N)Oc3[nH]nc(-c4ccccn4)c32)c(OC)c1OC

>  <Name>  (653) 
nan

>  <Pocket>  (653) 
nan

>  <ATP_Site>  (653) 
nan

>  <Peripheral>  (653) 
nan

>  <Num_H_Atoms_ProtBoundConf>  (653) 
nan

>  <Num_Resolved_Atoms>  (653) 
nan

>  <Num_Not_Resolved_Atoms>  (653) 
nan

$$$$
CHEMBL1539600
     RDKit          3D

  0  0  0  0  0  0  0  0  0  0999 V3000
M  V30 BEGIN CTAB
M  V30 COUNTS 49 53 0 0 0
M  V30 BEGIN ATOM
M  V30 1 C -0.488230 2.618230 1.875325 0
M  V30 2 C -0.705143 1.285511 1.302528 0
M  V30 3 C -1.784367 1.134428 0.422844 0
M  V30 4 C -2.071262 -0.080463 -0.163416 0
M  V30 5 C -1.273463 -1.166509 0.127789 0
M  V30 6 C -0.236112 -0.918594 1.004073 0
M  V30 7 O 0.501730 -1.899484 1.281011 0
M  V30 8 N 0.099545 0.237343 1.610060 0
M  V30 9 C 1.218978 0.331428 2.502031 0
M  V30 10 C 2.498733 0.678389 1.877879 0
M  V30 11 C 3.357474 -0.269885 1.395748 0
M  V30 12 C 4.582926 0.001063 0.796044 0
M  V30 13 C 5.001031 1.323473 0.658222 0
M  V30 14 C 4.169530 2.314023 1.128992 0
M  V30 15 C 2.966170 1.980091 1.714348 0
M  V30 16 O 4.788833 3.537026 0.884683 0
M  V30 17 C 6.097114 3.279734 0.417623 0
M  V30 18 O 6.131676 1.885124 0.121771 0
M  V30 19 C -1.555309 -2.479495 -0.483142 0
M  V30 20 C -1.746847 -3.569559 0.510525 0
M  V30 21 C -3.041086 -3.517139 1.026974 0
M  V30 22 C -3.455204 -4.449728 1.980660 0
M  V30 23 C -2.541221 -5.403149 2.376628 0
M  V30 24 N -1.299637 -5.430838 1.862257 0
M  V30 25 C -0.889455 -4.538352 0.943696 0
M  V30 26 C -2.740118 -2.342594 -1.359199 0
M  V30 27 C -3.128580 -3.563556 -2.026834 0
M  V30 28 N -3.442919 -4.544315 -2.586476 0
M  V30 29 C -3.504979 -1.300716 -1.638210 0
M  V30 30 N -4.645472 -1.267580 -2.510639 0
M  V30 31 O -3.162662 -0.110961 -1.016435 0
M  V30 32 H 0.103904 3.196970 1.136872 0
M  V30 33 H -0.100301 2.621104 2.890265 0
M  V30 34 H -1.479804 3.150723 1.935609 0
M  V30 35 H -2.408828 2.011023 0.202595 0
M  V30 36 H 0.939397 0.964498 3.373915 0
M  V30 37 H 1.380698 -0.690151 2.967804 0
M  V30 38 H 3.162092 -1.311740 1.439528 0
M  V30 39 H 5.257649 -0.747497 0.416899 0
M  V30 40 H 2.369957 2.809966 2.061932 0
M  V30 41 H 6.855915 3.443418 1.216081 0
M  V30 42 H 6.269566 3.890273 -0.475186 0
M  V30 43 H -0.651379 -2.768824 -1.088762 0
M  V30 44 H -3.830673 -2.805762 0.779751 0
M  V30 45 H -4.432301 -4.476840 2.425946 0
M  V30 46 H -2.830980 -6.139543 3.113218 0
M  V30 47 H 0.075872 -4.471444 0.466463 0
M  V30 48 H -4.141213 -1.366204 -3.439631 0
M  V30 49 H -5.648345 -1.170367 -2.215061 0
M  V30 END ATOM
M  V30 BEGIN BOND
M  V30 1 1 1 2
M  V30 2 2 2 3
M  V30 3 1 3 4
M  V30 4 2 4 5
M  V30 5 1 5 6
M  V30 6 2 6 7
M  V30 7 1 6 8
M  V30 8 1 8 9
M  V30 9 1 9 10
M  V30 10 2 10 11
M  V30 11 1 11 12
M  V30 12 2 12 13
M  V30 13 1 13 14
M  V30 14 2 14 15
M  V30 15 1 14 16
M  V30 16 1 16 17
M  V30 17 1 17 18
M  V30 18 1 5 19
M  V30 19 1 19 20
M  V30 20 2 20 21
M  V30 21 1 21 22
M  V30 22 2 22 23
M  V30 23 1 23 24
M  V30 24 2 24 25
M  V30 25 1 19 26
M  V30 26 1 26 27
M  V30 27 3 27 28
M  V30 28 2 26 29
M  V30 29 1 29 30
M  V30 30 1 29 31
M  V30 31 1 8 2
M  V30 32 1 15 10
M  V30 33 1 25 20
M  V30 34 1 31 4
M  V30 35 1 18 13
M  V30 36 1 1 32
M  V30 37 1 1 33
M  V30 38 1 1 34
M  V30 39 1 3 35
M  V30 40 1 9 36
M  V30 41 1 9 37
M  V30 42 1 11 38
M  V30 43 1 12 39
M  V30 44 1 15 40
M  V30 45 1 17 41
M  V30 46 1 17 42
M  V30 47 1 19 43
M  V30 48 1 21 44
M  V30 49 1 22 45
M  V30 50 1 23 46
M  V30 51 1 25 47
M  V30 52 1 30 48
M  V30 53 1 30 49
M  V30 END BOND
M  V30 END CTAB
M  END
>  <Dataset>  (654) 
ChEMBL_Kinases

>  <Ligand_Instance>  (654) 
nan

>  <PDB_ID>  (654) 
nan

>  <Standardized_SMILES>  (654) 
Cc1cc2c(c(=O)n1Cc1ccc3c(c1)OCO3)C(c1cccnc1)C(C#N)=C(N)O2

>  <Name>  (654) 
nan

>  <Pocket>  (654) 
nan

>  <ATP_Site>  (654) 
nan

>  <Peripheral>  (654) 
nan

>  <Num_H_Atoms_ProtBoundConf>  (654) 
nan

>  <Num_Resolved_Atoms>  (654) 
nan

>  <Num_Not_Resolved_Atoms>  (654) 
nan

$$$$
CHEMBL1538954
     RDKit          3D

  0  0  0  0  0  0  0  0  0  0999 V3000
M  V30 BEGIN CTAB
M  V30 COUNTS 21 22 0 0 0
M  V30 BEGIN ATOM
M  V30 1 C -0.072131 -1.496969 4.998998 0
M  V30 2 C 0.056174 -0.797491 3.712461 0
M  V30 3 O -0.913304 -0.050811 3.375064 0
M  V30 4 N 1.217914 -0.971041 2.914126 0
M  V30 5 C 1.182501 -0.194034 1.651585 0
M  V30 6 N 0.768693 -0.535555 0.633161 0
M  V30 7 C 0.700930 0.088788 -0.525284 0
M  V30 8 C 0.194972 -0.354777 -1.732559 0
M  V30 9 C 0.220154 0.466518 -2.837533 0
M  V30 10 C 0.729988 1.749042 -2.839027 0
M  V30 11 Br 0.804197 2.947920 -4.314706 0
M  V30 12 C 1.241679 2.219480 -1.649911 0
M  V30 13 C 1.201353 1.363536 -0.549924 0
M  V30 14 S 1.762742 1.582286 1.188233 0
M  V30 15 H -0.175078 -0.813589 5.865743 0
M  V30 16 H -0.957515 -2.172213 5.033009 0
M  V30 17 H 0.816604 -2.136584 5.204630 0
M  V30 18 H 2.007466 -1.564315 3.164168 0
M  V30 19 H -0.246103 -1.346603 -1.902945 0
M  V30 20 H -0.173126 0.136533 -3.797542 0
M  V30 21 H 1.679730 3.165042 -1.423192 0
M  V30 END ATOM
M  V30 BEGIN BOND
M  V30 1 1 1 2
M  V30 2 2 2 3
M  V30 3 1 2 4
M  V30 4 1 4 5
M  V30 5 2 5 6
M  V30 6 1 6 7
M  V30 7 2 7 8
M  V30 8 1 8 9
M  V30 9 2 9 10
M  V30 10 1 10 11
M  V30 11 1 10 12
M  V30 12 2 12 13
M  V30 13 1 13 14
M  V30 14 1 14 5
M  V30 15 1 13 7
M  V30 16 1 1 15
M  V30 17 1 1 16
M  V30 18 1 1 17
M  V30 19 1 4 18
M  V30 20 1 8 19
M  V30 21 1 9 20
M  V30 22 1 12 21
M  V30 END BOND
M  V30 END CTAB
M  END
>  <Dataset>  (655) 
ChEMBL_Kinases

>  <Ligand_Instance>  (655) 
nan

>  <PDB_ID>  (655) 
nan

>  <Standardized_SMILES>  (655) 
CC(=O)Nc1nc2ccc(Br)cc2s1

>  <Name>  (655) 
nan

>  <Pocket>  (655) 
nan

>  <ATP_Site>  (655) 
nan

>  <Peripheral>  (655) 
nan

>  <Num_H_Atoms_ProtBoundConf>  (655) 
nan

>  <Num_Resolved_Atoms>  (655) 
nan

>  <Num_Not_Resolved_Atoms>  (655) 
nan

$$$$
CHEMBL1545280
     RDKit          3D

  0  0  0  0  0  0  0  0  0  0999 V3000
M  V30 BEGIN CTAB
M  V30 COUNTS 50 52 0 0 0
M  V30 BEGIN ATOM
M  V30 1 C 0.108875 -3.951870 5.892344 0
M  V30 2 C 0.666339 -3.247682 4.707289 0
M  V30 3 C 0.176194 -3.608045 3.446212 0
M  V30 4 C 0.675547 -2.971238 2.327598 0
M  V30 5 C 1.642866 -1.992909 2.436062 0
M  V30 6 S 2.313002 -1.148772 1.031751 0
M  V30 7 O 2.424026 -2.066577 -0.131669 0
M  V30 8 O 3.711360 -0.735847 1.416296 0
M  V30 9 C 1.379461 0.278039 0.676955 0
M  V30 10 C 1.613124 1.537530 1.191546 0
M  V30 11 C 2.710700 1.880816 2.140460 0
M  V30 12 N 0.682845 2.361707 0.680819 0
M  V30 13 N -0.127373 1.685811 -0.131131 0
M  V30 14 C -1.221263 2.285845 -0.823619 0
M  V30 15 C -2.461305 2.415492 0.046274 0
M  V30 16 C -0.827003 3.729689 -1.161301 0
M  V30 17 C -1.601341 1.643138 -2.115010 0
M  V30 18 C 0.281794 0.406061 -0.148256 0
M  V30 19 O -0.227292 -0.665102 -0.829465 0
M  V30 20 C 0.219731 -1.099610 -2.058029 0
M  V30 21 O 1.171023 -0.531157 -2.689131 0
M  V30 22 C -0.408758 -2.260044 -2.683910 0
M  V30 23 C -1.445245 -3.035785 -2.204819 0
M  V30 24 C -1.759707 -4.048189 -3.091525 0
M  V30 25 C -0.858710 -3.832293 -4.116991 0
M  V30 26 O -0.117431 -2.809909 -3.838590 0
M  V30 27 C 2.085477 -1.682287 3.707284 0
M  V30 28 C 1.632752 -2.276339 4.869949 0
M  V30 29 H 0.817195 -3.842614 6.732666 0
M  V30 30 H -0.111044 -5.019308 5.712942 0
M  V30 31 H -0.860635 -3.493834 6.226772 0
M  V30 32 H -0.579427 -4.369529 3.338699 0
M  V30 33 H 0.336710 -3.206899 1.336282 0
M  V30 34 H 2.537592 1.346842 3.095751 0
M  V30 35 H 2.617674 2.958221 2.384488 0
M  V30 36 H 3.697663 1.633098 1.733330 0
M  V30 37 H -3.117987 1.507980 -0.012919 0
M  V30 38 H -3.064724 3.248437 -0.370983 0
M  V30 39 H -2.185547 2.688865 1.079564 0
M  V30 40 H -1.315793 4.072942 -2.095352 0
M  V30 41 H -1.045737 4.401170 -0.296133 0
M  V30 42 H 0.266984 3.720929 -1.333748 0
M  V30 43 H -2.059329 0.667544 -1.925561 0
M  V30 44 H -0.714170 1.543316 -2.758884 0
M  V30 45 H -2.379812 2.286387 -2.580098 0
M  V30 46 H -1.955512 -2.875057 -1.247864 0
M  V30 47 H -2.506176 -4.826811 -3.038291 0
M  V30 48 H -0.787340 -4.442530 -5.031538 0
M  V30 49 H 2.848167 -0.915828 3.836689 0
M  V30 50 H 2.023084 -1.985229 5.836061 0
M  V30 END ATOM
M  V30 BEGIN BOND
M  V30 1 1 1 2
M  V30 2 2 2 3
M  V30 3 1 3 4
M  V30 4 2 4 5
M  V30 5 1 5 6
M  V30 6 2 6 7
M  V30 7 2 6 8
M  V30 8 1 6 9
M  V30 9 1 9 10
M  V30 10 1 10 11
M  V30 11 2 10 12
M  V30 12 1 12 13
M  V30 13 1 13 14
M  V30 14 1 14 15
M  V30 15 1 14 16
M  V30 16 1 14 17
M  V30 17 1 13 18
M  V30 18 1 18 19
M  V30 19 1 19 20
M  V30 20 2 20 21
M  V30 21 1 20 22
M  V30 22 2 22 23
M  V30 23 1 23 24
M  V30 24 2 24 25
M  V30 25 1 25 26
M  V30 26 1 5 27
M  V30 27 2 27 28
M  V30 28 1 28 2
M  V30 29 2 18 9
M  V30 30 1 26 22
M  V30 31 1 1 29
M  V30 32 1 1 30
M  V30 33 1 1 31
M  V30 34 1 3 32
M  V30 35 1 4 33
M  V30 36 1 11 34
M  V30 37 1 11 35
M  V30 38 1 11 36
M  V30 39 1 15 37
M  V30 40 1 15 38
M  V30 41 1 15 39
M  V30 42 1 16 40
M  V30 43 1 16 41
M  V30 44 1 16 42
M  V30 45 1 17 43
M  V30 46 1 17 44
M  V30 47 1 17 45
M  V30 48 1 23 46
M  V30 49 1 24 47
M  V30 50 1 25 48
M  V30 51 1 27 49
M  V30 52 1 28 50
M  V30 END BOND
M  V30 END CTAB
M  END
>  <Dataset>  (656) 
ChEMBL_Kinases

>  <Ligand_Instance>  (656) 
nan

>  <PDB_ID>  (656) 
nan

>  <Standardized_SMILES>  (656) 
Cc1ccc(S(=O)(=O)c2c(C)nn(C(C)(C)C)c2OC(=O)c2ccco2)cc1

>  <Name>  (656) 
nan

>  <Pocket>  (656) 
nan

>  <ATP_Site>  (656) 
nan

>  <Peripheral>  (656) 
nan

>  <Num_H_Atoms_ProtBoundConf>  (656) 
nan

>  <Num_Resolved_Atoms>  (656) 
nan

>  <Num_Not_Resolved_Atoms>  (656) 
nan

$$$$
CHEMBL1545185
     RDKit          3D

  0  0  0  0  0  0  0  0  0  0999 V3000
M  V30 BEGIN CTAB
M  V30 COUNTS 27 28 0 0 0
M  V30 BEGIN ATOM
M  V30 1 O -1.895706 -3.390960 3.865931 0
M  V30 2 C -0.845799 -2.737937 3.953533 0
M  V30 3 O -0.640062 -2.156368 5.202675 0
M  V30 4 C 0.129203 -2.559250 2.872753 0
M  V30 5 C 1.298648 -1.707017 3.361727 0
M  V30 6 S 2.486270 -1.504790 1.980224 0
M  V30 7 C 1.650781 -0.524322 0.712481 0
M  V30 8 C 1.824535 0.859267 0.841240 0
M  V30 9 C 1.184196 1.608084 -0.121012 0
M  V30 10 C 0.415348 1.137826 -1.162376 0
M  V30 11 C -0.209715 1.924768 -2.103436 0
M  V30 12 C -0.939924 1.296512 -3.074599 0
M  V30 13 C -1.034495 -0.078548 -3.093174 0
M  V30 14 C -0.409608 -0.902376 -2.149352 0
M  V30 15 C 0.319560 -0.236183 -1.182753 0
M  V30 16 N 0.911331 -1.042913 -0.283798 0
M  V30 17 H -1.209196 -2.280862 6.005022 0
M  V30 18 H 0.485968 -3.535940 2.476580 0
M  V30 19 H -0.332351 -2.030536 2.015545 0
M  V30 20 H 1.763455 -2.115308 4.256479 0
M  V30 21 H 0.881746 -0.691284 3.516452 0
M  V30 22 H 2.404433 1.326480 1.617359 0
M  V30 23 H 1.310096 2.699151 -0.032964 0
M  V30 24 H -0.078841 2.993804 -2.008501 0
M  V30 25 H -1.422255 1.929821 -3.802952 0
M  V30 26 H -1.646122 -0.459277 -3.918304 0
M  V30 27 H -0.555834 -1.966204 -2.266546 0
M  V30 END ATOM
M  V30 BEGIN BOND
M  V30 1 2 1 2
M  V30 2 1 2 3
M  V30 3 1 2 4
M  V30 4 1 4 5
M  V30 5 1 5 6
M  V30 6 1 6 7
M  V30 7 2 7 8
M  V30 8 1 8 9
M  V30 9 2 9 10
M  V30 10 1 10 11
M  V30 11 2 11 12
M  V30 12 1 12 13
M  V30 13 2 13 14
M  V30 14 1 14 15
M  V30 15 2 15 16
M  V30 16 1 16 7
M  V30 17 1 15 10
M  V30 18 1 3 17
M  V30 19 1 4 18
M  V30 20 1 4 19
M  V30 21 1 5 20
M  V30 22 1 5 21
M  V30 23 1 8 22
M  V30 24 1 9 23
M  V30 25 1 11 24
M  V30 26 1 12 25
M  V30 27 1 13 26
M  V30 28 1 14 27
M  V30 END BOND
M  V30 END CTAB
M  END
>  <Dataset>  (657) 
ChEMBL_Kinases

>  <Ligand_Instance>  (657) 
nan

>  <PDB_ID>  (657) 
nan

>  <Standardized_SMILES>  (657) 
O=C(O)CCSc1ccc2ccccc2n1

>  <Name>  (657) 
nan

>  <Pocket>  (657) 
nan

>  <ATP_Site>  (657) 
nan

>  <Peripheral>  (657) 
nan

>  <Num_H_Atoms_ProtBoundConf>  (657) 
nan

>  <Num_Resolved_Atoms>  (657) 
nan

>  <Num_Not_Resolved_Atoms>  (657) 
nan

$$$$
CHEMBL1545114
     RDKit          3D

  0  0  0  0  0  0  0  0  0  0999 V3000
M  V30 BEGIN CTAB
M  V30 COUNTS 48 51 0 0 0
M  V30 BEGIN ATOM
M  V30 1 C -1.035577 -4.503394 4.429963 0
M  V30 2 O -1.351171 -4.322012 3.078093 0
M  V30 3 C -0.495086 -3.739978 2.153982 0
M  V30 4 C 0.769485 -3.291039 2.542528 0
M  V30 5 C 1.559061 -2.722332 1.554971 0
M  V30 6 C 1.114651 -2.603198 0.237060 0
M  V30 7 C 2.099331 -1.978475 -0.633826 0
M  V30 8 N 2.798876 -2.321446 -1.736497 0
M  V30 9 O 3.560922 -1.349971 -2.108580 0
M  V30 10 C 3.423172 -0.328931 -1.303738 0
M  V30 11 C 4.068093 0.988190 -1.313032 0
M  V30 12 S 3.145231 2.183455 -2.285418 0
M  V30 13 C 1.557148 2.578421 -1.581284 0
M  V30 14 N 0.885732 3.483105 -2.340385 0
M  V30 15 C -0.347368 3.923307 -1.982401 0
M  V30 16 O -1.068982 4.845983 -2.726775 0
M  V30 17 C -0.866150 3.399753 -0.815112 0
M  V30 18 C -0.209831 2.483152 -0.027065 0
M  V30 19 C -0.735086 1.916460 1.204662 0
M  V30 20 C 0.036434 1.007245 1.887086 0
M  V30 21 C -0.465338 0.470674 3.057453 0
M  V30 22 C -1.725230 0.842816 3.535578 0
M  V30 23 C -2.485136 1.757082 2.836524 0
M  V30 24 C -1.965311 2.289729 1.657062 0
M  V30 25 N 1.021955 2.075517 -0.430288 0
M  V30 26 N 2.519597 -0.704475 -0.384047 0
M  V30 27 C -0.143312 -3.063387 -0.091865 0
M  V30 28 C -0.931995 -3.623743 0.862320 0
M  V30 29 O -2.195232 -4.082199 0.517543 0
M  V30 30 C -2.749197 -4.018388 -0.764841 0
M  V30 31 H -1.958546 -4.608841 5.046248 0
M  V30 32 H -0.410147 -5.426004 4.492251 0
M  V30 33 H -0.456064 -3.652483 4.872888 0
M  V30 34 H 1.091772 -3.394398 3.570629 0
M  V30 35 H 2.537597 -2.389603 1.917985 0
M  V30 36 H 5.072522 0.902203 -1.787013 0
M  V30 37 H 4.209099 1.372122 -0.281962 0
M  V30 38 H -0.921040 5.822013 -2.477004 0
M  V30 39 H -1.829103 3.740755 -0.532213 0
M  V30 40 H 1.019843 0.667191 1.586505 0
M  V30 41 H 0.017796 -0.250239 3.701379 0
M  V30 42 H -2.159097 0.444828 4.451858 0
M  V30 43 H -3.472783 2.053317 3.204864 0
M  V30 44 H -2.619735 2.995984 1.170335 0
M  V30 45 H -0.408786 -2.933229 -1.129768 0
M  V30 46 H -3.529803 -4.821441 -0.863886 0
M  V30 47 H -3.239153 -3.030546 -0.928677 0
M  V30 48 H -1.990033 -4.250764 -1.549364 0
M  V30 END ATOM
M  V30 BEGIN BOND
M  V30 1 1 1 2
M  V30 2 1 2 3
M  V30 3 2 3 4
M  V30 4 1 4 5
M  V30 5 2 5 6
M  V30 6 1 6 7
M  V30 7 2 7 8
M  V30 8 1 8 9
M  V30 9 1 9 10
M  V30 10 1 10 11
M  V30 11 1 11 12
M  V30 12 1 12 13
M  V30 13 2 13 14
M  V30 14 1 14 15
M  V30 15 1 15 16
M  V30 16 2 15 17
M  V30 17 1 17 18
M  V30 18 1 18 19
M  V30 19 2 19 20
M  V30 20 1 20 21
M  V30 21 2 21 22
M  V30 22 1 22 23
M  V30 23 2 23 24
M  V30 24 2 18 25
M  V30 25 2 10 26
M  V30 26 1 6 27
M  V30 27 2 27 28
M  V30 28 1 28 29
M  V30 29 1 29 30
M  V30 30 1 28 3
M  V30 31 1 26 7
M  V30 32 1 25 13
M  V30 33 1 24 19
M  V30 34 1 1 31
M  V30 35 1 1 32
M  V30 36 1 1 33
M  V30 37 1 4 34
M  V30 38 1 5 35
M  V30 39 1 11 36
M  V30 40 1 11 37
M  V30 41 1 16 38
M  V30 42 1 17 39
M  V30 43 1 20 40
M  V30 44 1 21 41
M  V30 45 1 22 42
M  V30 46 1 23 43
M  V30 47 1 24 44
M  V30 48 1 27 45
M  V30 49 1 30 46
M  V30 50 1 30 47
M  V30 51 1 30 48
M  V30 END BOND
M  V30 END CTAB
M  END
>  <Dataset>  (658) 
ChEMBL_Kinases

>  <Ligand_Instance>  (658) 
nan

>  <PDB_ID>  (658) 
nan

>  <Standardized_SMILES>  (658) 
COc1ccc(-c2noc(CSc3nc(O)cc(-c4ccccc4)n3)n2)cc1OC

>  <Name>  (658) 
nan

>  <Pocket>  (658) 
nan

>  <ATP_Site>  (658) 
nan

>  <Peripheral>  (658) 
nan

>  <Num_H_Atoms_ProtBoundConf>  (658) 
nan

>  <Num_Resolved_Atoms>  (658) 
nan

>  <Num_Not_Resolved_Atoms>  (658) 
nan

$$$$
CHEMBL1544930
     RDKit          3D

  0  0  0  0  0  0  0  0  0  0999 V3000
M  V30 BEGIN CTAB
M  V30 COUNTS 49 51 0 0 0
M  V30 BEGIN ATOM
M  V30 1 C -0.412747 -5.637280 1.871086 0
M  V30 2 C -0.205315 -4.175045 2.106994 0
M  V30 3 N -0.848793 -3.360699 1.110167 0
M  V30 4 C -0.253857 -2.976608 -0.019874 0
M  V30 5 S 1.412226 -3.488472 -0.384382 0
M  V30 6 C 2.653497 -2.378712 0.261677 0
M  V30 7 C 2.644891 -1.017743 -0.328370 0
M  V30 8 O 3.137737 -0.790906 -1.460199 0
M  V30 9 N 2.043453 0.014550 0.475072 0
M  V30 10 C 1.955039 1.395572 0.050864 0
M  V30 11 C 2.962701 2.190137 0.885362 0
M  V30 12 C 2.715186 1.895404 2.327395 0
M  V30 13 C 1.293297 2.229395 2.677441 0
M  V30 14 C 0.518663 2.815225 1.526404 0
M  V30 15 C 0.575312 1.905284 0.314053 0
M  V30 16 N -0.834714 -2.219272 -0.957066 0
M  V30 17 C -2.106171 -1.769601 -0.831323 0
M  V30 18 C -2.738114 -2.156044 0.330745 0
M  V30 19 C -2.107846 -2.939545 1.277571 0
M  V30 20 O -2.793315 -3.220415 2.286130 0
M  V30 21 S -4.379310 -1.430683 0.238115 0
M  V30 22 C -3.896214 -0.145913 -0.978826 0
M  V30 23 C -3.174732 0.916589 -0.203842 0
M  V30 24 C -2.898513 -0.945829 -1.747726 0
M  V30 25 H -1.011320 -6.095404 2.678314 0
M  V30 26 H -0.861285 -5.818170 0.864010 0
M  V30 27 H 0.561672 -6.175253 1.861903 0
M  V30 28 H 0.875868 -3.913180 2.176592 0
M  V30 29 H -0.684809 -3.894627 3.087145 0
M  V30 30 H 2.539306 -2.346795 1.369165 0
M  V30 31 H 3.654786 -2.859180 0.076975 0
M  V30 32 H 1.640621 -0.227154 1.407937 0
M  V30 33 H 2.275694 1.475613 -1.028471 0
M  V30 34 H 2.869214 3.253348 0.653485 0
M  V30 35 H 3.991430 1.874652 0.590253 0
M  V30 36 H 3.388901 2.523126 2.986750 0
M  V30 37 H 2.919310 0.825852 2.539518 0
M  V30 38 H 0.752813 1.327277 3.028086 0
M  V30 39 H 1.243564 2.968416 3.515382 0
M  V30 40 H -0.534439 2.940103 1.804240 0
M  V30 41 H 0.945041 3.816246 1.309006 0
M  V30 42 H -0.147899 1.073493 0.536720 0
M  V30 43 H 0.176406 2.480701 -0.552063 0
M  V30 44 H -4.728578 0.186440 -1.580706 0
M  V30 45 H -2.451684 0.424700 0.470901 0
M  V30 46 H -3.900754 1.529593 0.386139 0
M  V30 47 H -2.619254 1.541281 -0.943221 0
M  V30 48 H -3.350072 -1.516657 -2.586873 0
M  V30 49 H -2.213993 -0.211260 -2.233057 0
M  V30 END ATOM
M  V30 BEGIN BOND
M  V30 1 1 1 2
M  V30 2 1 2 3
M  V30 3 1 3 4
M  V30 4 1 4 5
M  V30 5 1 5 6
M  V30 6 1 6 7
M  V30 7 2 7 8
M  V30 8 1 7 9
M  V30 9 1 9 10
M  V30 10 1 10 11
M  V30 11 1 11 12
M  V30 12 1 12 13
M  V30 13 1 13 14
M  V30 14 1 14 15
M  V30 15 2 4 16
M  V30 16 1 16 17
M  V30 17 2 17 18
M  V30 18 1 18 19
M  V30 19 2 19 20
M  V30 20 1 18 21
M  V30 21 1 21 22
M  V30 22 1 22 23
M  V30 23 1 22 24
M  V30 24 1 19 3
M  V30 25 1 15 10
M  V30 26 1 24 17
M  V30 27 1 1 25
M  V30 28 1 1 26
M  V30 29 1 1 27
M  V30 30 1 2 28
M  V30 31 1 2 29
M  V30 32 1 6 30
M  V30 33 1 6 31
M  V30 34 1 9 32
M  V30 35 1 10 33
M  V30 36 1 11 34
M  V30 37 1 11 35
M  V30 38 1 12 36
M  V30 39 1 12 37
M  V30 40 1 13 38
M  V30 41 1 13 39
M  V30 42 1 14 40
M  V30 43 1 14 41
M  V30 44 1 15 42
M  V30 45 1 15 43
M  V30 46 1 22 44
M  V30 47 1 23 45
M  V30 48 1 23 46
M  V30 49 1 23 47
M  V30 50 1 24 48
M  V30 51 1 24 49
M  V30 END BOND
M  V30 END CTAB
M  END
>  <Dataset>  (659) 
ChEMBL_Kinases

>  <Ligand_Instance>  (659) 
nan

>  <PDB_ID>  (659) 
nan

>  <Standardized_SMILES>  (659) 
CCn1c(SCC(=O)NC2CCCCC2)nc2c(c1=O)SC(C)C2

>  <Name>  (659) 
nan

>  <Pocket>  (659) 
nan

>  <ATP_Site>  (659) 
nan

>  <Peripheral>  (659) 
nan

>  <Num_H_Atoms_ProtBoundConf>  (659) 
nan

>  <Num_Resolved_Atoms>  (659) 
nan

>  <Num_Not_Resolved_Atoms>  (659) 
nan

$$$$
CHEMBL1544909
     RDKit          3D

  0  0  0  0  0  0  0  0  0  0999 V3000
M  V30 BEGIN CTAB
M  V30 COUNTS 45 48 0 0 0
M  V30 BEGIN ATOM
M  V30 1 C 2.026382 -2.243295 3.885150 0
M  V30 2 C 1.121785 -2.533931 2.738591 0
M  V30 3 C 0.784073 -3.849961 2.458435 0
M  V30 4 C -0.065864 -4.058942 1.397009 0
M  V30 5 C -0.605486 -3.065471 0.591419 0
M  V30 6 C -0.278517 -1.763964 0.850080 0
M  V30 7 C 0.577376 -1.568971 1.925516 0
M  V30 8 N -0.728957 -0.706051 0.025501 0
M  V30 9 C 0.025651 0.512583 0.057266 0
M  V30 10 O 1.084536 0.784178 0.650478 0
M  V30 11 C 0.150732 1.904519 -0.385404 0
M  V30 12 S 0.455883 3.122596 0.806008 0
M  V30 13 C 1.901881 3.387057 1.642290 0
M  V30 14 N 1.600238 4.363717 2.559463 0
M  V30 15 N 2.670559 4.666020 3.271947 0
M  V30 16 C 3.698779 3.907004 2.849575 0
M  V30 17 N 3.193624 3.158400 1.872105 0
M  V30 18 C 3.798131 2.195853 1.011224 0
M  V30 19 C -1.861021 -0.891813 -0.821732 0
M  V30 20 C -1.684469 -0.263537 -2.198076 0
M  V30 21 C -3.026869 -0.268896 -0.071611 0
M  V30 22 C -2.142035 -2.351871 -1.065906 0
M  V30 23 S -3.356141 -2.708768 -2.293274 0
M  V30 24 S -3.190984 -4.903333 -1.975519 0
M  V30 25 C -1.975036 -4.652390 -0.739243 0
M  V30 26 S -1.626509 -6.219062 -0.298466 0
M  V30 27 C -1.586871 -3.362124 -0.425435 0
M  V30 28 H 2.843562 -2.966889 4.004976 0
M  V30 29 H 1.351913 -2.379057 4.800590 0
M  V30 30 H 2.340253 -1.200868 3.894987 0
M  V30 31 H 1.183299 -4.645418 3.062130 0
M  V30 32 H -0.250343 -5.111036 1.274991 0
M  V30 33 H 0.878882 -0.592100 2.237912 0
M  V30 34 H -0.885748 2.154307 -0.797637 0
M  V30 35 H 0.747733 2.007876 -1.357313 0
M  V30 36 H 4.710599 3.916088 3.228023 0
M  V30 37 H 4.891779 2.467155 0.980125 0
M  V30 38 H 3.498198 2.264982 -0.060053 0
M  V30 39 H 3.739187 1.196359 1.440954 0
M  V30 40 H -1.953182 0.771168 -2.289953 0
M  V30 41 H -2.471315 -0.814951 -2.825242 0
M  V30 42 H -0.717398 -0.594313 -2.596055 0
M  V30 43 H -2.832756 -0.289198 1.027305 0
M  V30 44 H -3.272073 0.749109 -0.416818 0
M  V30 45 H -3.934629 -0.895768 -0.206166 0
M  V30 END ATOM
M  V30 BEGIN BOND
M  V30 1 1 1 2
M  V30 2 2 2 3
M  V30 3 1 3 4
M  V30 4 2 4 5
M  V30 5 1 5 6
M  V30 6 2 6 7
M  V30 7 1 6 8
M  V30 8 1 8 9
M  V30 9 2 9 10
M  V30 10 1 9 11
M  V30 11 1 11 12
M  V30 12 1 12 13
M  V30 13 2 13 14
M  V30 14 1 14 15
M  V30 15 2 15 16
M  V30 16 1 16 17
M  V30 17 1 17 18
M  V30 18 1 8 19
M  V30 19 1 19 20
M  V30 20 1 19 21
M  V30 21 1 19 22
M  V30 22 1 22 23
M  V30 23 1 23 24
M  V30 24 1 24 25
M  V30 25 2 25 26
M  V30 26 1 25 27
M  V30 27 1 7 2
M  V30 28 1 17 13
M  V30 29 2 27 22
M  V30 30 1 27 5
M  V30 31 1 1 28
M  V30 32 1 1 29
M  V30 33 1 1 30
M  V30 34 1 3 31
M  V30 35 1 4 32
M  V30 36 1 7 33
M  V30 37 1 11 34
M  V30 38 1 11 35
M  V30 39 1 16 36
M  V30 40 1 18 37
M  V30 41 1 18 38
M  V30 42 1 18 39
M  V30 43 1 20 40
M  V30 44 1 20 41
M  V30 45 1 20 42
M  V30 46 1 21 43
M  V30 47 1 21 44
M  V30 48 1 21 45
M  V30 END BOND
M  V30 END CTAB
M  END
>  <Dataset>  (660) 
ChEMBL_Kinases

>  <Ligand_Instance>  (660) 
nan

>  <PDB_ID>  (660) 
nan

>  <Standardized_SMILES>  (660) 
Cc1ccc2c(c1)N(C(=O)CSc1nncn1C)C(C)(C)c1ssc(=S)c1-2

>  <Name>  (660) 
nan

>  <Pocket>  (660) 
nan

>  <ATP_Site>  (660) 
nan

>  <Peripheral>  (660) 
nan

>  <Num_H_Atoms_ProtBoundConf>  (660) 
nan

>  <Num_Resolved_Atoms>  (660) 
nan

>  <Num_Not_Resolved_Atoms>  (660) 
nan

$$$$
CHEMBL1544907
     RDKit          3D

  0  0  0  0  0  0  0  0  0  0999 V3000
M  V30 BEGIN CTAB
M  V30 COUNTS 37 39 0 0 0
M  V30 BEGIN ATOM
M  V30 1 C -1.407264 -5.630644 3.780217 0
M  V30 2 C -0.907785 -6.356951 2.578829 0
M  V30 3 O 0.323313 -5.828674 2.062127 0
M  V30 4 C 0.394203 -4.510331 1.629351 0
M  V30 5 C 1.682445 -4.212262 1.168628 0
M  V30 6 C 1.982294 -2.932302 0.682544 0
M  V30 7 C 0.956349 -2.008683 0.686133 0
M  V30 8 C 1.234353 -0.663728 0.185960 0
M  V30 9 N 0.386704 0.379068 0.101648 0
M  V30 10 C 0.997062 1.462589 -0.411587 0
M  V30 11 C 0.357868 2.755942 -0.633721 0
M  V30 12 C -0.976331 2.849766 -0.282102 0
M  V30 13 C -1.638031 4.059992 -0.471740 0
M  V30 14 C -0.933778 5.110368 -1.001410 0
M  V30 15 C 0.395184 5.009960 -1.349476 0
M  V30 16 C 1.074647 3.807356 -1.167295 0
M  V30 17 C 2.511192 3.679895 -1.537665 0
M  V30 18 N 2.260076 1.051997 -0.643646 0
M  V30 19 O 2.378406 -0.206914 -0.283537 0
M  V30 20 C -0.319771 -2.284326 1.136373 0
M  V30 21 C -0.598379 -3.550526 1.612085 0
M  V30 22 H -1.426581 -6.371335 4.631583 0
M  V30 23 H -2.473313 -5.296140 3.698956 0
M  V30 24 H -0.814668 -4.763719 4.103485 0
M  V30 25 H -0.873039 -7.439141 2.685811 0
M  V30 26 H -1.640999 -6.143892 1.747541 0
M  V30 27 H 2.525537 -4.886684 1.139234 0
M  V30 28 H 2.978705 -2.676860 0.318403 0
M  V30 29 H -1.540865 2.031070 0.135180 0
M  V30 30 H -2.683325 4.139189 -0.198052 0
M  V30 31 H -1.497897 6.029866 -1.127959 0
M  V30 32 H 0.900075 5.871096 -1.763024 0
M  V30 33 H 2.874604 4.675392 -1.844701 0
M  V30 34 H 3.111362 3.363746 -0.653485 0
M  V30 35 H 2.667546 2.991348 -2.400766 0
M  V30 36 H -1.120047 -1.567508 1.140297 0
M  V30 37 H -1.542202 -3.894445 1.988753 0
M  V30 END ATOM
M  V30 BEGIN BOND
M  V30 1 1 1 2
M  V30 2 1 2 3
M  V30 3 1 3 4
M  V30 4 2 4 5
M  V30 5 1 5 6
M  V30 6 2 6 7
M  V30 7 1 7 8
M  V30 8 2 8 9
M  V30 9 1 9 10
M  V30 10 1 10 11
M  V30 11 2 11 12
M  V30 12 1 12 13
M  V30 13 2 13 14
M  V30 14 1 14 15
M  V30 15 2 15 16
M  V30 16 1 16 17
M  V30 17 2 10 18
M  V30 18 1 18 19
M  V30 19 1 7 20
M  V30 20 2 20 21
M  V30 21 1 21 4
M  V30 22 1 19 8
M  V30 23 1 16 11
M  V30 24 1 1 22
M  V30 25 1 1 23
M  V30 26 1 1 24
M  V30 27 1 2 25
M  V30 28 1 2 26
M  V30 29 1 5 27
M  V30 30 1 6 28
M  V30 31 1 12 29
M  V30 32 1 13 30
M  V30 33 1 14 31
M  V30 34 1 15 32
M  V30 35 1 17 33
M  V30 36 1 17 34
M  V30 37 1 17 35
M  V30 38 1 20 36
M  V30 39 1 21 37
M  V30 END BOND
M  V30 END CTAB
M  END
>  <Dataset>  (661) 
ChEMBL_Kinases

>  <Ligand_Instance>  (661) 
nan

>  <PDB_ID>  (661) 
nan

>  <Standardized_SMILES>  (661) 
CCOc1ccc(-c2nc(-c3ccccc3C)no2)cc1

>  <Name>  (661) 
nan

>  <Pocket>  (661) 
nan

>  <ATP_Site>  (661) 
nan

>  <Peripheral>  (661) 
nan

>  <Num_H_Atoms_ProtBoundConf>  (661) 
nan

>  <Num_Resolved_Atoms>  (661) 
nan

>  <Num_Not_Resolved_Atoms>  (661) 
nan

$$$$
CHEMBL1544757
     RDKit          3D

  0  0  0  0  0  0  0  0  0  0999 V3000
M  V30 BEGIN CTAB
M  V30 COUNTS 48 50 0 0 0
M  V30 BEGIN ATOM
M  V30 1 C -2.338095 -6.059832 1.532109 0
M  V30 2 O -2.194814 -5.821987 0.149234 0
M  V30 3 C -2.145262 -4.552458 -0.399046 0
M  V30 4 C -2.008065 -4.250829 -1.738737 0
M  V30 5 C -1.970110 -2.919479 -2.174744 0
M  V30 6 C -2.070871 -1.880972 -1.260046 0
M  V30 7 N -1.993316 -0.646447 -1.977434 0
M  V30 8 C -0.864287 -0.021231 -1.383463 0
M  V30 9 C -1.212861 1.027429 -0.532139 0
M  V30 10 C -0.192570 1.691863 0.119655 0
M  V30 11 O -0.487872 2.622314 0.875414 0
M  V30 12 N 1.106680 1.382909 -0.023776 0
M  V30 13 C 2.238881 1.960985 0.583367 0
M  V30 14 C 2.145974 3.204799 1.339256 0
M  V30 15 C 3.345638 3.236902 2.312535 0
M  V30 16 C 2.955208 2.327652 3.457505 0
M  V30 17 C 2.384316 1.060807 2.865592 0
M  V30 18 C 2.920666 0.908212 1.470119 0
M  V30 19 C 1.401280 0.355426 -0.865350 0
M  V30 20 O 2.537144 -0.143255 -1.187674 0
M  V30 21 N 0.446260 -0.325667 -1.524532 0
M  V30 22 C -2.208042 -2.174955 0.078275 0
M  V30 23 O -2.295610 -1.059410 0.872722 0
M  V30 24 C -2.438363 -1.204456 2.264527 0
M  V30 25 C -2.241892 -3.491326 0.477924 0
M  V30 26 H -2.404188 -7.155430 1.687729 0
M  V30 27 H -1.442772 -5.707077 2.107466 0
M  V30 28 H -3.259428 -5.620140 1.973338 0
M  V30 29 H -1.935356 -5.111758 -2.402088 0
M  V30 30 H -1.857429 -2.875519 -3.257728 0
M  V30 31 H -2.674072 -0.413960 -2.720725 0
M  V30 32 H -2.226570 1.361165 -0.353110 0
M  V30 33 H 2.991658 2.137468 -0.243027 0
M  V30 34 H 1.300942 3.365556 2.014566 0
M  V30 35 H 2.325730 4.078433 0.662218 0
M  V30 36 H 4.263665 2.845088 1.844900 0
M  V30 37 H 3.511187 4.265695 2.695262 0
M  V30 38 H 2.098255 2.836173 3.973911 0
M  V30 39 H 3.780924 2.084112 4.138985 0
M  V30 40 H 1.286436 1.063669 2.805192 0
M  V30 41 H 2.689858 0.143200 3.425558 0
M  V30 42 H 2.559260 -0.100042 1.124725 0
M  V30 43 H 4.003146 0.900848 1.379143 0
M  V30 44 H 0.553608 -1.123606 -2.189264 0
M  V30 45 H -3.086582 -2.055143 2.554163 0
M  V30 46 H -2.789116 -0.242919 2.717325 0
M  V30 47 H -1.418482 -1.419842 2.676855 0
M  V30 48 H -2.346663 -3.650181 1.548036 0
M  V30 END ATOM
M  V30 BEGIN BOND
M  V30 1 1 1 2
M  V30 2 1 2 3
M  V30 3 2 3 4
M  V30 4 1 4 5
M  V30 5 2 5 6
M  V30 6 1 6 7
M  V30 7 1 7 8
M  V30 8 2 8 9
M  V30 9 1 9 10
M  V30 10 2 10 11
M  V30 11 1 10 12
M  V30 12 1 12 13
M  V30 13 1 13 14
M  V30 14 1 14 15
M  V30 15 1 15 16
M  V30 16 1 16 17
M  V30 17 1 17 18
M  V30 18 1 12 19
M  V30 19 2 19 20
M  V30 20 1 19 21
M  V30 21 1 6 22
M  V30 22 1 22 23
M  V30 23 1 23 24
M  V30 24 2 22 25
M  V30 25 1 25 3
M  V30 26 1 21 8
M  V30 27 1 18 13
M  V30 28 1 1 26
M  V30 29 1 1 27
M  V30 30 1 1 28
M  V30 31 1 4 29
M  V30 32 1 5 30
M  V30 33 1 7 31
M  V30 34 1 9 32
M  V30 35 1 13 33
M  V30 36 1 14 34
M  V30 37 1 14 35
M  V30 38 1 15 36
M  V30 39 1 15 37
M  V30 40 1 16 38
M  V30 41 1 16 39
M  V30 42 1 17 40
M  V30 43 1 17 41
M  V30 44 1 18 42
M  V30 45 1 18 43
M  V30 46 1 21 44
M  V30 47 1 24 45
M  V30 48 1 24 46
M  V30 49 1 24 47
M  V30 50 1 25 48
M  V30 END BOND
M  V30 END CTAB
M  END
>  <Dataset>  (662) 
ChEMBL_Kinases

>  <Ligand_Instance>  (662) 
nan

>  <PDB_ID>  (662) 
nan

>  <Standardized_SMILES>  (662) 
COc1ccc(Nc2cc(=O)n(C3CCCCC3)c(=O)[nH]2)c(OC)c1

>  <Name>  (662) 
nan

>  <Pocket>  (662) 
nan

>  <ATP_Site>  (662) 
nan

>  <Peripheral>  (662) 
nan

>  <Num_H_Atoms_ProtBoundConf>  (662) 
nan

>  <Num_Resolved_Atoms>  (662) 
nan

>  <Num_Not_Resolved_Atoms>  (662) 
nan

$$$$
CHEMBL1544640
     RDKit          3D

  0  0  0  0  0  0  0  0  0  0999 V3000
M  V30 BEGIN CTAB
M  V30 COUNTS 62 65 0 0 0
M  V30 BEGIN ATOM
M  V30 1 C 1.763329 -3.995018 3.959560 0
M  V30 2 C 2.203768 -3.079548 5.069324 0
M  V30 3 O 3.041701 -2.046643 4.635731 0
M  V30 4 C 2.583553 -1.137103 3.701085 0
M  V30 5 C 3.505433 -0.174293 3.356338 0
M  V30 6 C 3.141431 0.788898 2.422357 0
M  V30 7 C 1.890138 0.862393 1.790687 0
M  V30 8 C 1.680306 1.972659 0.839396 0
M  V30 9 N 2.111077 1.803663 -0.483154 0
M  V30 10 C 1.819091 3.078529 -1.178948 0
M  V30 11 C 0.379284 3.159743 -1.572375 0
M  V30 12 N -0.423951 2.080459 -1.162004 0
M  V30 13 C -1.813903 2.238086 -1.146133 0
M  V30 14 C -2.490192 1.032847 -0.696193 0
M  V30 15 C -2.835577 0.667608 0.547640 0
M  V30 16 N -3.457613 -0.482962 0.785323 0
M  V30 17 C -3.749858 -1.254544 -0.041414 0
M  V30 18 C -4.390757 -2.553950 -0.257972 0
M  V30 19 C -4.571503 -3.205563 -1.460206 0
M  V30 20 C -5.205311 -4.430105 -1.434333 0
M  V30 21 C -5.639752 -4.975934 -0.242209 0
M  V30 22 C -5.459662 -4.321315 0.977358 0
M  V30 23 C -4.818480 -3.085519 0.938302 0
M  V30 24 S -3.107569 -0.390719 -1.603515 0
M  V30 25 C 0.093846 0.770137 -1.324694 0
M  V30 26 C 1.578218 0.792805 -1.315153 0
M  V30 27 C 2.247151 -0.556123 -1.233090 0
M  V30 28 C 1.674575 -1.614104 -2.113426 0
M  V30 29 O 2.345372 -2.830729 -1.981517 0
M  V30 30 C 1.015882 -0.130620 2.181697 0
M  V30 31 C 1.347563 -1.093389 3.100544 0
M  V30 32 H 0.668714 -4.175953 3.937518 0
M  V30 33 H 2.124283 -3.679121 2.956177 0
M  V30 34 H 2.209294 -5.005329 4.151507 0
M  V30 35 H 2.777077 -3.666586 5.820083 0
M  V30 36 H 1.264066 -2.681441 5.546760 0
M  V30 37 H 4.503644 -0.124238 3.773790 0
M  V30 38 H 3.898716 1.547112 2.165029 0
M  V30 39 H 0.626975 2.323998 0.954516 0
M  V30 40 H 2.259874 2.856880 1.254862 0
M  V30 41 H 2.449259 3.021476 -2.104655 0
M  V30 42 H 2.194868 3.948940 -0.604118 0
M  V30 43 H 0.250079 3.347269 -2.657040 0
M  V30 44 H -0.025464 4.086889 -1.078548 0
M  V30 45 H -2.136441 3.066416 -0.488071 0
M  V30 46 H -2.203467 2.494593 -2.175242 0
M  V30 47 H -2.616821 1.306987 1.418966 0
M  V30 48 H -4.188932 -2.679520 -2.328465 0
M  V30 49 H -5.324027 -4.901644 -2.397722 0
M  V30 50 H -6.132653 -5.950391 -0.311020 0
M  V30 51 H -5.812274 -4.776971 1.895251 0
M  V30 52 H -4.715493 -2.641628 1.913221 0
M  V30 53 H -0.371941 0.102251 -0.593562 0
M  V30 54 H -0.242388 0.445690 -2.356883 0
M  V30 55 H 1.845176 1.132018 -2.381424 0
M  V30 56 H 3.325381 -0.451852 -1.565177 0
M  V30 57 H 2.342618 -0.951037 -0.208561 0
M  V30 58 H 1.756054 -1.340447 -3.204121 0
M  V30 59 H 0.601299 -1.825107 -1.946061 0
M  V30 60 H 1.720873 -3.595391 -1.865902 0
M  V30 61 H 0.044241 -0.095556 1.716731 0
M  V30 62 H 0.648642 -1.850195 3.386862 0
M  V30 END ATOM
M  V30 BEGIN BOND
M  V30 1 1 1 2
M  V30 2 1 2 3
M  V30 3 1 3 4
M  V30 4 2 4 5
M  V30 5 1 5 6
M  V30 6 2 6 7
M  V30 7 1 7 8
M  V30 8 1 8 9
M  V30 9 1 9 10
M  V30 10 1 10 11
M  V30 11 1 11 12
M  V30 12 1 12 13
M  V30 13 1 13 14
M  V30 14 2 14 15
M  V30 15 1 15 16
M  V30 16 2 16 17
M  V30 17 1 17 18
M  V30 18 2 18 19
M  V30 19 1 19 20
M  V30 20 2 20 21
M  V30 21 1 21 22
M  V30 22 2 22 23
M  V30 23 1 17 24
M  V30 24 1 12 25
M  V30 25 1 25 26
M  V30 26 1 26 27
M  V30 27 1 27 28
M  V30 28 1 28 29
M  V30 29 1 7 30
M  V30 30 2 30 31
M  V30 31 1 31 4
M  V30 32 1 26 9
M  V30 33 1 24 14
M  V30 34 1 23 18
M  V30 35 1 1 32
M  V30 36 1 1 33
M  V30 37 1 1 34
M  V30 38 1 2 35
M  V30 39 1 2 36
M  V30 40 1 5 37
M  V30 41 1 6 38
M  V30 42 1 8 39
M  V30 43 1 8 40
M  V30 44 1 10 41
M  V30 45 1 10 42
M  V30 46 1 11 43
M  V30 47 1 11 44
M  V30 48 1 13 45
M  V30 49 1 13 46
M  V30 50 1 15 47
M  V30 51 1 19 48
M  V30 52 1 20 49
M  V30 53 1 21 50
M  V30 54 1 22 51
M  V30 55 1 23 52
M  V30 56 1 25 53
M  V30 57 1 25 54
M  V30 58 1 26 55
M  V30 59 1 27 56
M  V30 60 1 27 57
M  V30 61 1 28 58
M  V30 62 1 28 59
M  V30 63 1 29 60
M  V30 64 1 30 61
M  V30 65 1 31 62
M  V30 END BOND
M  V30 END CTAB
M  END
>  <Dataset>  (663) 
ChEMBL_Kinases

>  <Ligand_Instance>  (663) 
nan

>  <PDB_ID>  (663) 
nan

>  <Standardized_SMILES>  (663) 
CCOc1ccc(CN2CCN(Cc3cnc(-c4ccccc4)s3)CC2CCO)cc1

>  <Name>  (663) 
nan

>  <Pocket>  (663) 
nan

>  <ATP_Site>  (663) 
nan

>  <Peripheral>  (663) 
nan

>  <Num_H_Atoms_ProtBoundConf>  (663) 
nan

>  <Num_Resolved_Atoms>  (663) 
nan

>  <Num_Not_Resolved_Atoms>  (663) 
nan

$$$$
CHEMBL1544507
     RDKit          3D

  0  0  0  0  0  0  0  0  0  0999 V3000
M  V30 BEGIN CTAB
M  V30 COUNTS 46 47 0 0 0
M  V30 BEGIN ATOM
M  V30 1 C 0.051522 -4.711124 1.310531 0
M  V30 2 C 1.442111 -4.490524 0.773884 0
M  V30 3 C 1.900877 -3.063861 0.830423 0
M  V30 4 S 3.585436 -2.954893 0.153017 0
M  V30 5 C 3.716003 -1.308482 -0.559926 0
M  V30 6 C 4.998356 -0.907277 -0.832411 0
M  V30 7 C 5.242230 0.317954 -1.371974 0
M  V30 8 C 4.165917 1.147943 -1.638501 0
M  V30 9 C 2.896580 0.688245 -1.342208 0
M  V30 10 C 2.601739 -0.533172 -0.800378 0
M  V30 11 N 1.259516 -0.920868 -0.526405 0
M  V30 12 C 0.141240 -0.042460 -0.808944 0
M  V30 13 C -0.180957 0.838579 0.342223 0
M  V30 14 O 0.498842 0.761328 1.410543 0
M  V30 15 N -1.264933 1.743189 0.172575 0
M  V30 16 C -1.602516 2.608170 1.264615 0
M  V30 17 C -1.994727 1.931837 2.533348 0
M  V30 18 C -3.188576 1.048496 2.468356 0
M  V30 19 C -3.065163 -0.102825 1.507018 0
M  V30 20 C -3.494057 0.449310 3.842694 0
M  V30 21 C 0.987167 -2.199386 0.041475 0
M  V30 22 O -0.192102 -2.654485 -0.155598 0
M  V30 23 H -0.716447 -4.841100 0.518368 0
M  V30 24 H -0.286303 -3.852038 1.951036 0
M  V30 25 H -0.010462 -5.662166 1.910927 0
M  V30 26 H 1.545164 -4.818286 -0.285833 0
M  V30 27 H 2.120156 -5.126141 1.384802 0
M  V30 28 H 1.939377 -2.684574 1.891887 0
M  V30 29 H 5.865802 -1.511498 -0.645015 0
M  V30 30 H 6.242989 0.659225 -1.596637 0
M  V30 31 H 4.365722 2.122365 -2.068042 0
M  V30 32 H 2.128972 1.403221 -1.581377 0
M  V30 33 H 0.306819 0.604314 -1.689125 0
M  V30 34 H -0.739064 -0.696209 -1.008242 0
M  V30 35 H -1.797656 1.767531 -0.748171 0
M  V30 36 H -0.719603 3.247526 1.488282 0
M  V30 37 H -2.403833 3.346319 0.985745 0
M  V30 38 H -2.236425 2.733253 3.292675 0
M  V30 39 H -1.122511 1.397772 3.012503 0
M  V30 40 H -4.116968 1.612180 2.207555 0
M  V30 41 H -2.168989 -0.720734 1.726344 0
M  V30 42 H -3.923611 -0.826829 1.644551 0
M  V30 43 H -3.133599 0.213690 0.453534 0
M  V30 44 H -4.498120 -0.011711 3.772792 0
M  V30 45 H -3.522217 1.266612 4.595207 0
M  V30 46 H -2.735402 -0.314887 4.059778 0
M  V30 END ATOM
M  V30 BEGIN BOND
M  V30 1 1 1 2
M  V30 2 1 2 3
M  V30 3 1 3 4
M  V30 4 1 4 5
M  V30 5 2 5 6
M  V30 6 1 6 7
M  V30 7 2 7 8
M  V30 8 1 8 9
M  V30 9 2 9 10
M  V30 10 1 10 11
M  V30 11 1 11 12
M  V30 12 1 12 13
M  V30 13 2 13 14
M  V30 14 1 13 15
M  V30 15 1 15 16
M  V30 16 1 16 17
M  V30 17 1 17 18
M  V30 18 1 18 19
M  V30 19 1 18 20
M  V30 20 1 11 21
M  V30 21 2 21 22
M  V30 22 1 21 3
M  V30 23 1 10 5
M  V30 24 1 1 23
M  V30 25 1 1 24
M  V30 26 1 1 25
M  V30 27 1 2 26
M  V30 28 1 2 27
M  V30 29 1 3 28
M  V30 30 1 6 29
M  V30 31 1 7 30
M  V30 32 1 8 31
M  V30 33 1 9 32
M  V30 34 1 12 33
M  V30 35 1 12 34
M  V30 36 1 15 35
M  V30 37 1 16 36
M  V30 38 1 16 37
M  V30 39 1 17 38
M  V30 40 1 17 39
M  V30 41 1 18 40
M  V30 42 1 19 41
M  V30 43 1 19 42
M  V30 44 1 19 43
M  V30 45 1 20 44
M  V30 46 1 20 45
M  V30 47 1 20 46
M  V30 END BOND
M  V30 END CTAB
M  END
>  <Dataset>  (664) 
ChEMBL_Kinases

>  <Ligand_Instance>  (664) 
nan

>  <PDB_ID>  (664) 
nan

>  <Standardized_SMILES>  (664) 
CCC1Sc2ccccc2N(CC(=O)NCCC(C)C)C1=O

>  <Name>  (664) 
nan

>  <Pocket>  (664) 
nan

>  <ATP_Site>  (664) 
nan

>  <Peripheral>  (664) 
nan

>  <Num_H_Atoms_ProtBoundConf>  (664) 
nan

>  <Num_Resolved_Atoms>  (664) 
nan

>  <Num_Not_Resolved_Atoms>  (664) 
nan

$$$$
CHEMBL1544381
     RDKit          3D

  0  0  0  0  0  0  0  0  0  0999 V3000
M  V30 BEGIN CTAB
M  V30 COUNTS 35 38 0 0 0
M  V30 BEGIN ATOM
M  V30 1 O -1.218251 -4.018041 2.203233 0
M  V30 2 C -0.957582 -2.810599 1.958950 0
M  V30 3 C 0.426823 -2.257711 2.038436 0
M  V30 4 C 0.822328 -1.719271 0.684463 0
M  V30 5 C 2.221711 -1.317353 0.603295 0
M  V30 6 C 2.709281 -0.700399 1.758028 0
M  V30 7 C 4.022056 -0.269199 1.821993 0
M  V30 8 C 4.901974 -0.423066 0.768342 0
M  V30 9 C 4.416501 -1.040058 -0.388089 0
M  V30 10 F 5.221481 -1.233448 -1.482272 0
M  V30 11 C 3.109819 -1.474260 -0.464148 0
M  V30 12 C -0.160265 -0.708247 0.290796 0
M  V30 13 C 0.059289 0.370666 -0.508455 0
M  V30 14 O 1.334429 0.558522 -1.016484 0
M  V30 15 N -0.876528 1.275131 -0.844482 0
M  V30 16 C -2.156059 1.173711 -0.393890 0
M  V30 17 C -3.077788 2.131453 -0.770381 0
M  V30 18 C -4.358393 1.970461 -0.278952 0
M  V30 19 C -4.718715 0.918897 0.543716 0
M  V30 20 C -3.750558 -0.004436 0.882956 0
M  V30 21 C -2.449465 0.091775 0.429475 0
M  V30 22 C -1.455678 -0.831810 0.761236 0
M  V30 23 O -1.908138 -1.851308 1.589772 0
M  V30 24 H 0.405631 -1.459457 2.817219 0
M  V30 25 H 1.093286 -3.105628 2.297486 0
M  V30 26 H 0.709446 -2.599074 -0.015923 0
M  V30 27 H 2.192176 -0.484518 2.687762 0
M  V30 28 H 4.487193 0.217471 2.671313 0
M  V30 29 H 5.927063 -0.111652 0.755675 0
M  V30 30 H 2.666686 -1.958759 -1.324920 0
M  V30 31 H 1.956292 1.190758 -0.557581 0
M  V30 32 H -2.811409 2.951275 -1.407417 0
M  V30 33 H -5.133661 2.663876 -0.519353 0
M  V30 34 H -5.736108 0.828270 0.908789 0
M  V30 35 H -4.020702 -0.835425 1.528702 0
M  V30 END ATOM
M  V30 BEGIN BOND
M  V30 1 2 1 2
M  V30 2 1 2 3
M  V30 3 1 3 4
M  V30 4 1 4 5
M  V30 5 2 5 6
M  V30 6 1 6 7
M  V30 7 2 7 8
M  V30 8 1 8 9
M  V30 9 1 9 10
M  V30 10 2 9 11
M  V30 11 1 4 12
M  V30 12 2 12 13
M  V30 13 1 13 14
M  V30 14 1 13 15
M  V30 15 2 15 16
M  V30 16 1 16 17
M  V30 17 2 17 18
M  V30 18 1 18 19
M  V30 19 2 19 20
M  V30 20 1 20 21
M  V30 21 2 21 22
M  V30 22 1 22 23
M  V30 23 1 23 2
M  V30 24 1 11 5
M  V30 25 1 22 12
M  V30 26 1 21 16
M  V30 27 1 3 24
M  V30 28 1 3 25
M  V30 29 1 4 26
M  V30 30 1 6 27
M  V30 31 1 7 28
M  V30 32 1 8 29
M  V30 33 1 11 30
M  V30 34 1 14 31
M  V30 35 1 17 32
M  V30 36 1 18 33
M  V30 37 1 19 34
M  V30 38 1 20 35
M  V30 END BOND
M  V30 END CTAB
M  END
>  <Dataset>  (665) 
ChEMBL_Kinases

>  <Ligand_Instance>  (665) 
nan

>  <PDB_ID>  (665) 
nan

>  <Standardized_SMILES>  (665) 
O=C1CC(c2cccc(F)c2)c2c(O)nc3ccccc3c2O1

>  <Name>  (665) 
nan

>  <Pocket>  (665) 
nan

>  <ATP_Site>  (665) 
nan

>  <Peripheral>  (665) 
nan

>  <Num_H_Atoms_ProtBoundConf>  (665) 
nan

>  <Num_Resolved_Atoms>  (665) 
nan

>  <Num_Not_Resolved_Atoms>  (665) 
nan

$$$$
CHEMBL1544093
     RDKit          3D

  0  0  0  0  0  0  0  0  0  0999 V3000
M  V30 BEGIN CTAB
M  V30 COUNTS 25 25 0 0 0
M  V30 BEGIN ATOM
M  V30 1 C -2.630625 -1.286652 3.681633 0
M  V30 2 C -1.765933 -2.202414 2.846362 0
M  V30 3 O -0.910962 -1.396122 2.062410 0
M  V30 4 C 0.015545 -0.498017 2.568252 0
M  V30 5 O 0.160810 -0.337314 3.789714 0
M  V30 6 C 0.798685 0.236424 1.577893 0
M  V30 7 N 0.668847 0.088660 0.251579 0
M  V30 8 C 1.353644 0.729618 -0.684840 0
M  V30 9 S 1.026973 0.386445 -2.382046 0
M  V30 10 C 2.062351 -0.927750 -2.945614 0
M  V30 11 O 1.124574 1.622076 -3.211227 0
M  V30 12 O -0.413598 -0.084965 -2.527870 0
M  V30 13 N 2.270648 1.617040 -0.269681 0
M  V30 14 C 2.513936 1.873123 1.023587 0
M  V30 15 C 1.761911 1.167283 1.939783 0
M  V30 16 Cl 2.059141 1.482279 3.641752 0
M  V30 17 H -3.651626 -1.212724 3.213548 0
M  V30 18 H -2.168984 -0.284759 3.716020 0
M  V30 19 H -2.766581 -1.692717 4.715651 0
M  V30 20 H -1.172772 -2.870588 3.518429 0
M  V30 21 H -2.411711 -2.778167 2.163713 0
M  V30 22 H 3.008895 -0.892739 -2.372750 0
M  V30 23 H 2.305864 -0.835030 -4.033307 0
M  V30 24 H 1.578703 -1.909392 -2.771052 0
M  V30 25 H 3.267711 2.601767 1.318024 0
M  V30 END ATOM
M  V30 BEGIN BOND
M  V30 1 1 1 2
M  V30 2 1 2 3
M  V30 3 1 3 4
M  V30 4 2 4 5
M  V30 5 1 4 6
M  V30 6 2 6 7
M  V30 7 1 7 8
M  V30 8 1 8 9
M  V30 9 1 9 10
M  V30 10 2 9 11
M  V30 11 2 9 12
M  V30 12 2 8 13
M  V30 13 1 13 14
M  V30 14 2 14 15
M  V30 15 1 15 16
M  V30 16 1 15 6
M  V30 17 1 1 17
M  V30 18 1 1 18
M  V30 19 1 1 19
M  V30 20 1 2 20
M  V30 21 1 2 21
M  V30 22 1 10 22
M  V30 23 1 10 23
M  V30 24 1 10 24
M  V30 25 1 14 25
M  V30 END BOND
M  V30 END CTAB
M  END
>  <Dataset>  (666) 
ChEMBL_Kinases

>  <Ligand_Instance>  (666) 
nan

>  <PDB_ID>  (666) 
nan

>  <Standardized_SMILES>  (666) 
CCOC(=O)c1nc(S(C)(=O)=O)ncc1Cl

>  <Name>  (666) 
nan

>  <Pocket>  (666) 
nan

>  <ATP_Site>  (666) 
nan

>  <Peripheral>  (666) 
nan

>  <Num_H_Atoms_ProtBoundConf>  (666) 
nan

>  <Num_Resolved_Atoms>  (666) 
nan

>  <Num_Not_Resolved_Atoms>  (666) 
nan

$$$$
CHEMBL1544070
     RDKit          3D

  0  0  0  0  0  0  0  0  0  0999 V3000
M  V30 BEGIN CTAB
M  V30 COUNTS 50 51 0 0 0
M  V30 BEGIN ATOM
M  V30 1 C 0.126996 -4.792876 1.829734 0
M  V30 2 O -1.195222 -4.394099 1.631069 0
M  V30 3 C -1.609296 -3.246547 0.976493 0
M  V30 4 C -0.694817 -2.362237 0.441680 0
M  V30 5 C -1.231077 -1.262667 -0.182063 0
M  V30 6 C -0.304968 -0.301073 -0.761842 0
M  V30 7 O 0.913042 -0.079665 -0.918833 0
M  V30 8 O -0.622341 0.869068 -1.433796 0
M  V30 9 C 0.416357 1.701087 -1.935597 0
M  V30 10 C 1.302326 2.227202 -0.879043 0
M  V30 11 O 2.177975 2.897225 -1.458950 0
M  V30 12 N 2.185285 2.761171 0.069350 0
M  V30 13 C 3.302557 3.568166 -0.375552 0
M  V30 14 C 1.996391 2.536184 1.491834 0
M  V30 15 C 2.730770 1.328785 1.919635 0
M  V30 16 C 4.051244 1.557600 2.260093 0
M  V30 17 C 4.860711 0.513631 2.690926 0
M  V30 18 C 4.380903 -0.790782 2.796358 0
M  V30 19 C 3.055182 -1.011754 2.453189 0
M  V30 20 C 2.269605 0.036408 2.028600 0
M  V30 21 C -2.560052 -0.940575 -0.335800 0
M  V30 22 C -3.435275 -1.872122 0.225464 0
M  V30 23 O -4.801967 -1.671345 0.143059 0
M  V30 24 C -5.227620 -0.496653 -0.526725 0
M  V30 25 C -2.963856 -3.014915 0.875742 0
M  V30 26 O -3.864533 -3.919984 1.422269 0
M  V30 27 C -4.337647 -4.997428 0.604361 0
M  V30 28 H 0.187908 -5.916042 1.757744 0
M  V30 29 H 0.511024 -4.563717 2.847859 0
M  V30 30 H 0.854721 -4.405691 1.106639 0
M  V30 31 H 0.370297 -2.517885 0.505667 0
M  V30 32 H -0.042065 2.567626 -2.465394 0
M  V30 33 H 1.019391 1.130868 -2.666479 0
M  V30 34 H 3.998659 2.962098 -0.984924 0
M  V30 35 H 2.991026 4.492544 -0.923431 0
M  V30 36 H 3.853287 3.912954 0.530837 0
M  V30 37 H 2.224009 3.433112 2.082916 0
M  V30 38 H 0.907209 2.323947 1.641405 0
M  V30 39 H 4.635949 2.464831 2.260873 0
M  V30 40 H 5.909162 0.570383 2.984765 0
M  V30 41 H 4.966295 -1.631855 3.123889 0
M  V30 42 H 2.594966 -1.974773 2.500206 0
M  V30 43 H 1.244175 -0.105717 1.766643 0
M  V30 44 H -2.898038 -0.050668 -0.842949 0
M  V30 45 H -6.311300 -0.338755 -0.467204 0
M  V30 46 H -4.936390 -0.508644 -1.590873 0
M  V30 47 H -4.745858 0.403290 -0.064244 0
M  V30 48 H -5.236038 -5.464594 1.008717 0
M  V30 49 H -3.517223 -5.719694 0.391803 0
M  V30 50 H -4.600318 -4.546864 -0.386855 0
M  V30 END ATOM
M  V30 BEGIN BOND
M  V30 1 1 1 2
M  V30 2 1 2 3
M  V30 3 2 3 4
M  V30 4 1 4 5
M  V30 5 1 5 6
M  V30 6 2 6 7
M  V30 7 1 6 8
M  V30 8 1 8 9
M  V30 9 1 9 10
M  V30 10 2 10 11
M  V30 11 1 10 12
M  V30 12 1 12 13
M  V30 13 1 12 14
M  V30 14 1 14 15
M  V30 15 2 15 16
M  V30 16 1 16 17
M  V30 17 2 17 18
M  V30 18 1 18 19
M  V30 19 2 19 20
M  V30 20 2 5 21
M  V30 21 1 21 22
M  V30 22 1 22 23
M  V30 23 1 23 24
M  V30 24 2 22 25
M  V30 25 1 25 26
M  V30 26 1 26 27
M  V30 27 1 25 3
M  V30 28 1 20 15
M  V30 29 1 1 28
M  V30 30 1 1 29
M  V30 31 1 1 30
M  V30 32 1 4 31
M  V30 33 1 9 32
M  V30 34 1 9 33
M  V30 35 1 13 34
M  V30 36 1 13 35
M  V30 37 1 13 36
M  V30 38 1 14 37
M  V30 39 1 14 38
M  V30 40 1 16 39
M  V30 41 1 17 40
M  V30 42 1 18 41
M  V30 43 1 19 42
M  V30 44 1 20 43
M  V30 45 1 21 44
M  V30 46 1 24 45
M  V30 47 1 24 46
M  V30 48 1 24 47
M  V30 49 1 27 48
M  V30 50 1 27 49
M  V30 51 1 27 50
M  V30 END BOND
M  V30 END CTAB
M  END
>  <Dataset>  (667) 
ChEMBL_Kinases

>  <Ligand_Instance>  (667) 
nan

>  <PDB_ID>  (667) 
nan

>  <Standardized_SMILES>  (667) 
COc1cc(C(=O)OCC(=O)N(C)Cc2ccccc2)cc(OC)c1OC

>  <Name>  (667) 
nan

>  <Pocket>  (667) 
nan

>  <ATP_Site>  (667) 
nan

>  <Peripheral>  (667) 
nan

>  <Num_H_Atoms_ProtBoundConf>  (667) 
nan

>  <Num_Resolved_Atoms>  (667) 
nan

>  <Num_Not_Resolved_Atoms>  (667) 
nan

$$$$
CHEMBL1544045
     RDKit          3D

  0  0  0  0  0  0  0  0  0  0999 V3000
M  V30 BEGIN CTAB
M  V30 COUNTS 36 38 0 0 0
M  V30 BEGIN ATOM
M  V30 1 C -0.587087 -1.928036 1.576347 0
M  V30 2 N 0.237036 -1.047997 2.371000 0
M  V30 3 C 1.556475 -1.274246 2.304896 0
M  V30 4 S 2.780505 -2.279956 1.560522 0
M  V30 5 C 2.211397 -3.501188 0.404022 0
M  V30 6 C 1.651915 -2.958439 -0.860156 0
M  V30 7 O 1.175367 -3.766508 -1.717664 0
M  V30 8 N 1.587475 -1.597751 -1.233367 0
M  V30 9 C 1.026426 -1.138828 -2.489473 0
M  V30 10 C 1.094470 0.310984 -2.602630 0
M  V30 11 C 2.049004 1.108542 -3.111183 0
M  V30 12 C 1.927053 2.471147 -3.126866 0
M  V30 13 C 0.689599 2.958066 -2.551351 0
M  V30 14 S -0.195811 1.377734 -2.033392 0
M  V30 15 N 2.091736 -0.333531 3.137929 0
M  V30 16 N 1.138973 0.388960 3.650699 0
M  V30 17 C -0.048427 -0.035295 3.187134 0
M  V30 18 C -1.476478 0.314481 3.346058 0
M  V30 19 C -2.294653 -0.178183 4.368366 0
M  V30 20 C -3.548392 0.374621 4.177580 0
M  V30 21 C -3.433051 1.179790 3.044692 0
M  V30 22 O -2.196409 1.121621 2.578449 0
M  V30 23 H -0.529935 -1.624558 0.532365 0
M  V30 24 H -1.672962 -1.819630 1.860850 0
M  V30 25 H -0.369459 -2.993195 1.787583 0
M  V30 26 H 1.470782 -4.161159 0.887152 0
M  V30 27 H 3.076875 -4.182500 0.130931 0
M  V30 28 H 1.974352 -0.904697 -0.544722 0
M  V30 29 H -0.038737 -1.449463 -2.477422 0
M  V30 30 H 1.535142 -1.620527 -3.352390 0
M  V30 31 H 2.949650 0.651759 -3.524285 0
M  V30 32 H 2.633760 3.186122 -3.510525 0
M  V30 33 H 0.455693 4.073206 -2.498809 0
M  V30 34 H -2.047189 -0.858146 5.172814 0
M  V30 35 H -4.462179 0.229381 4.775291 0
M  V30 36 H -4.199251 1.780544 2.574537 0
M  V30 END ATOM
M  V30 BEGIN BOND
M  V30 1 1 1 2
M  V30 2 1 2 3
M  V30 3 1 3 4
M  V30 4 1 4 5
M  V30 5 1 5 6
M  V30 6 2 6 7
M  V30 7 1 6 8
M  V30 8 1 8 9
M  V30 9 1 9 10
M  V30 10 2 10 11
M  V30 11 1 11 12
M  V30 12 2 12 13
M  V30 13 1 13 14
M  V30 14 2 3 15
M  V30 15 1 15 16
M  V30 16 2 16 17
M  V30 17 1 17 18
M  V30 18 2 18 19
M  V30 19 1 19 20
M  V30 20 2 20 21
M  V30 21 1 21 22
M  V30 22 1 17 2
M  V30 23 1 22 18
M  V30 24 1 14 10
M  V30 25 1 1 23
M  V30 26 1 1 24
M  V30 27 1 1 25
M  V30 28 1 5 26
M  V30 29 1 5 27
M  V30 30 1 8 28
M  V30 31 1 9 29
M  V30 32 1 9 30
M  V30 33 1 11 31
M  V30 34 1 12 32
M  V30 35 1 13 33
M  V30 36 1 19 34
M  V30 37 1 20 35
M  V30 38 1 21 36
M  V30 END BOND
M  V30 END CTAB
M  END
>  <Dataset>  (668) 
ChEMBL_Kinases

>  <Ligand_Instance>  (668) 
nan

>  <PDB_ID>  (668) 
nan

>  <Standardized_SMILES>  (668) 
Cn1c(SCC(=O)NCc2cccs2)nnc1-c1ccco1

>  <Name>  (668) 
nan

>  <Pocket>  (668) 
nan

>  <ATP_Site>  (668) 
nan

>  <Peripheral>  (668) 
nan

>  <Num_H_Atoms_ProtBoundConf>  (668) 
nan

>  <Num_Resolved_Atoms>  (668) 
nan

>  <Num_Not_Resolved_Atoms>  (668) 
nan

$$$$
CHEMBL1544031
     RDKit          3D

  0  0  0  0  0  0  0  0  0  0999 V3000
M  V30 BEGIN CTAB
M  V30 COUNTS 46 48 0 0 0
M  V30 BEGIN ATOM
M  V30 1 O -2.540664 -2.667106 2.295346 0
M  V30 2 C -2.811868 -2.565298 0.936894 0
M  V30 3 C -1.739586 -3.202875 0.096509 0
M  V30 4 O -0.486825 -2.648719 0.263180 0
M  V30 5 C 0.461973 -3.300411 -0.553494 0
M  V30 6 C 1.753094 -2.679703 -0.346142 0
M  V30 7 C 2.366523 -1.631340 -0.974947 0
M  V30 8 C 3.619411 -1.233948 -0.578482 0
M  V30 9 C 4.208983 -1.943353 0.472363 0
M  V30 10 S 2.948820 -3.210851 0.910092 0
M  V30 11 C -3.138759 -1.165615 0.484543 0
M  V30 12 N -2.035842 -0.277013 0.763486 0
M  V30 13 C -2.310252 1.068323 0.290683 0
M  V30 14 C -1.007543 1.818469 0.170139 0
M  V30 15 N -0.177427 1.508580 1.317715 0
M  V30 16 C 1.243069 1.576904 1.339044 0
M  V30 17 C 2.094827 1.300976 2.385866 0
M  V30 18 C 3.461924 1.414561 2.256388 0
M  V30 19 C 4.035172 1.814322 1.056883 0
M  V30 20 C 3.145642 2.080301 0.035736 0
M  V30 21 N 1.809567 1.967638 0.167720 0
M  V30 22 C -1.018668 1.122111 2.435595 0
M  V30 23 C -1.606928 -0.234117 2.115662 0
M  V30 24 H -1.852941 -3.388251 2.457338 0
M  V30 25 H -3.731557 -3.209308 0.763795 0
M  V30 26 H -1.634594 -4.285937 0.309557 0
M  V30 27 H -2.001212 -3.099545 -0.979792 0
M  V30 28 H 0.164564 -3.361213 -1.604143 0
M  V30 29 H 0.525150 -4.347980 -0.136124 0
M  V30 30 H 1.828386 -1.146938 -1.776866 0
M  V30 31 H 4.165076 -0.416962 -1.026898 0
M  V30 32 H 5.167308 -1.782380 0.913728 0
M  V30 33 H -3.203457 -1.214875 -0.636780 0
M  V30 34 H -4.076330 -0.784914 0.884924 0
M  V30 35 H -2.839259 1.024276 -0.698304 0
M  V30 36 H -2.971218 1.621174 0.980043 0
M  V30 37 H -0.428428 1.513688 -0.724910 0
M  V30 38 H -1.168587 2.921461 0.088299 0
M  V30 39 H 1.618529 0.998098 3.286152 0
M  V30 40 H 4.053114 1.173352 3.145027 0
M  V30 41 H 5.097182 1.881098 1.026430 0
M  V30 42 H 3.589735 2.394446 -0.908692 0
M  V30 43 H -0.414017 1.073927 3.381371 0
M  V30 44 H -1.837487 1.858063 2.595377 0
M  V30 45 H -2.518054 -0.327551 2.778468 0
M  V30 46 H -0.918250 -1.052033 2.429123 0
M  V30 END ATOM
M  V30 BEGIN BOND
M  V30 1 1 1 2
M  V30 2 1 2 3
M  V30 3 1 3 4
M  V30 4 1 4 5
M  V30 5 1 5 6
M  V30 6 2 6 7
M  V30 7 1 7 8
M  V30 8 2 8 9
M  V30 9 1 9 10
M  V30 10 1 2 11
M  V30 11 1 11 12
M  V30 12 1 12 13
M  V30 13 1 13 14
M  V30 14 1 14 15
M  V30 15 1 15 16
M  V30 16 2 16 17
M  V30 17 1 17 18
M  V30 18 2 18 19
M  V30 19 1 19 20
M  V30 20 2 20 21
M  V30 21 1 15 22
M  V30 22 1 22 23
M  V30 23 1 10 6
M  V30 24 1 23 12
M  V30 25 1 21 16
M  V30 26 1 1 24
M  V30 27 1 2 25
M  V30 28 1 3 26
M  V30 29 1 3 27
M  V30 30 1 5 28
M  V30 31 1 5 29
M  V30 32 1 7 30
M  V30 33 1 8 31
M  V30 34 1 9 32
M  V30 35 1 11 33
M  V30 36 1 11 34
M  V30 37 1 13 35
M  V30 38 1 13 36
M  V30 39 1 14 37
M  V30 40 1 14 38
M  V30 41 1 17 39
M  V30 42 1 18 40
M  V30 43 1 19 41
M  V30 44 1 20 42
M  V30 45 1 22 43
M  V30 46 1 22 44
M  V30 47 1 23 45
M  V30 48 1 23 46
M  V30 END BOND
M  V30 END CTAB
M  END
>  <Dataset>  (669) 
ChEMBL_Kinases

>  <Ligand_Instance>  (669) 
nan

>  <PDB_ID>  (669) 
nan

>  <Standardized_SMILES>  (669) 
OC(COCc1cccs1)CN1CCN(c2ccccn2)CC1

>  <Name>  (669) 
nan

>  <Pocket>  (669) 
nan

>  <ATP_Site>  (669) 
nan

>  <Peripheral>  (669) 
nan

>  <Num_H_Atoms_ProtBoundConf>  (669) 
nan

>  <Num_Resolved_Atoms>  (669) 
nan

>  <Num_Not_Resolved_Atoms>  (669) 
nan

$$$$
CHEMBL1544011
     RDKit          3D

  0  0  0  0  0  0  0  0  0  0999 V3000
M  V30 BEGIN CTAB
M  V30 COUNTS 49 53 0 0 0
M  V30 BEGIN ATOM
M  V30 1 C 2.965680 -3.963963 5.351415 0
M  V30 2 O 3.273270 -4.247527 3.998972 0
M  V30 3 C 2.372399 -3.841934 3.023277 0
M  V30 4 C 1.217901 -3.183164 3.389557 0
M  V30 5 C 0.283010 -2.753923 2.472917 0
M  V30 6 C 0.518809 -2.998793 1.113763 0
M  V30 7 C -0.279738 -2.665069 -0.057846 0
M  V30 8 O -0.039233 -2.918240 -1.266020 0
M  V30 9 C -1.563506 -1.932178 0.091256 0 CFG=1
M  V30 10 C -1.430176 -0.550613 0.633577 0 CFG=1
M  V30 11 C -0.047554 -0.003363 0.455725 0
M  V30 12 O 1.172329 -0.411741 0.461270 0
M  V30 13 N -0.225216 1.403873 0.209068 0
M  V30 14 C 0.532361 2.547415 0.554464 0
M  V30 15 C 0.250581 3.862324 0.256709 0
M  V30 16 C 1.067483 4.894585 0.648454 0
M  V30 17 C 2.224300 4.681419 1.366253 0
M  V30 18 C 2.518449 3.366273 1.671541 0
M  V30 19 C 1.696539 2.335911 1.276600 0
M  V30 20 C -1.426884 1.546764 -0.532614 0
M  V30 21 O -1.976103 2.427009 -1.253890 0
M  V30 22 C -2.206651 0.305299 -0.387843 0 CFG=1
M  V30 23 C -2.018072 -0.540161 -1.624972 0
M  V30 24 C -2.859428 -0.270047 -2.770853 0
M  V30 25 C -3.726303 -1.114964 -3.328123 0
M  V30 26 C -3.899176 -2.452980 -2.769322 0
M  V30 27 N -3.217873 -2.822636 -1.708485 0
M  V30 28 N -2.326306 -1.888232 -1.115421 0
M  V30 29 C 1.697510 -3.669362 0.763362 0
M  V30 30 C 2.626953 -4.094760 1.690517 0
M  V30 31 H 3.938351 -4.104555 5.907775 0
M  V30 32 H 2.748950 -2.884609 5.422145 0
M  V30 33 H 2.171399 -4.620408 5.756886 0
M  V30 34 H 0.970839 -2.960944 4.414655 0
M  V30 35 H -0.641307 -2.239418 2.616862 0
M  V30 36 H -2.111934 -2.513336 0.904951 0
M  V30 37 H -1.816632 -0.387289 1.645529 0
M  V30 38 H -0.645443 4.044221 -0.299839 0
M  V30 39 H 0.748957 5.883798 0.360278 0
M  V30 40 H 2.775074 5.572823 1.611380 0
M  V30 41 H 3.442985 3.253565 2.239640 0
M  V30 42 H 2.093491 1.385672 1.609300 0
M  V30 43 H -3.249123 0.446781 -0.114604 0
M  V30 44 H -0.956480 -0.500078 -1.972312 0
M  V30 45 H -2.704968 0.736685 -3.146593 0
M  V30 46 H -4.252922 -0.722002 -4.185686 0
M  V30 47 H -4.618755 -3.021175 -3.335597 0
M  V30 48 H 1.996538 -3.919742 -0.259481 0
M  V30 49 H 3.528528 -4.604659 1.457003 0
M  V30 END ATOM
M  V30 BEGIN BOND
M  V30 1 1 1 2
M  V30 2 1 2 3
M  V30 3 2 3 4
M  V30 4 1 4 5
M  V30 5 2 5 6
M  V30 6 1 6 7
M  V30 7 2 7 8
M  V30 8 1 7 9
M  V30 9 1 9 10
M  V30 10 1 10 11
M  V30 11 2 11 12
M  V30 12 1 11 13
M  V30 13 1 13 14
M  V30 14 2 14 15
M  V30 15 1 15 16
M  V30 16 2 16 17
M  V30 17 1 17 18
M  V30 18 2 18 19
M  V30 19 1 13 20
M  V30 20 2 20 21
M  V30 21 1 20 22
M  V30 22 1 22 23
M  V30 23 1 23 24
M  V30 24 2 24 25
M  V30 25 1 25 26
M  V30 26 2 26 27
M  V30 27 1 27 28
M  V30 28 1 6 29
M  V30 29 2 29 30
M  V30 30 1 30 3
M  V30 31 1 28 9
M  V30 32 1 22 10
M  V30 33 1 28 23
M  V30 34 1 19 14
M  V30 35 1 1 31
M  V30 36 1 1 32
M  V30 37 1 1 33
M  V30 38 1 4 34
M  V30 39 1 5 35
M  V30 40 1 9 36 CFG=1
M  V30 41 1 10 37 CFG=1
M  V30 42 1 15 38
M  V30 43 1 16 39
M  V30 44 1 17 40
M  V30 45 1 18 41
M  V30 46 1 19 42
M  V30 47 1 22 43 CFG=1
M  V30 48 1 23 44
M  V30 49 1 24 45
M  V30 50 1 25 46
M  V30 51 1 26 47
M  V30 52 1 29 48
M  V30 53 1 30 49
M  V30 END BOND
M  V30 END CTAB
M  END
>  <Dataset>  (670) 
ChEMBL_Kinases

>  <Ligand_Instance>  (670) 
nan

>  <PDB_ID>  (670) 
nan

>  <Standardized_SMILES>  (670) 
COc1ccc(C(=O)[C@H]2[C@H]3C(=O)N(c4ccccc4)C(=O)[C@H]3C3C=CC=NN32)cc1

>  <Name>  (670) 
nan

>  <Pocket>  (670) 
nan

>  <ATP_Site>  (670) 
nan

>  <Peripheral>  (670) 
nan

>  <Num_H_Atoms_ProtBoundConf>  (670) 
nan

>  <Num_Resolved_Atoms>  (670) 
nan

>  <Num_Not_Resolved_Atoms>  (670) 
nan

$$$$
CHEMBL1542023
     RDKit          3D

  0  0  0  0  0  0  0  0  0  0999 V3000
M  V30 BEGIN CTAB
M  V30 COUNTS 34 36 0 0 0
M  V30 BEGIN ATOM
M  V30 1 O -1.559535 -0.993531 1.501959 0
M  V30 2 C -1.031433 -2.041003 1.050983 0
M  V30 3 C 0.218710 -2.813788 1.126832 0
M  V30 4 C 1.289374 -2.255184 1.989907 0
M  V30 5 N 1.788747 -0.967037 1.652933 0
M  V30 6 C 2.886774 -0.853267 0.718688 0
M  V30 7 O 3.514204 -1.778613 0.100665 0
M  V30 8 C 3.262136 0.541161 0.514542 0
M  V30 9 C 4.209299 1.181030 -0.245559 0
M  V30 10 C 4.299930 2.555229 -0.206691 0
M  V30 11 C 3.436800 3.305178 0.599278 0
M  V30 12 C 2.477713 2.682906 1.371134 0
M  V30 13 C 2.428656 1.306334 1.296319 0
M  V30 14 C 1.533354 0.389900 1.988427 0
M  V30 15 O 0.628029 0.690710 2.794380 0
M  V30 16 N -1.954677 -2.706836 0.166626 0
M  V30 17 C -3.262735 -2.197212 -0.112908 0
M  V30 18 N -3.766330 -1.129869 0.363286 0
M  V30 19 C -5.074859 -0.765164 -0.011707 0
M  V30 20 C -5.426356 -1.301219 -1.382929 0
M  V30 21 S -4.527047 -2.907657 -1.210314 0
M  V30 22 H -0.029948 -3.831462 1.554009 0
M  V30 23 H 0.622584 -2.986431 0.086982 0
M  V30 24 H 0.899859 -2.292772 3.056133 0
M  V30 25 H 2.110832 -3.020111 2.008413 0
M  V30 26 H 4.871515 0.619010 -0.862785 0
M  V30 27 H 5.034773 3.109380 -0.791500 0
M  V30 28 H 3.511438 4.388881 0.627196 0
M  V30 29 H 1.787467 3.226399 2.010889 0
M  V30 30 H -1.784565 -3.612957 -0.359646 0
M  V30 31 H -5.139614 0.344951 0.022099 0
M  V30 32 H -5.799769 -1.228849 0.709575 0
M  V30 33 H -6.488854 -1.508154 -1.497800 0
M  V30 34 H -4.968078 -0.693435 -2.171172 0
M  V30 END ATOM
M  V30 BEGIN BOND
M  V30 1 2 1 2
M  V30 2 1 2 3
M  V30 3 1 3 4
M  V30 4 1 4 5
M  V30 5 1 5 6
M  V30 6 2 6 7
M  V30 7 1 6 8
M  V30 8 2 8 9
M  V30 9 1 9 10
M  V30 10 2 10 11
M  V30 11 1 11 12
M  V30 12 2 12 13
M  V30 13 1 13 14
M  V30 14 2 14 15
M  V30 15 1 2 16
M  V30 16 1 16 17
M  V30 17 2 17 18
M  V30 18 1 18 19
M  V30 19 1 19 20
M  V30 20 1 20 21
M  V30 21 1 14 5
M  V30 22 1 21 17
M  V30 23 1 13 8
M  V30 24 1 3 22
M  V30 25 1 3 23
M  V30 26 1 4 24
M  V30 27 1 4 25
M  V30 28 1 9 26
M  V30 29 1 10 27
M  V30 30 1 11 28
M  V30 31 1 12 29
M  V30 32 1 16 30
M  V30 33 1 19 31
M  V30 34 1 19 32
M  V30 35 1 20 33
M  V30 36 1 20 34
M  V30 END BOND
M  V30 END CTAB
M  END
>  <Dataset>  (671) 
ChEMBL_Kinases

>  <Ligand_Instance>  (671) 
nan

>  <PDB_ID>  (671) 
nan

>  <Standardized_SMILES>  (671) 
O=C(CCN1C(=O)c2ccccc2C1=O)NC1=NCCS1

>  <Name>  (671) 
nan

>  <Pocket>  (671) 
nan

>  <ATP_Site>  (671) 
nan

>  <Peripheral>  (671) 
nan

>  <Num_H_Atoms_ProtBoundConf>  (671) 
nan

>  <Num_Resolved_Atoms>  (671) 
nan

>  <Num_Not_Resolved_Atoms>  (671) 
nan

$$$$
CHEMBL1542284
     RDKit          3D

  0  0  0  0  0  0  0  0  0  0999 V3000
M  V30 BEGIN CTAB
M  V30 COUNTS 40 42 0 0 0
M  V30 BEGIN ATOM
M  V30 1 C -0.979749 -5.540484 4.206390 0
M  V30 2 O -0.290414 -5.007535 3.087237 0
M  V30 3 C -0.411107 -3.651567 2.883182 0
M  V30 4 C 0.254530 -3.117451 1.797126 0
M  V30 5 C 0.241840 -1.783460 1.446828 0
M  V30 6 C 0.932511 -1.321124 0.345256 0
M  V30 7 C 1.686437 -2.184833 -0.479483 0
M  V30 8 N 2.287529 -2.894002 -1.150412 0
M  V30 9 C 0.861332 0.021300 0.075080 0
M  V30 10 N 1.522019 0.626206 -1.023596 0
M  V30 11 C 1.292526 0.283838 -2.418548 0
M  V30 12 C 0.495465 1.422645 -2.984286 0
M  V30 13 C 0.707904 2.737603 -2.350667 0
M  V30 14 C 1.925642 2.927720 -1.516189 0
M  V30 15 C 2.545742 1.694022 -0.972873 0
M  V30 16 N 0.145816 0.896156 0.842585 0
M  V30 17 C -0.533959 0.427654 1.930494 0
M  V30 18 N -1.281846 1.306421 2.742568 0
M  V30 19 C -0.487629 -0.916776 2.236260 0
M  V30 20 C -1.148752 -1.458667 3.318097 0
M  V30 21 N -1.911122 -0.592656 4.154107 0
M  V30 22 N -1.108808 -2.775363 3.625190 0
M  V30 23 H -0.693450 -6.596374 4.375937 0
M  V30 24 H -0.668732 -4.943299 5.097513 0
M  V30 25 H -2.076912 -5.406957 4.028429 0
M  V30 26 H 0.839483 -3.757797 1.149011 0
M  V30 27 H 2.242993 0.158782 -2.990565 0
M  V30 28 H 0.761788 -0.671502 -2.543451 0
M  V30 29 H -0.582576 1.086279 -2.974295 0
M  V30 30 H 0.729676 1.471816 -4.086910 0
M  V30 31 H 0.613671 3.526416 -3.137021 0
M  V30 32 H -0.179033 2.917285 -1.673682 0
M  V30 33 H 2.675886 3.461668 -2.136247 0
M  V30 34 H 1.705836 3.657820 -0.682492 0
M  V30 35 H 3.418489 1.418317 -1.578096 0
M  V30 36 H 2.793423 1.852990 0.098927 0
M  V30 37 H -2.259623 1.677712 2.680034 0
M  V30 38 H -1.051185 1.826743 3.636204 0
M  V30 39 H -1.969736 0.045749 4.970076 0
M  V30 40 H -2.842426 -0.673738 3.678111 0
M  V30 END ATOM
M  V30 BEGIN BOND
M  V30 1 1 1 2
M  V30 2 1 2 3
M  V30 3 2 3 4
M  V30 4 1 4 5
M  V30 5 2 5 6
M  V30 6 1 6 7
M  V30 7 3 7 8
M  V30 8 1 6 9
M  V30 9 1 9 10
M  V30 10 1 10 11
M  V30 11 1 11 12
M  V30 12 1 12 13
M  V30 13 1 13 14
M  V30 14 1 14 15
M  V30 15 2 9 16
M  V30 16 1 16 17
M  V30 17 1 17 18
M  V30 18 2 17 19
M  V30 19 1 19 20
M  V30 20 1 20 21
M  V30 21 2 20 22
M  V30 22 1 22 3
M  V30 23 1 19 5
M  V30 24 1 15 10
M  V30 25 1 1 23
M  V30 26 1 1 24
M  V30 27 1 1 25
M  V30 28 1 4 26
M  V30 29 1 11 27
M  V30 30 1 11 28
M  V30 31 1 12 29
M  V30 32 1 12 30
M  V30 33 1 13 31
M  V30 34 1 13 32
M  V30 35 1 14 33
M  V30 36 1 14 34
M  V30 37 1 15 35
M  V30 38 1 15 36
M  V30 39 1 18 37
M  V30 40 1 18 38
M  V30 41 1 21 39
M  V30 42 1 21 40
M  V30 END BOND
M  V30 END CTAB
M  END
>  <Dataset>  (672) 
ChEMBL_Kinases

>  <Ligand_Instance>  (672) 
nan

>  <PDB_ID>  (672) 
nan

>  <Standardized_SMILES>  (672) 
COc1cc2c(C#N)c(N3CCCCC3)nc(N)c2c(N)n1

>  <Name>  (672) 
nan

>  <Pocket>  (672) 
nan

>  <ATP_Site>  (672) 
nan

>  <Peripheral>  (672) 
nan

>  <Num_H_Atoms_ProtBoundConf>  (672) 
nan

>  <Num_Resolved_Atoms>  (672) 
nan

>  <Num_Not_Resolved_Atoms>  (672) 
nan

$$$$
CHEMBL154245
     RDKit          3D

  0  0  0  0  0  0  0  0  0  0999 V3000
M  V30 BEGIN CTAB
M  V30 COUNTS 54 59 0 0 0
M  V30 BEGIN ATOM
M  V30 1 C -0.982331 0.376188 4.428875 0
M  V30 2 N 0.365329 0.800922 4.294531 0
M  V30 3 C 1.005930 0.923185 5.563901 0
M  V30 4 C 0.617701 1.918897 3.459471 0
M  V30 5 C 0.390668 1.626980 1.988947 0
M  V30 6 C 1.349235 0.514834 1.567897 0
M  V30 7 N 1.196066 0.177420 0.176480 0
M  V30 8 C 1.890657 0.770336 -0.844375 0
M  V30 9 C 2.846146 1.772158 -0.814672 0
M  V30 10 C 3.450350 2.258308 -1.947389 0
M  V30 11 C 3.030693 1.669787 -3.121034 0
M  V30 12 C 2.086631 0.669993 -3.230313 0
M  V30 13 C 1.516538 0.224694 -2.052951 0
M  V30 14 C 0.557251 -0.739861 -1.771657 0
M  V30 15 C -0.153852 -1.586598 -2.599816 0
M  V30 16 C -1.057203 -2.452295 -2.027280 0
M  V30 17 C -1.263256 -2.492698 -0.683038 0
M  V30 18 C -2.101857 -3.266205 0.064053 0
M  V30 19 C -3.032319 -4.250731 -0.088193 0
M  V30 20 C -3.733745 -4.843726 0.934660 0
M  V30 21 C -3.511778 -4.443044 2.232913 0
M  V30 22 C -2.576248 -3.447548 2.424027 0
M  V30 23 C -1.873819 -2.859254 1.359458 0
M  V30 24 N -0.925867 -1.874386 1.365470 0
M  V30 25 C -0.540083 -1.636978 0.115738 0
M  V30 26 C 0.382067 -0.743895 -0.388734 0
M  V30 27 C -1.602790 -3.169270 -3.136898 0
M  V30 28 O -2.444610 -4.068443 -3.284185 0
M  V30 29 N -1.036155 -2.742678 -4.361211 0
M  V30 30 C -0.072185 -1.693726 -4.081569 0
M  V30 31 H -1.646497 0.597341 3.574302 0
M  V30 32 H -0.964183 -0.748506 4.532552 0
M  V30 33 H -1.403905 0.848231 5.352884 0
M  V30 34 H 1.169566 1.975928 5.886281 0
M  V30 35 H 0.289145 0.518190 6.342229 0
M  V30 36 H 1.949655 0.308021 5.639504 0
M  V30 37 H 1.725709 2.133406 3.539675 0
M  V30 38 H 0.102180 2.820778 3.801466 0
M  V30 39 H 0.645730 2.552063 1.431834 0
M  V30 40 H -0.635144 1.341090 1.741067 0
M  V30 41 H 1.398973 -0.322135 2.258119 0
M  V30 42 H 2.371459 1.008471 1.657029 0
M  V30 43 H 3.136134 2.191701 0.136709 0
M  V30 44 H 4.207441 3.044163 -1.979829 0
M  V30 45 H 3.479335 2.020676 -4.062119 0
M  V30 46 H 1.802753 0.252567 -4.194528 0
M  V30 47 H -3.260961 -4.615265 -1.054410 0
M  V30 48 H -4.475052 -5.634384 0.779276 0
M  V30 49 H -4.064893 -4.910735 3.034315 0
M  V30 50 H -2.425708 -3.154802 3.454194 0
M  V30 51 H -0.635593 -1.456250 2.251031 0
M  V30 52 H -1.124672 -2.972291 -5.362090 0
M  V30 53 H -0.463882 -0.745049 -4.475458 0
M  V30 54 H 0.936203 -1.969031 -4.418440 0
M  V30 END ATOM
M  V30 BEGIN BOND
M  V30 1 1 1 2
M  V30 2 1 2 3
M  V30 3 1 2 4
M  V30 4 1 4 5
M  V30 5 1 5 6
M  V30 6 1 6 7
M  V30 7 1 7 8
M  V30 8 2 8 9
M  V30 9 1 9 10
M  V30 10 2 10 11
M  V30 11 1 11 12
M  V30 12 2 12 13
M  V30 13 1 13 14
M  V30 14 2 14 15
M  V30 15 1 15 16
M  V30 16 2 16 17
M  V30 17 1 17 18
M  V30 18 2 18 19
M  V30 19 1 19 20
M  V30 20 2 20 21
M  V30 21 1 21 22
M  V30 22 2 22 23
M  V30 23 1 23 24
M  V30 24 1 24 25
M  V30 25 2 25 26
M  V30 26 1 16 27
M  V30 27 2 27 28
M  V30 28 1 27 29
M  V30 29 1 29 30
M  V30 30 1 26 7
M  V30 31 1 13 8
M  V30 32 1 26 14
M  V30 33 1 30 15
M  V30 34 1 25 17
M  V30 35 1 23 18
M  V30 36 1 1 31
M  V30 37 1 1 32
M  V30 38 1 1 33
M  V30 39 1 3 34
M  V30 40 1 3 35
M  V30 41 1 3 36
M  V30 42 1 4 37
M  V30 43 1 4 38
M  V30 44 1 5 39
M  V30 45 1 5 40
M  V30 46 1 6 41
M  V30 47 1 6 42
M  V30 48 1 9 43
M  V30 49 1 10 44
M  V30 50 1 11 45
M  V30 51 1 12 46
M  V30 52 1 19 47
M  V30 53 1 20 48
M  V30 54 1 21 49
M  V30 55 1 22 50
M  V30 56 1 24 51
M  V30 57 1 29 52
M  V30 58 1 30 53
M  V30 59 1 30 54
M  V30 END BOND
M  V30 END CTAB
M  END
>  <Dataset>  (673) 
ChEMBL_Kinases

>  <Ligand_Instance>  (673) 
nan

>  <PDB_ID>  (673) 
nan

>  <Standardized_SMILES>  (673) 
CN(C)CCCn1c2ccccc2c2c3c(c4c5ccccc5[nH]c4c21)C(=O)NC3

>  <Name>  (673) 
nan

>  <Pocket>  (673) 
nan

>  <ATP_Site>  (673) 
nan

>  <Peripheral>  (673) 
nan

>  <Num_H_Atoms_ProtBoundConf>  (673) 
nan

>  <Num_Resolved_Atoms>  (673) 
nan

>  <Num_Not_Resolved_Atoms>  (673) 
nan

$$$$
CHEMBL1542609
     RDKit          3D

  0  0  0  0  0  0  0  0  0  0999 V3000
M  V30 BEGIN CTAB
M  V30 COUNTS 51 53 0 0 0
M  V30 BEGIN ATOM
M  V30 1 C 0.764210 -2.771570 1.223360 0
M  V30 2 C 1.681567 -3.883844 1.596522 0
M  V30 3 C 3.142991 -3.546735 1.588983 0
M  V30 4 C 3.542296 -2.465316 2.523494 0
M  V30 5 N 2.963098 -1.184460 2.327948 0
M  V30 6 C 3.189406 -0.532700 1.090672 0
M  V30 7 O 3.880137 -1.043502 0.152434 0
M  V30 8 C 2.694192 0.800113 0.669864 0
M  V30 9 C 3.135108 1.148409 -0.726750 0
M  V30 10 C 2.040159 0.835421 -1.742917 0
M  V30 11 C 0.728463 1.451824 -1.377275 0
M  V30 12 N 0.747573 1.996536 -0.046715 0
M  V30 13 S -0.813465 2.571277 0.396048 0
M  V30 14 O -0.775251 3.228376 1.724838 0
M  V30 15 O -1.205908 3.604824 -0.619550 0
M  V30 16 C -2.021557 1.306721 0.412869 0
M  V30 17 C -2.182272 0.642331 1.634336 0
M  V30 18 C -3.104890 -0.382060 1.791486 0
M  V30 19 C -3.869253 -0.732863 0.698115 0
M  V30 20 N -4.846573 -1.777719 0.766420 0
M  V30 21 C -6.158382 -1.879537 1.057167 0
M  V30 22 N -6.536001 -3.162801 0.948903 0
M  V30 23 N -5.481367 -3.845030 0.598263 0
M  V30 24 N -4.455775 -3.012912 0.486102 0
M  V30 25 C -3.735154 -0.090618 -0.537371 0
M  V30 26 C -2.806927 0.922320 -0.651758 0
M  V30 27 C 1.230465 0.992997 0.889031 0
M  V30 28 H 0.705513 -1.989292 1.996616 0
M  V30 29 H -0.290418 -3.135221 1.104476 0
M  V30 30 H 1.111736 -2.347584 0.249322 0
M  V30 31 H 1.363979 -4.318543 2.574606 0
M  V30 32 H 1.558660 -4.720284 0.856963 0
M  V30 33 H 3.672227 -4.507519 1.862743 0
M  V30 34 H 3.451551 -3.366944 0.536322 0
M  V30 35 H 4.654839 -2.345403 2.448571 0
M  V30 36 H 3.354303 -2.858595 3.567843 0
M  V30 37 H 2.359445 -0.548677 2.928759 0
M  V30 38 H 3.206125 1.530674 1.362784 0
M  V30 39 H 4.031924 0.562455 -0.944279 0
M  V30 40 H 3.355442 2.226278 -0.768679 0
M  V30 41 H 2.401177 1.269779 -2.720079 0
M  V30 42 H 1.993536 -0.267222 -1.921807 0
M  V30 43 H -0.072930 0.665238 -1.371439 0
M  V30 44 H 0.478855 2.276798 -2.093602 0
M  V30 45 H -1.601026 0.889584 2.514275 0
M  V30 46 H -3.241864 -0.905281 2.727457 0
M  V30 47 H -6.678286 -0.953960 1.320296 0
M  V30 48 H -4.342544 -0.378777 -1.383912 0
M  V30 49 H -2.644307 1.468799 -1.579440 0
M  V30 50 H 0.699838 0.053878 0.669499 0
M  V30 51 H 0.973043 1.383629 1.912843 0
M  V30 END ATOM
M  V30 BEGIN BOND
M  V30 1 1 1 2
M  V30 2 1 2 3
M  V30 3 1 3 4
M  V30 4 1 4 5
M  V30 5 1 5 6
M  V30 6 2 6 7
M  V30 7 1 6 8
M  V30 8 1 8 9
M  V30 9 1 9 10
M  V30 10 1 10 11
M  V30 11 1 11 12
M  V30 12 1 12 13
M  V30 13 2 13 14
M  V30 14 2 13 15
M  V30 15 1 13 16
M  V30 16 2 16 17
M  V30 17 1 17 18
M  V30 18 2 18 19
M  V30 19 1 19 20
M  V30 20 1 20 21
M  V30 21 2 21 22
M  V30 22 1 22 23
M  V30 23 2 23 24
M  V30 24 1 19 25
M  V30 25 2 25 26
M  V30 26 1 12 27
M  V30 27 1 27 8
M  V30 28 1 26 16
M  V30 29 1 24 20
M  V30 30 1 1 28
M  V30 31 1 1 29
M  V30 32 1 1 30
M  V30 33 1 2 31
M  V30 34 1 2 32
M  V30 35 1 3 33
M  V30 36 1 3 34
M  V30 37 1 4 35
M  V30 38 1 4 36
M  V30 39 1 5 37
M  V30 40 1 8 38
M  V30 41 1 9 39
M  V30 42 1 9 40
M  V30 43 1 10 41
M  V30 44 1 10 42
M  V30 45 1 11 43
M  V30 46 1 11 44
M  V30 47 1 17 45
M  V30 48 1 18 46
M  V30 49 1 21 47
M  V30 50 1 25 48
M  V30 51 1 26 49
M  V30 52 1 27 50
M  V30 53 1 27 51
M  V30 END BOND
M  V30 END CTAB
M  END
>  <Dataset>  (674) 
ChEMBL_Kinases

>  <Ligand_Instance>  (674) 
nan

>  <PDB_ID>  (674) 
nan

>  <Standardized_SMILES>  (674) 
CCCCNC(=O)C1CCCN(S(=O)(=O)c2ccc(-n3cnnn3)cc2)C1

>  <Name>  (674) 
nan

>  <Pocket>  (674) 
nan

>  <ATP_Site>  (674) 
nan

>  <Peripheral>  (674) 
nan

>  <Num_H_Atoms_ProtBoundConf>  (674) 
nan

>  <Num_Resolved_Atoms>  (674) 
nan

>  <Num_Not_Resolved_Atoms>  (674) 
nan

$$$$
CHEMBL1542674
     RDKit          3D

  0  0  0  0  0  0  0  0  0  0999 V3000
M  V30 BEGIN CTAB
M  V30 COUNTS 36 38 0 0 0
M  V30 BEGIN ATOM
M  V30 1 C -1.724335 -3.300491 3.622389 0
M  V30 2 C -1.087840 -2.427329 2.602753 0
M  V30 3 C 0.112698 -2.761562 2.019643 0
M  V30 4 C 0.745711 -1.987579 1.072786 0
M  V30 5 N 1.973196 -2.415120 0.515458 0
M  V30 6 C 2.818654 -1.723327 -0.374724 0
M  V30 7 C 2.772758 -0.364019 -0.592192 0
M  V30 8 C 3.577150 0.331302 -1.463444 0
M  V30 9 C 4.520176 -0.370973 -2.193992 0
M  V30 10 C 4.596448 -1.730193 -2.003121 0
M  V30 11 F 5.533842 -2.363842 -2.743075 0
M  V30 12 C 3.774193 -2.384035 -1.124023 0
M  V30 13 N 0.113168 -0.855110 0.735848 0
M  V30 14 C -1.057741 -0.463543 1.259251 0
M  V30 15 C -1.781490 0.746685 0.901760 0
M  V30 16 C -2.949799 1.076841 1.553022 0
M  V30 17 C -3.712034 2.191398 1.288653 0
M  V30 18 C -3.264906 3.039739 0.291631 0
M  V30 19 C -2.108016 2.780180 -0.405240 0
M  V30 20 C -1.398790 1.634830 -0.075998 0
M  V30 21 O -0.247625 1.403747 -0.791943 0
M  V30 22 N -1.592198 -1.270039 2.162354 0
M  V30 23 H -2.193694 -4.167487 3.107013 0
M  V30 24 H -1.006283 -3.625292 4.399651 0
M  V30 25 H -2.566717 -2.728653 4.065755 0
M  V30 26 H 0.584545 -3.704181 2.336964 0
M  V30 27 H 2.315457 -3.382868 0.795103 0
M  V30 28 H 2.066274 0.221467 -0.045827 0
M  V30 29 H 3.473549 1.419019 -1.577242 0
M  V30 30 H 5.138688 0.204126 -2.870815 0
M  V30 31 H 3.877383 -3.459639 -1.012864 0
M  V30 32 H -3.371574 0.456198 2.359259 0
M  V30 33 H -4.625004 2.421010 1.818724 0
M  V30 34 H -3.827753 3.940091 0.038828 0
M  V30 35 H -1.788174 3.459271 -1.173958 0
M  V30 36 H 0.523751 2.032504 -0.703403 0
M  V30 END ATOM
M  V30 BEGIN BOND
M  V30 1 1 1 2
M  V30 2 2 2 3
M  V30 3 1 3 4
M  V30 4 1 4 5
M  V30 5 1 5 6
M  V30 6 2 6 7
M  V30 7 1 7 8
M  V30 8 2 8 9
M  V30 9 1 9 10
M  V30 10 1 10 11
M  V30 11 2 10 12
M  V30 12 2 4 13
M  V30 13 1 13 14
M  V30 14 1 14 15
M  V30 15 2 15 16
M  V30 16 1 16 17
M  V30 17 2 17 18
M  V30 18 1 18 19
M  V30 19 2 19 20
M  V30 20 1 20 21
M  V30 21 2 14 22
M  V30 22 1 22 2
M  V30 23 1 12 6
M  V30 24 1 20 15
M  V30 25 1 1 23
M  V30 26 1 1 24
M  V30 27 1 1 25
M  V30 28 1 3 26
M  V30 29 1 5 27
M  V30 30 1 7 28
M  V30 31 1 8 29
M  V30 32 1 9 30
M  V30 33 1 12 31
M  V30 34 1 16 32
M  V30 35 1 17 33
M  V30 36 1 18 34
M  V30 37 1 19 35
M  V30 38 1 21 36
M  V30 END BOND
M  V30 END CTAB
M  END
>  <Dataset>  (675) 
ChEMBL_Kinases

>  <Ligand_Instance>  (675) 
nan

>  <PDB_ID>  (675) 
nan

>  <Standardized_SMILES>  (675) 
Cc1cc(Nc2cccc(F)c2)nc(-c2ccccc2O)n1

>  <Name>  (675) 
nan

>  <Pocket>  (675) 
nan

>  <ATP_Site>  (675) 
nan

>  <Peripheral>  (675) 
nan

>  <Num_H_Atoms_ProtBoundConf>  (675) 
nan

>  <Num_Resolved_Atoms>  (675) 
nan

>  <Num_Not_Resolved_Atoms>  (675) 
nan

$$$$
CHEMBL1542762
     RDKit          3D

  0  0  0  0  0  0  0  0  0  0999 V3000
M  V30 BEGIN CTAB
M  V30 COUNTS 50 53 0 0 0
M  V30 BEGIN ATOM
M  V30 1 C -0.331944 -3.268311 5.316136 0
M  V30 2 O -0.264714 -2.935609 3.965178 0
M  V30 3 C 0.849353 -3.535419 3.427778 0
M  V30 4 C 1.018246 -3.238729 1.960802 0
M  V30 5 N 1.153676 -1.815026 1.707800 0
M  V30 6 C 2.453971 -1.201055 1.704471 0
M  V30 7 O 3.589548 -1.736238 1.900376 0
M  V30 8 C 2.325377 0.225466 1.428817 0
M  V30 9 O 3.121075 1.262997 1.304007 0
M  V30 10 C 2.643698 2.461364 1.041034 0
M  V30 11 C 3.532387 3.532894 0.917844 0
M  V30 12 C 3.114350 4.829873 0.641644 0
M  V30 13 C 1.747264 5.048105 0.484831 0
M  V30 14 C 0.843370 4.012740 0.600013 0
M  V30 15 C 1.298994 2.739821 0.874949 0
M  V30 16 C 0.414841 1.675598 0.997178 0
M  V30 17 O -0.792050 1.916517 0.849779 0
M  V30 18 C 0.968254 0.422031 1.276864 0
M  V30 19 C 0.170316 -0.817037 1.438718 0
M  V30 20 C -0.724948 -1.077432 0.311675 0
M  V30 21 C -2.082676 -0.861911 0.431080 0
M  V30 22 C -3.011810 -1.074452 -0.565865 0
M  V30 23 C -2.483266 -1.545771 -1.773071 0
M  V30 24 O -3.340007 -1.789648 -2.835933 0
M  V30 25 C -4.748630 -1.564605 -2.707821 0
M  V30 26 C -1.139450 -1.786004 -1.971875 0
M  V30 27 O -0.698494 -2.253883 -3.202670 0
M  V30 28 C 0.683952 -2.495193 -3.389747 0
M  V30 29 C -0.298550 -1.539129 -0.906277 0
M  V30 30 H 0.601084 -2.885902 5.786225 0
M  V30 31 H -1.229943 -2.809478 5.763919 0
M  V30 32 H -0.325646 -4.372328 5.462532 0
M  V30 33 H 0.775822 -4.643387 3.520701 0
M  V30 34 H 1.745141 -3.227957 4.009110 0
M  V30 35 H 1.898406 -3.807173 1.593835 0
M  V30 36 H 0.148185 -3.671283 1.436913 0
M  V30 37 H 4.607437 3.431249 1.028186 0
M  V30 38 H 3.806464 5.649144 0.548528 0
M  V30 39 H 1.403699 6.062747 0.267346 0
M  V30 40 H -0.201622 4.164586 0.482937 0
M  V30 41 H -0.444120 -0.709823 2.378911 0
M  V30 42 H -2.491664 -0.491327 1.382801 0
M  V30 43 H -4.060713 -0.902891 -0.458485 0
M  V30 44 H -5.267272 -1.836364 -3.648826 0
M  V30 45 H -4.870816 -0.483075 -2.458017 0
M  V30 46 H -5.164139 -2.126156 -1.832599 0
M  V30 47 H 1.147257 -3.041905 -2.520282 0
M  V30 48 H 0.759812 -3.222319 -4.236430 0
M  V30 49 H 1.283618 -1.595331 -3.547960 0
M  V30 50 H 0.768401 -1.714415 -1.017797 0
M  V30 END ATOM
M  V30 BEGIN BOND
M  V30 1 1 1 2
M  V30 2 1 2 3
M  V30 3 1 3 4
M  V30 4 1 4 5
M  V30 5 1 5 6
M  V30 6 2 6 7
M  V30 7 1 6 8
M  V30 8 1 8 9
M  V30 9 1 9 10
M  V30 10 2 10 11
M  V30 11 1 11 12
M  V30 12 2 12 13
M  V30 13 1 13 14
M  V30 14 2 14 15
M  V30 15 1 15 16
M  V30 16 2 16 17
M  V30 17 1 16 18
M  V30 18 1 18 19
M  V30 19 1 19 20
M  V30 20 2 20 21
M  V30 21 1 21 22
M  V30 22 2 22 23
M  V30 23 1 23 24
M  V30 24 1 24 25
M  V30 25 1 23 26
M  V30 26 1 26 27
M  V30 27 1 27 28
M  V30 28 2 26 29
M  V30 29 1 19 5
M  V30 30 1 29 20
M  V30 31 2 18 8
M  V30 32 1 15 10
M  V30 33 1 1 30
M  V30 34 1 1 31
M  V30 35 1 1 32
M  V30 36 1 3 33
M  V30 37 1 3 34
M  V30 38 1 4 35
M  V30 39 1 4 36
M  V30 40 1 11 37
M  V30 41 1 12 38
M  V30 42 1 13 39
M  V30 43 1 14 40
M  V30 44 1 19 41
M  V30 45 1 21 42
M  V30 46 1 22 43
M  V30 47 1 25 44
M  V30 48 1 25 45
M  V30 49 1 25 46
M  V30 50 1 28 47
M  V30 51 1 28 48
M  V30 52 1 28 49
M  V30 53 1 29 50
M  V30 END BOND
M  V30 END CTAB
M  END
>  <Dataset>  (676) 
ChEMBL_Kinases

>  <Ligand_Instance>  (676) 
nan

>  <PDB_ID>  (676) 
nan

>  <Standardized_SMILES>  (676) 
COCCN1C(=O)c2oc3ccccc3c(=O)c2C1c1ccc(OC)c(OC)c1

>  <Name>  (676) 
nan

>  <Pocket>  (676) 
nan

>  <ATP_Site>  (676) 
nan

>  <Peripheral>  (676) 
nan

>  <Num_H_Atoms_ProtBoundConf>  (676) 
nan

>  <Num_Resolved_Atoms>  (676) 
nan

>  <Num_Not_Resolved_Atoms>  (676) 
nan

$$$$
CHEMBL1542772
     RDKit          3D

  0  0  0  0  0  0  0  0  0  0999 V3000
M  V30 BEGIN CTAB
M  V30 COUNTS 36 36 0 0 0
M  V30 BEGIN ATOM
M  V30 1 C -0.260825 -1.237569 4.764794 0
M  V30 2 C -0.444552 -2.234666 3.662054 0
M  V30 3 C -1.302997 -1.711136 2.548687 0
M  V30 4 C -0.772903 -0.478243 1.875999 0
M  V30 5 C 0.590469 -0.692719 1.249841 0
M  V30 6 C 0.533912 -1.764122 0.219154 0
M  V30 7 C 1.133540 -1.381213 -1.106198 0
M  V30 8 C 0.558813 0.004201 -1.419799 0
M  V30 9 C 0.624419 0.314139 -2.849323 0
M  V30 10 N 1.077516 -0.373285 -3.869363 0
M  V30 11 N 0.114267 1.582543 -3.248394 0
M  V30 12 O -0.351458 1.852436 -4.494977 0
M  V30 13 C 1.365065 0.918534 -0.558429 0
M  V30 14 C 1.261606 0.573794 0.873348 0
M  V30 15 H 0.015859 -1.807125 5.689609 0
M  V30 16 H -1.173478 -0.667175 4.960672 0
M  V30 17 H 0.604811 -0.560245 4.593704 0
M  V30 18 H 0.497509 -2.618688 3.271028 0
M  V30 19 H -1.037022 -3.080943 4.120695 0
M  V30 20 H -1.405737 -2.497267 1.774146 0
M  V30 21 H -2.302665 -1.497876 2.941618 0
M  V30 22 H -0.656290 0.369613 2.600682 0
M  V30 23 H -1.548490 -0.215628 1.108988 0
M  V30 24 H 1.207891 -1.126838 2.082864 0
M  V30 25 H -0.550129 -1.989981 -0.005270 0
M  V30 26 H 0.976729 -2.735830 0.520599 0
M  V30 27 H 0.886719 -2.108867 -1.875007 0
M  V30 28 H 2.232711 -1.301207 -0.977759 0
M  V30 29 H -0.480649 0.021954 -1.059882 0
M  V30 30 H 1.469638 -1.316464 -3.661955 0
M  V30 31 H 0.070386 2.403491 -2.575515 0
M  V30 32 H -1.237804 2.306571 -4.359176 0
M  V30 33 H 2.427593 0.811428 -0.917385 0
M  V30 34 H 1.142286 2.004999 -0.771126 0
M  V30 35 H 0.667502 1.404802 1.357741 0
M  V30 36 H 2.279423 0.701711 1.328317 0
M  V30 END ATOM
M  V30 BEGIN BOND
M  V30 1 1 1 2
M  V30 2 1 2 3
M  V30 3 1 3 4
M  V30 4 1 4 5
M  V30 5 1 5 6
M  V30 6 1 6 7
M  V30 7 1 7 8
M  V30 8 1 8 9
M  V30 9 2 9 10 CFG=2
M  V30 10 1 9 11
M  V30 11 1 11 12
M  V30 12 1 8 13
M  V30 13 1 13 14
M  V30 14 1 14 5
M  V30 15 1 1 15
M  V30 16 1 1 16
M  V30 17 1 1 17
M  V30 18 1 2 18
M  V30 19 1 2 19
M  V30 20 1 3 20
M  V30 21 1 3 21
M  V30 22 1 4 22
M  V30 23 1 4 23
M  V30 24 1 5 24
M  V30 25 1 6 25
M  V30 26 1 6 26
M  V30 27 1 7 27
M  V30 28 1 7 28
M  V30 29 1 8 29
M  V30 30 1 10 30
M  V30 31 1 11 31
M  V30 32 1 12 32
M  V30 33 1 13 33
M  V30 34 1 13 34
M  V30 35 1 14 35
M  V30 36 1 14 36
M  V30 END BOND
M  V30 END CTAB
M  END
>  <Dataset>  (677) 
ChEMBL_Kinases

>  <Ligand_Instance>  (677) 
nan

>  <PDB_ID>  (677) 
nan

>  <Standardized_SMILES>  (677) 
CCCCC1CCC(C(=N)NO)CC1

>  <Name>  (677) 
nan

>  <Pocket>  (677) 
nan

>  <ATP_Site>  (677) 
nan

>  <Peripheral>  (677) 
nan

>  <Num_H_Atoms_ProtBoundConf>  (677) 
nan

>  <Num_Resolved_Atoms>  (677) 
nan

>  <Num_Not_Resolved_Atoms>  (677) 
nan

$$$$
CHEMBL1542892
     RDKit          3D

  0  0  0  0  0  0  0  0  0  0999 V3000
M  V30 BEGIN CTAB
M  V30 COUNTS 64 67 0 0 0
M  V30 BEGIN ATOM
M  V30 1 C 6.117330 -2.448013 -0.323321 0
M  V30 2 C 5.752777 -1.374801 -1.296294 0
M  V30 3 C 4.694199 -0.474892 -0.790392 0
M  V30 4 C 3.398006 -0.836131 -1.068692 0
M  V30 5 C 2.326744 -0.077351 -0.649980 0
M  V30 6 C 2.502626 1.083351 0.069840 0
M  V30 7 N 1.348339 1.803301 0.461045 0
M  V30 8 C 1.243803 3.009415 1.197281 0
M  V30 9 O 2.294490 3.572281 1.589466 0
M  V30 10 C -0.042991 3.667563 1.544705 0
M  V30 11 N -1.174954 2.929735 1.040127 0
M  V30 12 C -1.680342 2.013324 1.892867 0
M  V30 13 O -1.191313 1.824079 3.045129 0
M  V30 14 N -2.745210 1.202265 1.631699 0
M  V30 15 C -3.256559 0.248192 2.569820 0
M  V30 16 C -2.554423 -1.075056 2.433720 0
M  V30 17 C -2.679358 -1.708819 1.086168 0
M  V30 18 C -1.956053 -3.018691 1.052967 0
M  V30 19 O -1.389291 -3.367343 2.101556 0
M  V30 20 N -1.925114 -3.813376 -0.119886 0
M  V30 21 C -1.256443 -5.072563 -0.226353 0
M  V30 22 C -1.770308 -6.091227 0.723282 0
M  V30 23 C -1.373882 -6.421234 2.011373 0
M  V30 24 C -2.155176 -7.442343 2.500971 0
M  V30 25 C -3.027224 -7.703919 1.456221 0
M  V30 26 O -2.757411 -6.901512 0.472268 0
M  V30 27 C -3.346055 1.316732 0.433657 0
M  V30 28 O -4.333682 0.650828 0.036619 0
M  V30 29 C -2.868814 2.237864 -0.475154 0
M  V30 30 C -3.414551 2.427963 -1.731468 0
M  V30 31 C -2.922611 3.353148 -2.632921 0
M  V30 32 C -1.822272 4.129249 -2.250544 0
M  V30 33 C -1.256765 3.962321 -1.004185 0
M  V30 34 C -1.787023 3.027314 -0.147108 0
M  V30 35 C 3.802179 1.416635 0.331136 0
M  V30 36 C 4.892604 0.678145 -0.074281 0
M  V30 37 H 6.365925 -3.364668 -0.918038 0
M  V30 38 H 6.996861 -2.222961 0.288043 0
M  V30 39 H 5.297970 -2.712884 0.381001 0
M  V30 40 H 5.476483 -1.797223 -2.281335 0
M  V30 41 H 6.681494 -0.769855 -1.463946 0
M  V30 42 H 3.173641 -1.733114 -1.628694 0
M  V30 43 H 1.319280 -0.406257 -0.895792 0
M  V30 44 H 0.402347 1.447761 0.200842 0
M  V30 45 H -0.125219 3.799701 2.658765 0
M  V30 46 H -0.019292 4.693264 1.143836 0
M  V30 47 H -3.064511 0.638466 3.586085 0
M  V30 48 H -4.360834 0.143424 2.387992 0
M  V30 49 H -2.960788 -1.830741 3.164306 0
M  V30 50 H -1.506924 -0.915935 2.733571 0
M  V30 51 H -3.723968 -1.914660 0.789683 0
M  V30 52 H -2.239837 -1.073618 0.277381 0
M  V30 53 H -2.449687 -3.395715 -0.940911 0
M  V30 54 H -0.156890 -4.997230 -0.081233 0
M  V30 55 H -1.410168 -5.466860 -1.258027 0
M  V30 56 H -0.569269 -5.940603 2.536748 0
M  V30 57 H -2.121735 -7.934678 3.451083 0
M  V30 58 H -3.826314 -8.453780 1.423223 0
M  V30 59 H -4.272292 1.799689 -1.986743 0
M  V30 60 H -3.433198 3.410539 -3.584930 0
M  V30 61 H -1.462438 4.843789 -2.980441 0
M  V30 62 H -0.413029 4.589479 -0.781153 0
M  V30 63 H 4.026898 2.293297 0.878673 0
M  V30 64 H 5.900690 0.959561 0.142386 0
M  V30 END ATOM
M  V30 BEGIN BOND
M  V30 1 1 1 2
M  V30 2 1 2 3
M  V30 3 2 3 4
M  V30 4 1 4 5
M  V30 5 2 5 6
M  V30 6 1 6 7
M  V30 7 1 7 8
M  V30 8 2 8 9
M  V30 9 1 8 10
M  V30 10 1 10 11
M  V30 11 1 11 12
M  V30 12 2 12 13
M  V30 13 1 12 14
M  V30 14 1 14 15
M  V30 15 1 15 16
M  V30 16 1 16 17
M  V30 17 1 17 18
M  V30 18 2 18 19
M  V30 19 1 18 20
M  V30 20 1 20 21
M  V30 21 1 21 22
M  V30 22 2 22 23
M  V30 23 1 23 24
M  V30 24 2 24 25
M  V30 25 1 25 26
M  V30 26 1 14 27
M  V30 27 2 27 28
M  V30 28 1 27 29
M  V30 29 2 29 30
M  V30 30 1 30 31
M  V30 31 2 31 32
M  V30 32 1 32 33
M  V30 33 2 33 34
M  V30 34 1 6 35
M  V30 35 2 35 36
M  V30 36 1 36 3
M  V30 37 1 34 11
M  V30 38 1 26 22
M  V30 39 1 34 29
M  V30 40 1 1 37
M  V30 41 1 1 38
M  V30 42 1 1 39
M  V30 43 1 2 40
M  V30 44 1 2 41
M  V30 45 1 4 42
M  V30 46 1 5 43
M  V30 47 1 7 44
M  V30 48 1 10 45
M  V30 49 1 10 46
M  V30 50 1 15 47
M  V30 51 1 15 48
M  V30 52 1 16 49
M  V30 53 1 16 50
M  V30 54 1 17 51
M  V30 55 1 17 52
M  V30 56 1 20 53
M  V30 57 1 21 54
M  V30 58 1 21 55
M  V30 59 1 23 56
M  V30 60 1 24 57
M  V30 61 1 25 58
M  V30 62 1 30 59
M  V30 63 1 31 60
M  V30 64 1 32 61
M  V30 65 1 33 62
M  V30 66 1 35 63
M  V30 67 1 36 64
M  V30 END BOND
M  V30 END CTAB
M  END
>  <Dataset>  (678) 
ChEMBL_Kinases

>  <Ligand_Instance>  (678) 
nan

>  <PDB_ID>  (678) 
nan

>  <Standardized_SMILES>  (678) 
CCc1ccc(NC(=O)Cn2c(=O)n(CCCC(=O)NCc3ccco3)c(=O)c3ccccc32)cc1

>  <Name>  (678) 
nan

>  <Pocket>  (678) 
nan

>  <ATP_Site>  (678) 
nan

>  <Peripheral>  (678) 
nan

>  <Num_H_Atoms_ProtBoundConf>  (678) 
nan

>  <Num_Resolved_Atoms>  (678) 
nan

>  <Num_Not_Resolved_Atoms>  (678) 
nan

$$$$
CHEMBL1543721
     RDKit          3D

  0  0  0  0  0  0  0  0  0  0999 V3000
M  V30 BEGIN CTAB
M  V30 COUNTS 65 69 0 0 0
M  V30 BEGIN ATOM
M  V30 1 C 2.122792 -1.243541 3.935420 0
M  V30 2 O 2.596942 -0.227014 3.091422 0
M  V30 3 C 3.832695 0.376204 3.166306 0
M  V30 4 C 4.789422 0.054050 4.101246 0
M  V30 5 C 6.018573 0.713439 4.109756 0
M  V30 6 C 6.282528 1.696992 3.176039 0
M  V30 7 C 5.306701 2.001390 2.249339 0
M  V30 8 C 4.068030 1.354322 2.221324 0
M  V30 9 N 3.191030 1.800127 1.195882 0
M  V30 10 C 2.762278 0.815301 0.222634 0
M  V30 11 C 1.680435 1.363325 -0.682374 0
M  V30 12 N 0.911310 2.291839 0.161238 0
M  V30 13 C -0.391181 2.227329 0.789591 0
M  V30 14 O -0.859596 3.190820 1.495949 0
M  V30 15 C -1.435874 1.201121 0.819376 0
M  V30 16 S -1.031128 -0.301643 -0.075373 0
M  V30 17 C -2.334748 -1.475628 0.010744 0
M  V30 18 N -3.453158 -1.196933 0.683837 0
M  V30 19 C -4.467568 -2.082153 0.813489 0
M  V30 20 C -5.585521 -1.708422 1.526930 0
M  V30 21 C -6.605300 -2.630392 1.644406 0
M  V30 22 C -6.445006 -3.871283 1.040694 0
M  V30 23 C -5.304945 -4.201468 0.334628 0
M  V30 24 C -4.268374 -3.301882 0.199328 0
M  V30 25 C -3.099177 -3.552404 -0.487734 0
M  V30 26 O -3.092285 -4.719007 -0.982870 0
M  V30 27 N -2.082960 -2.639937 -0.607920 0
M  V30 28 C -0.963642 -3.135441 -1.344300 0
M  V30 29 C -1.042222 -3.022106 -2.835895 0
M  V30 30 C -1.167175 -1.665193 -3.401025 0
M  V30 31 C -2.661657 -1.462289 -3.552685 0
M  V30 32 C -3.113879 -2.888668 -3.729180 0
M  V30 33 O -2.175078 -3.741927 -3.228218 0
M  V30 34 C 1.630061 3.551879 0.417418 0
M  V30 35 C 2.830694 3.203131 1.253688 0
M  V30 36 H 2.621750 -1.235900 4.942985 0
M  V30 37 H 1.031696 -1.073337 4.169709 0
M  V30 38 H 2.179552 -2.262176 3.500103 0
M  V30 39 H 4.589588 -0.710377 4.830033 0
M  V30 40 H 6.756129 0.427107 4.872584 0
M  V30 41 H 7.244305 2.206897 3.189296 0
M  V30 42 H 5.569021 2.775346 1.547639 0
M  V30 43 H 3.650536 0.518464 -0.371602 0
M  V30 44 H 2.396178 -0.100458 0.734775 0
M  V30 45 H 1.073736 0.590505 -1.147047 0
M  V30 46 H 2.135328 1.983922 -1.481210 0
M  V30 47 H -2.389323 1.634078 0.410295 0
M  V30 48 H -1.719078 0.888838 1.858045 0
M  V30 49 H -5.624698 -0.720604 1.963568 0
M  V30 50 H -7.495510 -2.365263 2.198709 0
M  V30 51 H -7.254058 -4.595914 1.136669 0
M  V30 52 H -5.194732 -5.170740 -0.129303 0
M  V30 53 H -0.040846 -2.582415 -0.985318 0
M  V30 54 H -0.790827 -4.219621 -1.065028 0
M  V30 55 H -0.144263 -3.500115 -3.314315 0
M  V30 56 H -0.765332 -1.615347 -4.467654 0
M  V30 57 H -0.728343 -0.832393 -2.875753 0
M  V30 58 H -2.910514 -0.927670 -4.487584 0
M  V30 59 H -3.101607 -0.928010 -2.716396 0
M  V30 60 H -3.388863 -3.113677 -4.783734 0
M  V30 61 H -4.064605 -3.012145 -3.160201 0
M  V30 62 H 0.996806 4.337612 0.823302 0
M  V30 63 H 1.990813 3.897511 -0.574866 0
M  V30 64 H 3.695985 3.852560 0.943653 0
M  V30 65 H 2.557092 3.471576 2.310323 0
M  V30 END ATOM
M  V30 BEGIN BOND
M  V30 1 1 1 2
M  V30 2 1 2 3
M  V30 3 2 3 4
M  V30 4 1 4 5
M  V30 5 2 5 6
M  V30 6 1 6 7
M  V30 7 2 7 8
M  V30 8 1 8 9
M  V30 9 1 9 10
M  V30 10 1 10 11
M  V30 11 1 11 12
M  V30 12 1 12 13
M  V30 13 2 13 14
M  V30 14 1 13 15
M  V30 15 1 15 16
M  V30 16 1 16 17
M  V30 17 2 17 18
M  V30 18 1 18 19
M  V30 19 2 19 20
M  V30 20 1 20 21
M  V30 21 2 21 22
M  V30 22 1 22 23
M  V30 23 2 23 24
M  V30 24 1 24 25
M  V30 25 2 25 26
M  V30 26 1 25 27
M  V30 27 1 27 28
M  V30 28 1 28 29
M  V30 29 1 29 30
M  V30 30 1 30 31
M  V30 31 1 31 32
M  V30 32 1 32 33
M  V30 33 1 12 34
M  V30 34 1 34 35
M  V30 35 1 8 3
M  V30 36 1 35 9
M  V30 37 1 27 17
M  V30 38 1 33 29
M  V30 39 1 24 19
M  V30 40 1 1 36
M  V30 41 1 1 37
M  V30 42 1 1 38
M  V30 43 1 4 39
M  V30 44 1 5 40
M  V30 45 1 6 41
M  V30 46 1 7 42
M  V30 47 1 10 43
M  V30 48 1 10 44
M  V30 49 1 11 45
M  V30 50 1 11 46
M  V30 51 1 15 47
M  V30 52 1 15 48
M  V30 53 1 20 49
M  V30 54 1 21 50
M  V30 55 1 22 51
M  V30 56 1 23 52
M  V30 57 1 28 53
M  V30 58 1 28 54
M  V30 59 1 29 55
M  V30 60 1 30 56
M  V30 61 1 30 57
M  V30 62 1 31 58
M  V30 63 1 31 59
M  V30 64 1 32 60
M  V30 65 1 32 61
M  V30 66 1 34 62
M  V30 67 1 34 63
M  V30 68 1 35 64
M  V30 69 1 35 65
M  V30 END BOND
M  V30 END CTAB
M  END
>  <Dataset>  (679) 
ChEMBL_Kinases

>  <Ligand_Instance>  (679) 
nan

>  <PDB_ID>  (679) 
nan

>  <Standardized_SMILES>  (679) 
COc1ccccc1N1CCN(C(=O)CSc2nc3ccccc3c(=O)n2CC2CCCO2)CC1

>  <Name>  (679) 
nan

>  <Pocket>  (679) 
nan

>  <ATP_Site>  (679) 
nan

>  <Peripheral>  (679) 
nan

>  <Num_H_Atoms_ProtBoundConf>  (679) 
nan

>  <Num_Resolved_Atoms>  (679) 
nan

>  <Num_Not_Resolved_Atoms>  (679) 
nan

$$$$
CHEMBL1543012
     RDKit          3D

  0  0  0  0  0  0  0  0  0  0999 V3000
M  V30 BEGIN CTAB
M  V30 COUNTS 44 46 0 0 0
M  V30 BEGIN ATOM
M  V30 1 C -0.425658 -3.726184 2.046320 0
M  V30 2 C -0.896857 -3.192069 0.754978 0
M  V30 3 C -0.951895 -1.843007 0.588977 0
M  V30 4 N -1.330341 -1.114607 -0.451452 0
M  V30 5 C -1.414540 0.279997 -0.813296 0
M  V30 6 C -0.168012 0.877311 -1.271825 0
M  V30 7 C 0.227609 0.608226 -2.556244 0
M  V30 8 C 1.441893 0.994590 -3.090598 0
M  V30 9 C 2.318052 1.705540 -2.257180 0
M  V30 10 C 1.846086 1.946554 -0.958396 0
M  V30 11 C 0.604296 1.566035 -0.382857 0
M  V30 12 C 0.464296 2.106277 0.938066 0
M  V30 13 N 0.512675 1.295219 2.101691 0
M  V30 14 C 1.776566 0.891880 2.356325 0
M  V30 15 C 2.103500 0.043082 3.425170 0
M  V30 16 C 3.524209 -0.402445 3.676353 0
M  V30 17 C 1.057808 -0.381089 4.236059 0
M  V30 18 O 1.297048 -1.148952 5.215659 0
M  V30 19 N -0.195400 0.030039 3.970436 0
M  V30 20 C -0.466359 0.843433 2.936423 0
M  V30 21 O -1.600566 1.257953 2.640622 0
M  V30 22 C -1.702409 -1.991814 -1.453989 0
M  V30 23 O -2.121558 -1.618853 -2.584909 0
M  V30 24 N -1.691757 -3.337894 -1.411686 0
M  V30 25 C -1.289859 -3.967649 -0.310375 0
M  V30 26 O -1.242684 -5.214322 -0.171126 0
M  V30 27 H -0.639768 -4.818079 2.083757 0
M  V30 28 H 0.683838 -3.581619 2.177733 0
M  V30 29 H -0.940810 -3.259823 2.894409 0
M  V30 30 H -0.635981 -1.228017 1.398664 0
M  V30 31 H -1.896103 0.830439 0.019888 0
M  V30 32 H -2.142004 0.373291 -1.678634 0
M  V30 33 H -0.312197 0.094536 -3.332827 0
M  V30 34 H 1.808151 0.814879 -4.088988 0
M  V30 35 H 3.282025 2.031346 -2.613474 0
M  V30 36 H 2.630942 2.503460 -0.410011 0
M  V30 37 H -0.542817 2.697823 1.005291 0
M  V30 38 H 1.190887 2.951022 1.124500 0
M  V30 39 H 2.657904 1.162748 1.790280 0
M  V30 40 H 3.692860 -0.674475 4.711941 0
M  V30 41 H 4.180297 0.416666 3.303228 0
M  V30 42 H 3.677695 -1.235992 2.932795 0
M  V30 43 H -1.000249 -0.269781 4.561594 0
M  V30 44 H -1.972928 -3.986495 -2.175706 0
M  V30 END ATOM
M  V30 BEGIN BOND
M  V30 1 1 1 2
M  V30 2 2 2 3
M  V30 3 1 3 4
M  V30 4 1 4 5
M  V30 5 1 5 6
M  V30 6 2 6 7
M  V30 7 1 7 8
M  V30 8 2 8 9
M  V30 9 1 9 10
M  V30 10 2 10 11
M  V30 11 1 11 12
M  V30 12 1 12 13
M  V30 13 1 13 14
M  V30 14 2 14 15
M  V30 15 1 15 16
M  V30 16 1 15 17
M  V30 17 2 17 18
M  V30 18 1 17 19
M  V30 19 1 19 20
M  V30 20 2 20 21
M  V30 21 1 4 22
M  V30 22 2 22 23
M  V30 23 1 22 24
M  V30 24 1 24 25
M  V30 25 2 25 26
M  V30 26 1 25 2
M  V30 27 1 11 6
M  V30 28 1 20 13
M  V30 29 1 1 27
M  V30 30 1 1 28
M  V30 31 1 1 29
M  V30 32 1 3 30
M  V30 33 1 5 31
M  V30 34 1 5 32
M  V30 35 1 7 33
M  V30 36 1 8 34
M  V30 37 1 9 35
M  V30 38 1 10 36
M  V30 39 1 12 37
M  V30 40 1 12 38
M  V30 41 1 14 39
M  V30 42 1 16 40
M  V30 43 1 16 41
M  V30 44 1 16 42
M  V30 45 1 19 43
M  V30 46 1 24 44
M  V30 END BOND
M  V30 END CTAB
M  END
>  <Dataset>  (680) 
ChEMBL_Kinases

>  <Ligand_Instance>  (680) 
nan

>  <PDB_ID>  (680) 
nan

>  <Standardized_SMILES>  (680) 
Cc1cn(Cc2ccccc2Cn2cc(C)c(=O)[nH]c2=O)c(=O)[nH]c1=O

>  <Name>  (680) 
nan

>  <Pocket>  (680) 
nan

>  <ATP_Site>  (680) 
nan

>  <Peripheral>  (680) 
nan

>  <Num_H_Atoms_ProtBoundConf>  (680) 
nan

>  <Num_Resolved_Atoms>  (680) 
nan

>  <Num_Not_Resolved_Atoms>  (680) 
nan

$$$$
CHEMBL1543053
     RDKit          3D

  0  0  0  0  0  0  0  0  0  0999 V3000
M  V30 BEGIN CTAB
M  V30 COUNTS 51 53 0 0 0
M  V30 BEGIN ATOM
M  V30 1 C 0.754089 -6.120884 1.431270 0
M  V30 2 O -0.620939 -6.317097 1.213393 0
M  V30 3 C -1.329990 -5.360527 0.502195 0
M  V30 4 C -0.726818 -4.226503 0.004433 0
M  V30 5 C -1.416836 -3.258322 -0.708755 0
M  V30 6 N -0.608574 -2.162358 -1.135916 0
M  V30 7 C -0.382761 -0.958954 -0.374756 0
M  V30 8 O -1.002970 -1.021187 0.717401 0
M  V30 9 C 0.509800 -0.048701 -1.141033 0
M  V30 10 N 0.710539 1.129557 -0.358239 0
M  V30 11 C 1.566074 2.113434 -0.967941 0
M  V30 12 C 1.670277 3.252462 0.029940 0
M  V30 13 N 1.255275 2.823042 1.369841 0
M  V30 14 C 2.133273 2.859305 2.491359 0
M  V30 15 C 1.884705 3.596367 3.625854 0
M  V30 16 C 2.822691 3.537452 4.634443 0
M  V30 17 C 3.965216 2.769478 4.510171 0
M  V30 18 C 4.207688 2.030958 3.365556 0
M  V30 19 C 3.278239 2.074849 2.338025 0
M  V30 20 F 3.555281 1.338463 1.238713 0
M  V30 21 C -0.133036 2.350618 1.478148 0
M  V30 22 C -0.482200 1.774675 0.119742 0
M  V30 23 C -2.767376 -3.441683 -0.927970 0
M  V30 24 C -3.397407 -4.569411 -0.440184 0
M  V30 25 O -4.753901 -4.707376 -0.686505 0
M  V30 26 C -5.417613 -3.692165 -1.420139 0
M  V30 27 C -2.695417 -5.524284 0.268302 0
M  V30 28 H 1.190726 -6.996966 1.966317 0
M  V30 29 H 1.346678 -6.021464 0.506355 0
M  V30 30 H 0.966449 -5.213981 2.036486 0
M  V30 31 H 0.345012 -4.150495 0.217752 0
M  V30 32 H -0.285279 -2.516024 -2.084204 0
M  V30 33 H 0.081824 0.200191 -2.135385 0
M  V30 34 H 1.482251 -0.550789 -1.249852 0
M  V30 35 H 1.085399 2.543649 -1.895147 0
M  V30 36 H 2.565733 1.769007 -1.237014 0
M  V30 37 H 0.956382 4.084315 -0.233674 0
M  V30 38 H 2.677142 3.708494 0.069640 0
M  V30 39 H 0.973329 4.160321 3.630423 0
M  V30 40 H 2.610614 4.128713 5.529251 0
M  V30 41 H 4.695834 2.735785 5.319409 0
M  V30 42 H 5.108352 1.420124 3.257140 0
M  V30 43 H -0.217420 1.561580 2.248008 0
M  V30 44 H -0.808592 3.182551 1.759923 0
M  V30 45 H -0.650703 2.677027 -0.535373 0
M  V30 46 H -1.395057 1.190903 0.086356 0
M  V30 47 H -3.245739 -2.643384 -1.494312 0
M  V30 48 H -4.839031 -3.600029 -2.384426 0
M  V30 49 H -6.473361 -3.921866 -1.590536 0
M  V30 50 H -5.259014 -2.730225 -0.865175 0
M  V30 51 H -3.241131 -6.385349 0.625347 0
M  V30 END ATOM
M  V30 BEGIN BOND
M  V30 1 1 1 2
M  V30 2 1 2 3
M  V30 3 2 3 4
M  V30 4 1 4 5
M  V30 5 1 5 6
M  V30 6 1 6 7
M  V30 7 2 7 8
M  V30 8 1 7 9
M  V30 9 1 9 10
M  V30 10 1 10 11
M  V30 11 1 11 12
M  V30 12 1 12 13
M  V30 13 1 13 14
M  V30 14 2 14 15
M  V30 15 1 15 16
M  V30 16 2 16 17
M  V30 17 1 17 18
M  V30 18 2 18 19
M  V30 19 1 19 20
M  V30 20 1 13 21
M  V30 21 1 21 22
M  V30 22 2 5 23
M  V30 23 1 23 24
M  V30 24 1 24 25
M  V30 25 1 25 26
M  V30 26 2 24 27
M  V30 27 1 27 3
M  V30 28 1 22 10
M  V30 29 1 19 14
M  V30 30 1 1 28
M  V30 31 1 1 29
M  V30 32 1 1 30
M  V30 33 1 4 31
M  V30 34 1 6 32
M  V30 35 1 9 33
M  V30 36 1 9 34
M  V30 37 1 11 35
M  V30 38 1 11 36
M  V30 39 1 12 37
M  V30 40 1 12 38
M  V30 41 1 15 39
M  V30 42 1 16 40
M  V30 43 1 17 41
M  V30 44 1 18 42
M  V30 45 1 21 43
M  V30 46 1 21 44
M  V30 47 1 22 45
M  V30 48 1 22 46
M  V30 49 1 23 47
M  V30 50 1 26 48
M  V30 51 1 26 49
M  V30 52 1 26 50
M  V30 53 1 27 51
M  V30 END BOND
M  V30 END CTAB
M  END
>  <Dataset>  (681) 
ChEMBL_Kinases

>  <Ligand_Instance>  (681) 
nan

>  <PDB_ID>  (681) 
nan

>  <Standardized_SMILES>  (681) 
COc1cc(NC(=O)CN2CCN(c3ccccc3F)CC2)cc(OC)c1

>  <Name>  (681) 
nan

>  <Pocket>  (681) 
nan

>  <ATP_Site>  (681) 
nan

>  <Peripheral>  (681) 
nan

>  <Num_H_Atoms_ProtBoundConf>  (681) 
nan

>  <Num_Resolved_Atoms>  (681) 
nan

>  <Num_Not_Resolved_Atoms>  (681) 
nan

$$$$
CHEMBL1543152
     RDKit          3D

  0  0  0  0  0  0  0  0  0  0999 V3000
M  V30 BEGIN CTAB
M  V30 COUNTS 35 37 0 0 0
M  V30 BEGIN ATOM
M  V30 1 O 0.737999 -3.763139 4.878374 0
M  V30 2 C 0.862878 -3.075307 3.831900 0
M  V30 3 N 1.199662 -1.683905 3.949631 0
M  V30 4 C 1.312541 -1.015489 2.704755 0
M  V30 5 O 1.605875 0.209080 2.814591 0
M  V30 6 C 1.132584 -1.564069 1.375474 0
M  V30 7 C 1.264037 -0.928762 0.241657 0
M  V30 8 C 1.594249 0.393283 -0.239935 0
M  V30 9 C 2.711517 1.050432 0.228446 0
M  V30 10 C 3.066280 2.324899 -0.183261 0
M  V30 11 C 2.256347 2.956695 -1.106506 0
M  V30 12 C 1.127900 2.349329 -1.609727 0
M  V30 13 C 0.806012 1.079054 -1.175478 0
M  V30 14 O -0.302125 0.443100 -1.648742 0
M  V30 15 C -1.398718 0.011022 -0.952138 0
M  V30 16 C -1.659369 0.197173 0.386626 0
M  V30 17 C -2.773892 -0.251504 1.063893 0
M  V30 18 C -3.725276 -0.960078 0.320182 0
M  V30 19 F -4.842094 -1.426119 0.928098 0
M  V30 20 C -3.479487 -1.159538 -1.040511 0
M  V30 21 C -2.334270 -0.682763 -1.671212 0
M  V30 22 C 0.792466 -2.980198 1.344441 0
M  V30 23 O 0.598561 -3.619057 0.255569 0
M  V30 24 N 0.670746 -3.680628 2.563648 0
M  V30 25 H 1.346058 -1.212559 4.866489 0
M  V30 26 H 1.093680 -1.503441 -0.683169 0
M  V30 27 H 3.426754 0.663448 0.932244 0
M  V30 28 H 3.924023 2.889131 0.146153 0
M  V30 29 H 2.422981 3.949567 -1.508023 0
M  V30 30 H 0.453728 2.791526 -2.336199 0
M  V30 31 H -0.936634 0.748016 0.971661 0
M  V30 32 H -2.896933 -0.055573 2.131001 0
M  V30 33 H -4.272832 -1.720901 -1.542645 0
M  V30 34 H -2.314426 -0.934827 -2.739652 0
M  V30 35 H 0.423338 -4.709350 2.531656 0
M  V30 END ATOM
M  V30 BEGIN BOND
M  V30 1 2 1 2
M  V30 2 1 2 3
M  V30 3 1 3 4
M  V30 4 2 4 5
M  V30 5 1 4 6
M  V30 6 2 6 7 CFG=2
M  V30 7 1 7 8
M  V30 8 2 8 9
M  V30 9 1 9 10
M  V30 10 2 10 11
M  V30 11 1 11 12
M  V30 12 2 12 13
M  V30 13 1 13 14
M  V30 14 1 14 15
M  V30 15 2 15 16
M  V30 16 1 16 17
M  V30 17 2 17 18
M  V30 18 1 18 19
M  V30 19 1 18 20
M  V30 20 2 20 21
M  V30 21 1 6 22
M  V30 22 2 22 23
M  V30 23 1 22 24
M  V30 24 1 24 2
M  V30 25 1 13 8
M  V30 26 1 21 15
M  V30 27 1 3 25
M  V30 28 1 7 26
M  V30 29 1 9 27
M  V30 30 1 10 28
M  V30 31 1 11 29
M  V30 32 1 12 30
M  V30 33 1 16 31
M  V30 34 1 17 32
M  V30 35 1 20 33
M  V30 36 1 21 34
M  V30 37 1 24 35
M  V30 END BOND
M  V30 END CTAB
M  END
>  <Dataset>  (682) 
ChEMBL_Kinases

>  <Ligand_Instance>  (682) 
nan

>  <PDB_ID>  (682) 
nan

>  <Standardized_SMILES>  (682) 
O=C1NC(=O)C(=Cc2ccccc2Oc2ccc(F)cc2)C(=O)N1

>  <Name>  (682) 
nan

>  <Pocket>  (682) 
nan

>  <ATP_Site>  (682) 
nan

>  <Peripheral>  (682) 
nan

>  <Num_H_Atoms_ProtBoundConf>  (682) 
nan

>  <Num_Resolved_Atoms>  (682) 
nan

>  <Num_Not_Resolved_Atoms>  (682) 
nan

$$$$
CHEMBL1543314
     RDKit          3D

  0  0  0  0  0  0  0  0  0  0999 V3000
M  V30 BEGIN CTAB
M  V30 COUNTS 57 60 0 0 0
M  V30 BEGIN ATOM
M  V30 1 O 0.009608 0.688935 0.339364 0
M  V30 2 C -0.417594 -0.250859 1.059266 0
M  V30 3 N 0.507563 -0.602789 2.108346 0
M  V30 4 C 1.666183 0.223504 2.037805 0
M  V30 5 C 1.732373 1.421129 2.719553 0
M  V30 6 C 2.848005 2.226220 2.657240 0
M  V30 7 C 3.959058 1.887462 1.915348 0
M  V30 8 N 5.132958 2.682404 1.817765 0
M  V30 9 C 6.328095 2.363498 1.059295 0
M  V30 10 C 6.436106 3.403833 -0.051134 0
M  V30 11 O 5.524392 4.432154 0.115872 0
M  V30 12 C 5.596305 4.982287 1.400998 0
M  V30 13 C 5.302708 3.946448 2.472480 0
M  V30 14 C 3.866807 0.687998 1.245158 0
M  V30 15 C 2.762269 -0.141433 1.287553 0
M  V30 16 C -1.695558 -0.973385 0.930619 0
M  V30 17 C -2.175858 -2.003510 1.712055 0
M  V30 18 C -3.411880 -2.537415 1.406920 0
M  V30 19 C -4.162776 -2.063086 0.347730 0
M  V30 20 S -5.721266 -2.763673 -0.007327 0
M  V30 21 O -6.573841 -1.736311 -0.689230 0
M  V30 22 O -6.431796 -3.265953 1.210583 0
M  V30 23 N -5.461346 -4.078054 -1.123239 0
M  V30 24 C -4.621146 -5.030100 -0.441497 0
M  V30 25 C -4.224081 -6.193229 -1.310939 0
M  V30 26 C -3.796395 -5.793718 -2.689129 0
M  V30 27 C -4.555837 -4.626469 -3.259453 0
M  V30 28 C -4.713176 -3.506597 -2.252246 0
M  V30 29 C -3.690134 -1.036957 -0.434867 0
M  V30 30 C -2.467741 -0.504905 -0.137477 0
M  V30 31 H 0.295205 -1.371323 2.795787 0
M  V30 32 H 0.891965 1.742607 3.319683 0
M  V30 33 H 2.836891 3.146790 3.211130 0
M  V30 34 H 6.346500 1.352325 0.646180 0
M  V30 35 H 7.246441 2.529874 1.686839 0
M  V30 36 H 7.450844 3.811444 -0.159342 0
M  V30 37 H 6.165881 2.912517 -1.020105 0
M  V30 38 H 4.858546 5.815427 1.416889 0
M  V30 39 H 6.618856 5.398108 1.508218 0
M  V30 40 H 6.229275 3.853568 3.115449 0
M  V30 41 H 4.518864 4.252725 3.157673 0
M  V30 42 H 4.646239 0.277331 0.620802 0
M  V30 43 H 2.677264 -1.084602 0.766513 0
M  V30 44 H -1.508175 -2.291227 2.507086 0
M  V30 45 H -3.744441 -3.344666 2.050896 0
M  V30 46 H -3.709929 -4.576056 -0.010072 0
M  V30 47 H -5.197949 -5.444214 0.411936 0
M  V30 48 H -3.338172 -6.691943 -0.829147 0
M  V30 49 H -5.016772 -6.990215 -1.324344 0
M  V30 50 H -4.033025 -6.664989 -3.363534 0
M  V30 51 H -2.691978 -5.609867 -2.776834 0
M  V30 52 H -3.951829 -4.246234 -4.129187 0
M  V30 53 H -5.560491 -4.910009 -3.625802 0
M  V30 54 H -3.719852 -3.124639 -1.935991 0
M  V30 55 H -5.335138 -2.722694 -2.723120 0
M  V30 56 H -4.308688 -0.680051 -1.270333 0
M  V30 57 H -2.156325 0.308832 -0.803598 0
M  V30 END ATOM
M  V30 BEGIN BOND
M  V30 1 2 1 2
M  V30 2 1 2 3
M  V30 3 1 3 4
M  V30 4 2 4 5
M  V30 5 1 5 6
M  V30 6 2 6 7
M  V30 7 1 7 8
M  V30 8 1 8 9
M  V30 9 1 9 10
M  V30 10 1 10 11
M  V30 11 1 11 12
M  V30 12 1 12 13
M  V30 13 1 7 14
M  V30 14 2 14 15
M  V30 15 1 2 16
M  V30 16 2 16 17
M  V30 17 1 17 18
M  V30 18 2 18 19
M  V30 19 1 19 20
M  V30 20 2 20 21
M  V30 21 2 20 22
M  V30 22 1 20 23
M  V30 23 1 23 24
M  V30 24 1 24 25
M  V30 25 1 25 26
M  V30 26 1 26 27
M  V30 27 1 27 28
M  V30 28 1 19 29
M  V30 29 2 29 30
M  V30 30 1 15 4
M  V30 31 1 30 16
M  V30 32 1 13 8
M  V30 33 1 28 23
M  V30 34 1 3 31
M  V30 35 1 5 32
M  V30 36 1 6 33
M  V30 37 1 9 34
M  V30 38 1 9 35
M  V30 39 1 10 36
M  V30 40 1 10 37
M  V30 41 1 12 38
M  V30 42 1 12 39
M  V30 43 1 13 40
M  V30 44 1 13 41
M  V30 45 1 14 42
M  V30 46 1 15 43
M  V30 47 1 17 44
M  V30 48 1 18 45
M  V30 49 1 24 46
M  V30 50 1 24 47
M  V30 51 1 25 48
M  V30 52 1 25 49
M  V30 53 1 26 50
M  V30 54 1 26 51
M  V30 55 1 27 52
M  V30 56 1 27 53
M  V30 57 1 28 54
M  V30 58 1 28 55
M  V30 59 1 29 56
M  V30 60 1 30 57
M  V30 END BOND
M  V30 END CTAB
M  END
>  <Dataset>  (683) 
ChEMBL_Kinases

>  <Ligand_Instance>  (683) 
nan

>  <PDB_ID>  (683) 
nan

>  <Standardized_SMILES>  (683) 
O=C(Nc1ccc(N2CCOCC2)cc1)c1ccc(S(=O)(=O)N2CCCCC2)cc1

>  <Name>  (683) 
nan

>  <Pocket>  (683) 
nan

>  <ATP_Site>  (683) 
nan

>  <Peripheral>  (683) 
nan

>  <Num_H_Atoms_ProtBoundConf>  (683) 
nan

>  <Num_Resolved_Atoms>  (683) 
nan

>  <Num_Not_Resolved_Atoms>  (683) 
nan

$$$$
CHEMBL1543343
     RDKit          3D

  0  0  0  0  0  0  0  0  0  0999 V3000
M  V30 BEGIN CTAB
M  V30 COUNTS 38 41 0 0 0
M  V30 BEGIN ATOM
M  V30 1 O 1.589337 -1.673138 2.738720 0
M  V30 2 C 0.588107 -2.343132 2.456658 0
M  V30 3 N 0.428914 -2.677393 1.049875 0
M  V30 4 C 1.518860 -2.112935 0.370925 0
M  V30 5 C 2.554869 -3.005159 0.393801 0
M  V30 6 C 3.760475 -2.673224 -0.180085 0
M  V30 7 C 3.842246 -1.433713 -0.752106 0
M  V30 8 C 2.761457 -0.594277 -0.736737 0
M  V30 9 C 1.535055 -0.878270 -0.177849 0
M  V30 10 C 0.494919 0.097286 -0.306056 0
M  V30 11 N 0.812545 1.250705 -0.879624 0
M  V30 12 C -0.008596 2.253481 -1.104312 0
M  V30 13 C 0.527050 3.368853 -1.714612 0
M  V30 14 C -0.350998 4.406032 -1.938713 0
M  V30 15 C -1.690276 4.434888 -1.616849 0
M  V30 16 C -2.131985 3.278110 -1.012285 0
M  V30 17 C -1.328489 2.194448 -0.749681 0
M  V30 18 N -1.702843 1.059096 -0.170398 0
M  V30 19 C -0.813101 0.086364 0.023971 0
M  V30 20 O -1.387569 -0.974272 0.616260 0
M  V30 21 C -0.476968 -2.855449 3.355134 0
M  V30 22 C -0.557238 -2.685123 4.672456 0
M  V30 23 C -1.596384 -3.211851 5.388287 0
M  V30 24 C -2.548942 -3.934449 4.610498 0
M  V30 25 S -1.875519 -3.803491 2.888309 0
M  V30 26 H -0.335607 -3.264871 0.613196 0
M  V30 27 H 2.548773 -3.997023 0.829913 0
M  V30 28 H 4.641529 -3.293495 -0.221898 0
M  V30 29 H 4.754292 -1.116484 -1.215424 0
M  V30 30 H 2.945028 0.365397 -1.221849 0
M  V30 31 H 1.565342 3.409857 -1.991230 0
M  V30 32 H 0.074097 5.293908 -2.424098 0
M  V30 33 H -2.325670 5.284112 -1.821209 0
M  V30 34 H -3.182422 3.189533 -0.712315 0
M  V30 35 H -2.119298 -1.571076 0.289090 0
M  V30 36 H 0.212395 -2.114743 5.220419 0
M  V30 37 H -1.769131 -3.141117 6.454020 0
M  V30 38 H -3.479535 -4.438518 5.057975 0
M  V30 END ATOM
M  V30 BEGIN BOND
M  V30 1 2 1 2
M  V30 2 1 2 3
M  V30 3 1 3 4
M  V30 4 2 4 5
M  V30 5 1 5 6
M  V30 6 2 6 7
M  V30 7 1 7 8
M  V30 8 2 8 9
M  V30 9 1 9 10
M  V30 10 2 10 11
M  V30 11 1 11 12
M  V30 12 2 12 13
M  V30 13 1 13 14
M  V30 14 2 14 15
M  V30 15 1 15 16
M  V30 16 2 16 17
M  V30 17 1 17 18
M  V30 18 2 18 19
M  V30 19 1 19 20
M  V30 20 1 2 21
M  V30 21 2 21 22
M  V30 22 1 22 23
M  V30 23 2 23 24
M  V30 24 1 24 25
M  V30 25 1 9 4
M  V30 26 1 19 10
M  V30 27 1 25 21
M  V30 28 1 17 12
M  V30 29 1 3 26
M  V30 30 1 5 27
M  V30 31 1 6 28
M  V30 32 1 7 29
M  V30 33 1 8 30
M  V30 34 1 13 31
M  V30 35 1 14 32
M  V30 36 1 15 33
M  V30 37 1 16 34
M  V30 38 1 20 35
M  V30 39 1 22 36
M  V30 40 1 23 37
M  V30 41 1 24 38
M  V30 END BOND
M  V30 END CTAB
M  END
>  <Dataset>  (684) 
ChEMBL_Kinases

>  <Ligand_Instance>  (684) 
nan

>  <PDB_ID>  (684) 
nan

>  <Standardized_SMILES>  (684) 
O=C(Nc1ccccc1-c1nc2ccccc2nc1O)c1cccs1

>  <Name>  (684) 
nan

>  <Pocket>  (684) 
nan

>  <ATP_Site>  (684) 
nan

>  <Peripheral>  (684) 
nan

>  <Num_H_Atoms_ProtBoundConf>  (684) 
nan

>  <Num_Resolved_Atoms>  (684) 
nan

>  <Num_Not_Resolved_Atoms>  (684) 
nan

$$$$
CHEMBL1543402
     RDKit          3D

  0  0  0  0  0  0  0  0  0  0999 V3000
M  V30 BEGIN CTAB
M  V30 COUNTS 39 40 0 0 0
M  V30 BEGIN ATOM
M  V30 1 C 0.512467 -4.453757 1.754216 0
M  V30 2 C 0.488277 -4.724238 0.426087 0
M  V30 3 C -0.549477 -5.800291 0.494078 0
M  V30 4 C 0.952488 -4.445729 -0.951978 0
M  V30 5 S 2.066512 -3.080325 -1.044402 0
M  V30 6 C 1.360234 -1.469078 -0.825650 0
M  V30 7 N 0.860544 -1.076678 -2.033960 0
M  V30 8 C 0.258726 0.130849 -2.213871 0
M  V30 9 N -0.279202 0.580981 -3.474134 0
M  V30 10 C 0.107753 1.047757 -1.194529 0
M  V30 11 C -0.521401 2.321447 -1.364661 0
M  V30 12 N -1.046173 3.358120 -1.485628 0
M  V30 13 C 0.622921 0.624413 0.015989 0
M  V30 14 C 0.525908 1.484013 1.189773 0
M  V30 15 C 1.351969 2.456192 1.712633 0
M  V30 16 C 0.993981 3.116961 2.857321 0
M  V30 17 C -0.175528 2.856539 3.533309 0
M  V30 18 C -0.534075 3.586987 4.766418 0
M  V30 19 C -1.023654 1.874630 3.018039 0
M  V30 20 C -0.672426 1.192851 1.850601 0
M  V30 21 C 1.234140 -0.592527 0.209937 0
M  V30 22 C 1.824848 -1.044088 1.410167 0
M  V30 23 N 2.321242 -1.398503 2.394919 0
M  V30 24 H -0.215511 -5.134741 2.175785 0
M  V30 25 H 1.249690 -3.735349 1.476986 0
M  V30 26 H -1.529768 -5.389023 0.827365 0
M  V30 27 H -0.683187 -6.206380 -0.531540 0
M  V30 28 H -0.226045 -6.663011 1.116022 0
M  V30 29 H 0.077809 -4.351215 -1.649819 0
M  V30 30 H 1.529429 -5.373347 -1.256768 0
M  V30 31 H -1.118397 0.532517 -4.059390 0
M  V30 32 H 0.309099 1.170538 -4.102303 0
M  V30 33 H 2.232171 2.567386 1.101951 0
M  V30 34 H 1.703605 3.870486 3.205098 0
M  V30 35 H -0.318452 4.673854 4.643296 0
M  V30 36 H -0.078615 3.202720 5.679100 0
M  V30 37 H -1.648581 3.476213 4.901944 0
M  V30 38 H -1.932975 1.705164 3.582079 0
M  V30 39 H -1.443382 0.466857 1.591634 0
M  V30 END ATOM
M  V30 BEGIN BOND
M  V30 1 2 1 2
M  V30 2 1 2 3
M  V30 3 1 2 4
M  V30 4 1 4 5
M  V30 5 1 5 6
M  V30 6 2 6 7
M  V30 7 1 7 8
M  V30 8 1 8 9
M  V30 9 2 8 10
M  V30 10 1 10 11
M  V30 11 3 11 12
M  V30 12 1 10 13
M  V30 13 1 13 14
M  V30 14 2 14 15
M  V30 15 1 15 16
M  V30 16 2 16 17
M  V30 17 1 17 18
M  V30 18 1 17 19
M  V30 19 2 19 20
M  V30 20 2 13 21
M  V30 21 1 21 22
M  V30 22 3 22 23
M  V30 23 1 21 6
M  V30 24 1 20 14
M  V30 25 1 1 24
M  V30 26 1 1 25
M  V30 27 1 3 26
M  V30 28 1 3 27
M  V30 29 1 3 28
M  V30 30 1 4 29
M  V30 31 1 4 30
M  V30 32 1 9 31
M  V30 33 1 9 32
M  V30 34 1 15 33
M  V30 35 1 16 34
M  V30 36 1 18 35
M  V30 37 1 18 36
M  V30 38 1 18 37
M  V30 39 1 19 38
M  V30 40 1 20 39
M  V30 END BOND
M  V30 END CTAB
M  END
>  <Dataset>  (685) 
ChEMBL_Kinases

>  <Ligand_Instance>  (685) 
nan

>  <PDB_ID>  (685) 
nan

>  <Standardized_SMILES>  (685) 
C=C(C)CSc1nc(N)c(C#N)c(-c2ccc(C)cc2)c1C#N

>  <Name>  (685) 
nan

>  <Pocket>  (685) 
nan

>  <ATP_Site>  (685) 
nan

>  <Peripheral>  (685) 
nan

>  <Num_H_Atoms_ProtBoundConf>  (685) 
nan

>  <Num_Resolved_Atoms>  (685) 
nan

>  <Num_Not_Resolved_Atoms>  (685) 
nan

$$$$
CHEMBL1543571
     RDKit          3D

  0  0  0  0  0  0  0  0  0  0999 V3000
M  V30 BEGIN CTAB
M  V30 COUNTS 57 59 0 0 0
M  V30 BEGIN ATOM
M  V30 1 C 2.605303 -2.924524 3.045601 0
M  V30 2 O 2.650761 -2.063214 1.900827 0
M  V30 3 C 3.641128 -2.380410 0.979112 0
M  V30 4 O 4.362793 -3.385325 1.281864 0
M  V30 5 C 3.826983 -1.611522 -0.235924 0
M  V30 6 C 4.829683 -1.976208 -1.107105 0
M  V30 7 C 4.985567 -1.225072 -2.256979 0
M  V30 8 C 4.142251 -0.140469 -2.501328 0
M  V30 9 C 3.138326 0.225089 -1.629283 0
M  V30 10 C 3.001592 -0.538419 -0.489196 0
M  V30 11 N 1.962976 -0.155096 0.404709 0
M  V30 12 C 2.373521 0.789976 1.383010 0
M  V30 13 O 3.613638 1.118003 1.273124 0
M  V30 14 C 1.821771 1.549770 2.531257 0
M  V30 15 N 0.485870 1.373332 2.856764 0
M  V30 16 C -0.559656 1.820682 2.042101 0
M  V30 17 C -1.939994 1.470089 2.593169 0
M  V30 18 C -2.078447 -0.027366 2.547643 0
M  V30 19 N -2.224394 -0.400855 1.132630 0
M  V30 20 C -3.415801 -0.979355 0.663056 0
M  V30 21 O -4.323102 -1.147453 1.528671 0
M  V30 22 C -3.633647 -1.375475 -0.726722 0
M  V30 23 C -2.693533 -1.231844 -1.742404 0
M  V30 24 C -3.020003 -1.646812 -3.027776 0
M  V30 25 C -4.237390 -2.198042 -3.351328 0
M  V30 26 C -4.583729 -2.641382 -4.729152 0
M  V30 27 C -5.178327 -2.345766 -2.353121 0
M  V30 28 C -4.844410 -1.931012 -1.081761 0
M  V30 29 C -0.846571 -0.650929 3.143936 0
M  V30 30 C 0.083690 0.364853 3.770993 0
M  V30 31 H 2.589565 -3.987872 2.721678 0
M  V30 32 H 3.455983 -2.682219 3.714278 0
M  V30 33 H 1.696822 -2.634578 3.609841 0
M  V30 34 H 5.482244 -2.801305 -0.936226 0
M  V30 35 H 5.767994 -1.497114 -2.953917 0
M  V30 36 H 4.357435 0.381404 -3.441686 0
M  V30 37 H 2.520204 1.076728 -1.879539 0
M  V30 38 H 0.953785 -0.354835 0.582803 0
M  V30 39 H 1.966533 2.648741 2.251437 0
M  V30 40 H 2.444095 1.351900 3.452384 0
M  V30 41 H -0.600985 2.934702 1.910982 0
M  V30 42 H -0.515646 1.419575 1.012936 0
M  V30 43 H -2.655791 1.949890 1.862747 0
M  V30 44 H -2.108535 1.909303 3.597085 0
M  V30 45 H -3.004100 -0.313309 3.103499 0
M  V30 46 H -1.465474 -0.257390 0.436733 0
M  V30 47 H -1.743651 -0.803818 -1.499232 0
M  V30 48 H -2.267408 -1.520965 -3.792486 0
M  V30 49 H -5.343215 -1.960160 -5.166737 0
M  V30 50 H -4.947012 -3.686848 -4.618936 0
M  V30 51 H -3.690391 -2.644067 -5.387295 0
M  V30 52 H -6.133942 -2.774660 -2.592287 0
M  V30 53 H -5.619143 -2.071510 -0.344282 0
M  V30 54 H -1.201006 -1.361538 3.924721 0
M  V30 55 H -0.290756 -1.261375 2.395245 0
M  V30 56 H 0.933146 -0.156998 4.264907 0
M  V30 57 H -0.465585 0.849321 4.616048 0
M  V30 END ATOM
M  V30 BEGIN BOND
M  V30 1 1 1 2
M  V30 2 1 2 3
M  V30 3 2 3 4
M  V30 4 1 3 5
M  V30 5 2 5 6
M  V30 6 1 6 7
M  V30 7 2 7 8
M  V30 8 1 8 9
M  V30 9 2 9 10
M  V30 10 1 10 11
M  V30 11 1 11 12
M  V30 12 2 12 13
M  V30 13 1 12 14
M  V30 14 1 14 15
M  V30 15 1 15 16
M  V30 16 1 16 17
M  V30 17 1 17 18
M  V30 18 1 18 19
M  V30 19 1 19 20
M  V30 20 2 20 21
M  V30 21 1 20 22
M  V30 22 2 22 23
M  V30 23 1 23 24
M  V30 24 2 24 25
M  V30 25 1 25 26
M  V30 26 1 25 27
M  V30 27 2 27 28
M  V30 28 1 18 29
M  V30 29 1 29 30
M  V30 30 1 10 5
M  V30 31 1 30 15
M  V30 32 1 28 22
M  V30 33 1 1 31
M  V30 34 1 1 32
M  V30 35 1 1 33
M  V30 36 1 6 34
M  V30 37 1 7 35
M  V30 38 1 8 36
M  V30 39 1 9 37
M  V30 40 1 11 38
M  V30 41 1 14 39
M  V30 42 1 14 40
M  V30 43 1 16 41
M  V30 44 1 16 42
M  V30 45 1 17 43
M  V30 46 1 17 44
M  V30 47 1 18 45
M  V30 48 1 19 46
M  V30 49 1 23 47
M  V30 50 1 24 48
M  V30 51 1 26 49
M  V30 52 1 26 50
M  V30 53 1 26 51
M  V30 54 1 27 52
M  V30 55 1 28 53
M  V30 56 1 29 54
M  V30 57 1 29 55
M  V30 58 1 30 56
M  V30 59 1 30 57
M  V30 END BOND
M  V30 END CTAB
M  END
>  <Dataset>  (686) 
ChEMBL_Kinases

>  <Ligand_Instance>  (686) 
nan

>  <PDB_ID>  (686) 
nan

>  <Standardized_SMILES>  (686) 
COC(=O)c1ccccc1NC(=O)CN1CCC(NC(=O)c2ccc(C)cc2)CC1

>  <Name>  (686) 
nan

>  <Pocket>  (686) 
nan

>  <ATP_Site>  (686) 
nan

>  <Peripheral>  (686) 
nan

>  <Num_H_Atoms_ProtBoundConf>  (686) 
nan

>  <Num_Resolved_Atoms>  (686) 
nan

>  <Num_Not_Resolved_Atoms>  (686) 
nan

$$$$
CHEMBL1543611
     RDKit          3D

  0  0  0  0  0  0  0  0  0  0999 V3000
M  V30 BEGIN CTAB
M  V30 COUNTS 33 37 0 0 0
M  V30 BEGIN ATOM
M  V30 1 C -0.072448 -4.844858 2.729493 0
M  V30 2 C -0.392861 -3.934465 3.730441 0
M  V30 3 O -0.206486 -2.705638 3.253065 0
M  V30 4 C 0.209156 -2.780530 2.020578 0
M  V30 5 C 0.511207 -1.615727 1.198184 0
M  V30 6 N 1.725407 -1.345968 0.681807 0
M  V30 7 C 1.927162 -0.239243 -0.075246 0
M  V30 8 N 2.986708 0.292267 -0.712861 0
M  V30 9 C 2.608804 1.436739 -1.328597 0
M  V30 10 C 3.375835 2.312477 -2.100603 0
M  V30 11 C 2.669594 3.393377 -2.582536 0
M  V30 12 C 1.331838 3.668634 -2.375432 0
M  V30 13 C 0.651033 2.748849 -1.600279 0
M  V30 14 C 1.268236 1.621247 -1.063404 0
M  V30 15 N 0.870023 0.585984 -0.295722 0
M  V30 16 N -0.334600 0.339011 0.203596 0
M  V30 17 C -0.557454 -0.768515 0.967063 0
M  V30 18 C -1.921919 -0.929737 1.457102 0
M  V30 19 C -2.620697 -2.052149 1.029642 0
M  V30 20 C -3.884528 -2.013185 1.606356 0
M  V30 21 C -3.875962 -0.852353 2.360079 0
M  V30 22 O -2.720408 -0.244049 2.252891 0
M  V30 23 C 0.314331 -4.106776 1.630682 0
M  V30 24 H -0.133912 -5.913564 2.848428 0
M  V30 25 H -0.738681 -4.109007 4.741741 0
M  V30 26 H 4.408442 2.155034 -2.295293 0
M  V30 27 H 3.231651 4.108151 -3.194350 0
M  V30 28 H 0.881893 4.540064 -2.798060 0
M  V30 29 H -0.389254 2.882136 -1.388303 0
M  V30 30 H -2.383016 -2.895829 0.375573 0
M  V30 31 H -4.720968 -2.715036 1.513087 0
M  V30 32 H -4.702791 -0.485315 2.960391 0
M  V30 33 H 0.625645 -4.514097 0.685596 0
M  V30 END ATOM
M  V30 BEGIN BOND
M  V30 1 2 1 2
M  V30 2 1 2 3
M  V30 3 1 3 4
M  V30 4 1 4 5
M  V30 5 2 5 6
M  V30 6 1 6 7
M  V30 7 2 7 8
M  V30 8 1 8 9
M  V30 9 2 9 10
M  V30 10 1 10 11
M  V30 11 2 11 12
M  V30 12 1 12 13
M  V30 13 2 13 14
M  V30 14 1 14 15
M  V30 15 1 15 16
M  V30 16 2 16 17
M  V30 17 1 17 18
M  V30 18 2 18 19
M  V30 19 1 19 20
M  V30 20 2 20 21
M  V30 21 1 21 22
M  V30 22 2 4 23
M  V30 23 1 23 1
M  V30 24 1 17 5
M  V30 25 1 22 18
M  V30 26 1 15 7
M  V30 27 1 14 9
M  V30 28 1 1 24
M  V30 29 1 2 25
M  V30 30 1 10 26
M  V30 31 1 11 27
M  V30 32 1 12 28
M  V30 33 1 13 29
M  V30 34 1 19 30
M  V30 35 1 20 31
M  V30 36 1 21 32
M  V30 37 1 23 33
M  V30 END BOND
M  V30 END CTAB
M  END
>  <Dataset>  (687) 
ChEMBL_Kinases

>  <Ligand_Instance>  (687) 
nan

>  <PDB_ID>  (687) 
nan

>  <Standardized_SMILES>  (687) 
c1coc(-c2nc3nc4ccccc4n3nc2-c2ccco2)c1

>  <Name>  (687) 
nan

>  <Pocket>  (687) 
nan

>  <ATP_Site>  (687) 
nan

>  <Peripheral>  (687) 
nan

>  <Num_H_Atoms_ProtBoundConf>  (687) 
nan

>  <Num_Resolved_Atoms>  (687) 
nan

>  <Num_Not_Resolved_Atoms>  (687) 
nan

$$$$
CHEMBL1543010
     RDKit          3D

  0  0  0  0  0  0  0  0  0  0999 V3000
M  V30 BEGIN CTAB
M  V30 COUNTS 43 45 0 0 0
M  V30 BEGIN ATOM
M  V30 1 C 1.663962 -5.675948 3.120861 0
M  V30 2 C 1.865517 -4.281303 2.666312 0
M  V30 3 C 1.886031 -3.225904 3.570649 0
M  V30 4 C 2.078883 -1.921827 3.104160 0
M  V30 5 C 2.244535 -1.719663 1.748134 0
M  V30 6 N 2.448492 -0.457682 1.132896 0
M  V30 7 C 3.585603 0.138615 0.736150 0
M  V30 8 O 4.825436 -0.457027 0.890404 0
M  V30 9 N 3.273716 1.351911 0.196402 0
M  V30 10 C 1.938467 1.524210 0.251287 0
M  V30 11 C 1.028695 2.490469 -0.111180 0
M  V30 12 C 1.534166 3.709982 -0.737125 0
M  V30 13 N 0.682305 4.767770 -1.148652 0
M  V30 14 O 2.777713 3.837975 -0.924062 0
M  V30 15 N -0.296126 2.360786 0.084887 0
M  V30 16 C -0.794453 1.237248 0.664905 0
M  V30 17 C -2.236047 0.990537 0.927993 0
M  V30 18 C -2.886915 0.292589 -0.270311 0
M  V30 19 C -2.237478 -1.019361 -0.550058 0
M  V30 20 C -4.371859 0.255992 -0.114158 0
M  V30 21 N 0.097701 0.293586 1.018523 0
M  V30 22 C 1.427067 0.400255 0.832834 0
M  V30 23 C 2.226283 -2.757318 0.840880 0
M  V30 24 C 2.033846 -4.064834 1.299870 0
M  V30 25 H 1.269415 -5.660794 4.159920 0
M  V30 26 H 0.855735 -6.153609 2.493507 0
M  V30 27 H 2.576753 -6.279389 3.061763 0
M  V30 28 H 1.757871 -3.387482 4.614353 0
M  V30 29 H 2.106229 -1.052396 3.750388 0
M  V30 30 H 5.565033 -0.460193 0.198593 0
M  V30 31 H 0.261356 4.656632 -2.112499 0
M  V30 32 H 0.431953 5.637480 -0.599096 0
M  V30 33 H -2.320466 0.282303 1.768034 0
M  V30 34 H -2.707630 1.955850 1.114752 0
M  V30 35 H -2.647599 0.958540 -1.144801 0
M  V30 36 H -1.364446 -0.927612 -1.236451 0
M  V30 37 H -1.809572 -1.377590 0.429662 0
M  V30 38 H -2.924125 -1.808361 -0.895787 0
M  V30 39 H -4.782686 1.224769 -0.463753 0
M  V30 40 H -4.763686 -0.547852 -0.762251 0
M  V30 41 H -4.693978 0.035132 0.925328 0
M  V30 42 H 2.351256 -2.654999 -0.234393 0
M  V30 43 H 2.018016 -4.890866 0.589919 0
M  V30 END ATOM
M  V30 BEGIN BOND
M  V30 1 1 1 2
M  V30 2 2 2 3
M  V30 3 1 3 4
M  V30 4 2 4 5
M  V30 5 1 5 6
M  V30 6 1 6 7
M  V30 7 1 7 8
M  V30 8 2 7 9
M  V30 9 1 9 10
M  V30 10 2 10 11
M  V30 11 1 11 12
M  V30 12 1 12 13
M  V30 13 2 12 14
M  V30 14 1 11 15
M  V30 15 2 15 16
M  V30 16 1 16 17
M  V30 17 1 17 18
M  V30 18 1 18 19
M  V30 19 1 18 20
M  V30 20 1 16 21
M  V30 21 2 21 22
M  V30 22 1 5 23
M  V30 23 2 23 24
M  V30 24 1 24 2
M  V30 25 1 22 6
M  V30 26 1 22 10
M  V30 27 1 1 25
M  V30 28 1 1 26
M  V30 29 1 1 27
M  V30 30 1 3 28
M  V30 31 1 4 29
M  V30 32 1 8 30
M  V30 33 1 13 31
M  V30 34 1 13 32
M  V30 35 1 17 33
M  V30 36 1 17 34
M  V30 37 1 18 35
M  V30 38 1 19 36
M  V30 39 1 19 37
M  V30 40 1 19 38
M  V30 41 1 20 39
M  V30 42 1 20 40
M  V30 43 1 20 41
M  V30 44 1 23 42
M  V30 45 1 24 43
M  V30 END BOND
M  V30 END CTAB
M  END
>  <Dataset>  (688) 
ChEMBL_Kinases

>  <Ligand_Instance>  (688) 
nan

>  <PDB_ID>  (688) 
nan

>  <Standardized_SMILES>  (688) 
Cc1ccc(-n2c(O)nc3c(C(N)=O)nc(CC(C)C)nc32)cc1

>  <Name>  (688) 
nan

>  <Pocket>  (688) 
nan

>  <ATP_Site>  (688) 
nan

>  <Peripheral>  (688) 
nan

>  <Num_H_Atoms_ProtBoundConf>  (688) 
nan

>  <Num_Resolved_Atoms>  (688) 
nan

>  <Num_Not_Resolved_Atoms>  (688) 
nan

$$$$
CHEMBL1533245
     RDKit          3D

  0  0  0  0  0  0  0  0  0  0999 V3000
M  V30 BEGIN CTAB
M  V30 COUNTS 57 60 0 0 0
M  V30 BEGIN ATOM
M  V30 1 C 1.273642 0.119171 4.111566 0
M  V30 2 O 1.834116 -0.063327 2.845607 0
M  V30 3 C 2.659514 -1.081269 2.443444 0
M  V30 4 C 3.017371 -2.068523 3.334545 0
M  V30 5 C 3.850537 -3.054346 2.847222 0
M  V30 6 C 4.344518 -3.129837 1.564927 0
M  V30 7 C 3.942792 -2.100011 0.717692 0
M  V30 8 C 3.104530 -1.065418 1.124567 0
M  V30 9 N 2.758671 -0.067572 0.177954 0
M  V30 10 C 3.085010 1.337220 0.391021 0
M  V30 11 C 2.400246 2.112145 -0.699190 0
M  V30 12 N 1.024784 1.712987 -0.781531 0
M  V30 13 C 0.195755 2.164653 0.263391 0
M  V30 14 C -1.232761 1.758663 0.189646 0
M  V30 15 N -2.082330 2.575599 -0.464596 0
M  V30 16 C -3.406829 2.282245 -0.581207 0
M  V30 17 N -4.351894 3.103342 -1.258390 0
M  V30 18 N -3.889216 1.145122 -0.029731 0
M  V30 19 C -3.051176 0.323388 0.624790 0
M  V30 20 N -3.383811 -0.902475 1.259317 0
M  V30 21 C -3.281493 -2.055360 0.422036 0
M  V30 22 C -2.884170 -1.962919 -0.906771 0
M  V30 23 C -2.759436 -3.012989 -1.777370 0
M  V30 24 C -3.055227 -4.284495 -1.293616 0
M  V30 25 C -2.934924 -5.445741 -2.195631 0
M  V30 26 C -3.455760 -4.435660 0.021500 0
M  V30 27 C -3.562911 -3.337955 0.851681 0
M  V30 28 N -1.728744 0.616775 0.740954 0
M  V30 29 C 0.807144 0.396454 -1.266754 0
M  V30 30 C 2.066118 -0.415356 -1.037678 0
M  V30 31 H 1.909733 0.749399 4.770619 0
M  V30 32 H 0.283900 0.632992 3.942132 0
M  V30 33 H 1.047640 -0.863595 4.569816 0
M  V30 34 H 2.671366 -2.080193 4.358684 0
M  V30 35 H 4.120051 -3.827146 3.575343 0
M  V30 36 H 4.989093 -3.918279 1.238066 0
M  V30 37 H 4.320455 -2.135556 -0.305836 0
M  V30 38 H 2.608262 1.624021 1.352216 0
M  V30 39 H 4.178986 1.510596 0.414918 0
M  V30 40 H 2.427895 3.197476 -0.460999 0
M  V30 41 H 2.915107 1.933556 -1.665487 0
M  V30 42 H 0.234132 3.260389 0.331690 0
M  V30 43 H 0.571356 1.768360 1.229415 0
M  V30 44 H -5.166762 3.558891 -0.790408 0
M  V30 45 H -4.475417 3.425910 -2.243828 0
M  V30 46 H -3.687946 -1.074675 2.237577 0
M  V30 47 H -2.647022 -0.991505 -1.314857 0
M  V30 48 H -2.443765 -2.865858 -2.802114 0
M  V30 49 H -3.784434 -6.160313 -2.040771 0
M  V30 50 H -1.970378 -5.971390 -2.097160 0
M  V30 51 H -3.030444 -5.118775 -3.267075 0
M  V30 52 H -3.668804 -5.435655 0.334449 0
M  V30 53 H -3.877051 -3.493269 1.867743 0
M  V30 54 H 0.674135 0.437027 -2.369637 0
M  V30 55 H -0.064521 -0.132215 -0.874415 0
M  V30 56 H 1.820260 -1.479063 -1.065631 0
M  V30 57 H 2.802121 -0.229391 -1.872754 0
M  V30 END ATOM
M  V30 BEGIN BOND
M  V30 1 1 1 2
M  V30 2 1 2 3
M  V30 3 2 3 4
M  V30 4 1 4 5
M  V30 5 2 5 6
M  V30 6 1 6 7
M  V30 7 2 7 8
M  V30 8 1 8 9
M  V30 9 1 9 10
M  V30 10 1 10 11
M  V30 11 1 11 12
M  V30 12 1 12 13
M  V30 13 1 13 14
M  V30 14 2 14 15
M  V30 15 1 15 16
M  V30 16 1 16 17
M  V30 17 2 16 18
M  V30 18 1 18 19
M  V30 19 1 19 20
M  V30 20 1 20 21
M  V30 21 2 21 22
M  V30 22 1 22 23
M  V30 23 2 23 24
M  V30 24 1 24 25
M  V30 25 1 24 26
M  V30 26 2 26 27
M  V30 27 2 19 28
M  V30 28 1 12 29
M  V30 29 1 29 30
M  V30 30 1 8 3
M  V30 31 1 30 9
M  V30 32 1 28 14
M  V30 33 1 27 21
M  V30 34 1 1 31
M  V30 35 1 1 32
M  V30 36 1 1 33
M  V30 37 1 4 34
M  V30 38 1 5 35
M  V30 39 1 6 36
M  V30 40 1 7 37
M  V30 41 1 10 38
M  V30 42 1 10 39
M  V30 43 1 11 40
M  V30 44 1 11 41
M  V30 45 1 13 42
M  V30 46 1 13 43
M  V30 47 1 17 44
M  V30 48 1 17 45
M  V30 49 1 20 46
M  V30 50 1 22 47
M  V30 51 1 23 48
M  V30 52 1 25 49
M  V30 53 1 25 50
M  V30 54 1 25 51
M  V30 55 1 26 52
M  V30 56 1 27 53
M  V30 57 1 29 54
M  V30 58 1 29 55
M  V30 59 1 30 56
M  V30 60 1 30 57
M  V30 END BOND
M  V30 END CTAB
M  END
>  <Dataset>  (689) 
ChEMBL_Kinases

>  <Ligand_Instance>  (689) 
nan

>  <PDB_ID>  (689) 
nan

>  <Standardized_SMILES>  (689) 
COc1ccccc1N1CCN(Cc2nc(N)nc(Nc3ccc(C)cc3)n2)CC1

>  <Name>  (689) 
nan

>  <Pocket>  (689) 
nan

>  <ATP_Site>  (689) 
nan

>  <Peripheral>  (689) 
nan

>  <Num_H_Atoms_ProtBoundConf>  (689) 
nan

>  <Num_Resolved_Atoms>  (689) 
nan

>  <Num_Not_Resolved_Atoms>  (689) 
nan

$$$$
CHEMBL1533214
     RDKit          3D

  0  0  0  0  0  0  0  0  0  0999 V3000
M  V30 BEGIN CTAB
M  V30 COUNTS 50 54 0 0 0
M  V30 BEGIN ATOM
M  V30 1 C -0.731414 -4.880092 2.180366 0
M  V30 2 C 0.499638 -5.749610 2.116923 0
M  V30 3 N 1.262645 -5.542487 0.887729 0
M  V30 4 C 1.452577 -4.124134 1.004173 0
M  V30 5 N 2.294128 -3.494877 1.825733 0
M  V30 6 C 2.380307 -2.152001 1.834082 0
M  V30 7 C 1.541625 -1.485656 0.934885 0
M  V30 8 N 1.612536 -0.145150 0.925769 0
M  V30 9 C 0.839515 0.605021 0.085151 0
M  V30 10 C 1.018618 2.037260 0.246012 0
M  V30 11 C 1.440124 3.114565 -0.523731 0
M  V30 12 N 1.399647 4.224155 0.222191 0
M  V30 13 C 1.759943 5.575627 -0.171496 0
M  V30 14 C 0.972826 3.995477 1.475459 0
M  V30 15 C 0.732353 4.715080 2.624144 0
M  V30 16 C 0.266404 4.170780 3.798893 0
M  V30 17 C 0.016367 2.797112 3.847768 0
M  V30 18 C 0.260284 2.095722 2.697561 0
M  V30 19 C 0.729853 2.615737 1.496460 0
M  V30 20 C -0.029399 -0.039035 -0.769256 0
M  V30 21 O -0.716843 0.682883 -1.524479 0
M  V30 22 N -0.084354 -1.372159 -0.740329 0
M  V30 23 C -1.004276 -2.078973 -1.559682 0
M  V30 24 C -2.147374 -2.176418 -0.737346 0
M  V30 25 C -3.327886 -2.808427 -1.134977 0
M  V30 26 C -3.364005 -3.357013 -2.388726 0
M  V30 27 C -2.258341 -3.271534 -3.207942 0
M  V30 28 C -1.096667 -2.647018 -2.809680 0
M  V30 29 C 0.679128 -2.139360 0.091422 0
M  V30 30 N 0.658753 -3.460742 0.151663 0
M  V30 31 H -1.264856 -4.935387 1.214039 0
M  V30 32 H -0.457588 -3.798147 2.312119 0
M  V30 33 H -1.344997 -5.266941 3.029717 0
M  V30 34 H 0.145894 -6.813456 2.088546 0
M  V30 35 H 1.156571 -5.628723 3.001987 0
M  V30 36 H 1.505834 -6.315560 0.233611 0
M  V30 37 H 3.071474 -1.643811 2.500917 0
M  V30 38 H 1.720784 2.957490 -1.540780 0
M  V30 39 H 2.439133 5.601268 -1.063256 0
M  V30 40 H 2.386459 6.032556 0.651971 0
M  V30 41 H 0.893801 6.232016 -0.344220 0
M  V30 42 H 0.932497 5.788254 2.583267 0
M  V30 43 H 0.109582 4.836300 4.646732 0
M  V30 44 H -0.351609 2.350101 4.758365 0
M  V30 45 H 0.040490 1.018707 2.809148 0
M  V30 46 H -2.325053 -1.809885 0.286941 0
M  V30 47 H -4.247600 -2.932262 -0.584118 0
M  V30 48 H -4.249649 -3.875205 -2.796401 0
M  V30 49 H -2.169085 -3.662802 -4.210462 0
M  V30 50 H -0.147274 -2.480685 -3.287595 0
M  V30 END ATOM
M  V30 BEGIN BOND
M  V30 1 1 1 2
M  V30 2 1 2 3
M  V30 3 1 3 4
M  V30 4 2 4 5
M  V30 5 1 5 6
M  V30 6 2 6 7
M  V30 7 1 7 8
M  V30 8 2 8 9
M  V30 9 1 9 10
M  V30 10 2 10 11
M  V30 11 1 11 12
M  V30 12 1 12 13
M  V30 13 1 12 14
M  V30 14 2 14 15
M  V30 15 1 15 16
M  V30 16 2 16 17
M  V30 17 1 17 18
M  V30 18 2 18 19
M  V30 19 1 9 20
M  V30 20 2 20 21
M  V30 21 1 20 22
M  V30 22 1 22 23
M  V30 23 2 23 24
M  V30 24 1 24 25
M  V30 25 2 25 26
M  V30 26 1 26 27
M  V30 27 2 27 28
M  V30 28 1 22 29
M  V30 29 2 29 30
M  V30 30 1 30 4
M  V30 31 1 29 7
M  V30 32 1 19 10
M  V30 33 1 28 23
M  V30 34 1 19 14
M  V30 35 1 1 31
M  V30 36 1 1 32
M  V30 37 1 1 33
M  V30 38 1 2 34
M  V30 39 1 2 35
M  V30 40 1 3 36
M  V30 41 1 6 37
M  V30 42 1 11 38
M  V30 43 1 13 39
M  V30 44 1 13 40
M  V30 45 1 13 41
M  V30 46 1 15 42
M  V30 47 1 16 43
M  V30 48 1 17 44
M  V30 49 1 18 45
M  V30 50 1 24 46
M  V30 51 1 25 47
M  V30 52 1 26 48
M  V30 53 1 27 49
M  V30 54 1 28 50
M  V30 END BOND
M  V30 END CTAB
M  END
>  <Dataset>  (690) 
ChEMBL_Kinases

>  <Ligand_Instance>  (690) 
nan

>  <PDB_ID>  (690) 
nan

>  <Standardized_SMILES>  (690) 
CCNc1ncc2nc(-c3cn(C)c4ccccc34)c(=O)n(-c3ccccc3)c2n1

>  <Name>  (690) 
nan

>  <Pocket>  (690) 
nan

>  <ATP_Site>  (690) 
nan

>  <Peripheral>  (690) 
nan

>  <Num_H_Atoms_ProtBoundConf>  (690) 
nan

>  <Num_Resolved_Atoms>  (690) 
nan

>  <Num_Not_Resolved_Atoms>  (690) 
nan

$$$$
CHEMBL1533197
     RDKit          3D

  0  0  0  0  0  0  0  0  0  0999 V3000
M  V30 BEGIN CTAB
M  V30 COUNTS 50 54 0 0 0
M  V30 BEGIN ATOM
M  V30 1 C 0.155180 -7.371664 0.404009 0
M  V30 2 N 0.028008 -5.982593 0.013314 0
M  V30 3 C 0.089519 -4.837068 0.741276 0
M  V30 4 C -0.095951 -3.739599 -0.104926 0
M  V30 5 C -0.070111 -2.392251 0.453110 0
M  V30 6 N 0.741478 -1.440269 -0.044297 0
M  V30 7 C 0.814615 -0.183012 0.422828 0
M  V30 8 C 1.671587 0.741906 -0.137229 0
M  V30 9 N 1.702164 1.986740 0.372798 0
M  V30 10 C 0.911614 2.342595 1.417795 0
M  V30 11 O 0.818141 3.564484 2.057103 0
M  V30 12 C 1.512807 4.700919 1.771731 0
M  V30 13 C 1.157794 5.745052 2.635447 0
M  V30 14 C 1.727275 7.000537 2.544606 0
M  V30 15 C 2.680065 7.245773 1.572730 0
M  V30 16 C 3.045501 6.231007 0.710102 0
M  V30 17 C 2.465546 4.984467 0.816768 0
M  V30 18 N 0.070995 1.425207 1.962823 0
M  V30 19 C -0.003552 0.155637 1.491830 0
M  V30 20 N -0.853854 -0.758223 2.049533 0
M  V30 21 C -1.689329 -0.404440 3.143365 0
M  V30 22 C -3.038841 0.132586 2.821997 0
M  V30 23 C -3.011200 1.347647 2.029984 0
M  V30 24 N -2.981859 2.315842 1.411409 0
M  V30 25 C -0.876958 -2.004914 1.530552 0
M  V30 26 O -1.631142 -2.912046 1.983068 0
M  V30 27 C -0.268518 -4.292858 -1.356859 0
M  V30 28 C -0.484707 -3.566599 -2.505173 0
M  V30 29 C -0.644618 -4.245695 -3.712995 0
M  V30 30 C -0.572815 -5.640783 -3.672961 0
M  V30 31 C -0.354150 -6.328443 -2.498349 0
M  V30 32 C -0.194392 -5.667872 -1.296205 0
M  V30 33 H -0.808512 -7.918691 0.346329 0
M  V30 34 H 0.945928 -7.902586 -0.166704 0
M  V30 35 H 0.473286 -7.396123 1.474396 0
M  V30 36 H 0.266048 -4.966655 1.811236 0
M  V30 37 H 2.318425 0.503344 -0.969501 0
M  V30 38 H 0.419980 5.684311 3.445056 0
M  V30 39 H 1.474862 7.826154 3.195787 0
M  V30 40 H 3.168194 8.188861 1.436572 0
M  V30 41 H 3.777579 6.296586 -0.091419 0
M  V30 42 H 2.683159 4.134209 0.193750 0
M  V30 43 H -1.859832 -1.350483 3.732462 0
M  V30 44 H -1.185030 0.295405 3.823820 0
M  V30 45 H -3.517690 0.388723 3.796843 0
M  V30 46 H -3.725418 -0.639045 2.388853 0
M  V30 47 H -0.541839 -2.494150 -2.549801 0
M  V30 48 H -0.819847 -3.810928 -4.682579 0
M  V30 49 H -0.690849 -6.215331 -4.586302 0
M  V30 50 H -0.297214 -7.417108 -2.458718 0
M  V30 END ATOM
M  V30 BEGIN BOND
M  V30 1 1 1 2
M  V30 2 1 2 3
M  V30 3 2 3 4
M  V30 4 1 4 5
M  V30 5 2 5 6
M  V30 6 1 6 7
M  V30 7 2 7 8
M  V30 8 1 8 9
M  V30 9 2 9 10
M  V30 10 1 10 11
M  V30 11 1 11 12
M  V30 12 2 12 13
M  V30 13 1 13 14
M  V30 14 2 14 15
M  V30 15 1 15 16
M  V30 16 2 16 17
M  V30 17 1 10 18
M  V30 18 2 18 19
M  V30 19 1 19 20
M  V30 20 1 20 21
M  V30 21 1 21 22
M  V30 22 1 22 23
M  V30 23 3 23 24
M  V30 24 1 20 25
M  V30 25 2 25 26
M  V30 26 1 4 27
M  V30 27 2 27 28
M  V30 28 1 28 29
M  V30 29 2 29 30
M  V30 30 1 30 31
M  V30 31 2 31 32
M  V30 32 1 32 2
M  V30 33 1 25 5
M  V30 34 1 32 27
M  V30 35 1 19 7
M  V30 36 1 17 12
M  V30 37 1 1 33
M  V30 38 1 1 34
M  V30 39 1 1 35
M  V30 40 1 3 36
M  V30 41 1 8 37
M  V30 42 1 13 38
M  V30 43 1 14 39
M  V30 44 1 15 40
M  V30 45 1 16 41
M  V30 46 1 17 42
M  V30 47 1 21 43
M  V30 48 1 21 44
M  V30 49 1 22 45
M  V30 50 1 22 46
M  V30 51 1 28 47
M  V30 52 1 29 48
M  V30 53 1 30 49
M  V30 54 1 31 50
M  V30 END BOND
M  V30 END CTAB
M  END
>  <Dataset>  (691) 
ChEMBL_Kinases

>  <Ligand_Instance>  (691) 
nan

>  <PDB_ID>  (691) 
nan

>  <Standardized_SMILES>  (691) 
Cn1cc(-c2nc3cnc(Oc4ccccc4)nc3n(CCC#N)c2=O)c2ccccc21

>  <Name>  (691) 
nan

>  <Pocket>  (691) 
nan

>  <ATP_Site>  (691) 
nan

>  <Peripheral>  (691) 
nan

>  <Num_H_Atoms_ProtBoundConf>  (691) 
nan

>  <Num_Resolved_Atoms>  (691) 
nan

>  <Num_Not_Resolved_Atoms>  (691) 
nan

$$$$
CHEMBL1533142
     RDKit          3D

  0  0  0  0  0  0  0  0  0  0999 V3000
M  V30 BEGIN CTAB
M  V30 COUNTS 40 43 0 0 0
M  V30 BEGIN ATOM
M  V30 1 O 0.662983 -4.703215 1.974791 0
M  V30 2 S -0.561388 -4.121037 1.359207 0
M  V30 3 O -1.316267 -5.172328 0.570574 0
M  V30 4 C -0.108685 -2.830319 0.253450 0
M  V30 5 C 1.026401 -2.039862 0.443239 0
M  V30 6 C 1.326899 -1.042973 -0.460620 0
M  V30 7 C 0.466950 -0.869260 -1.540349 0
M  V30 8 S 0.850967 0.420400 -2.715806 0
M  V30 9 C 2.342949 1.285833 -2.258411 0
M  V30 10 N 3.646265 1.102094 -2.535422 0
M  V30 11 N 4.365344 2.051250 -1.931620 0
M  V30 12 C 3.522928 2.853833 -1.260012 0
M  V30 13 C 3.814133 3.972974 -0.486347 0
M  V30 14 C 2.764581 4.653556 0.120286 0
M  V30 15 C 1.477011 4.176128 -0.080692 0
M  V30 16 C 1.292143 3.070003 -0.856723 0
M  V30 17 N 2.265490 2.383787 -1.458951 0
M  V30 18 N -0.619650 -1.617631 -1.732135 0
M  V30 19 C -0.936934 -2.610129 -0.850493 0
M  V30 20 N -1.570487 -3.511478 2.571699 0
M  V30 21 C -2.804954 -2.957337 2.165376 0
M  V30 22 C -2.890617 -1.458098 2.310740 0
M  V30 23 O -1.657576 -0.858726 2.503112 0
M  V30 24 C -0.934952 -1.354019 3.571038 0
M  V30 25 C -0.915166 -2.852524 3.657911 0
M  V30 26 H 1.639584 -2.229470 1.292423 0
M  V30 27 H 2.201307 -0.421575 -0.329381 0
M  V30 28 H 4.813095 4.331798 -0.338765 0
M  V30 29 H 2.926075 5.527063 0.731387 0
M  V30 30 H 0.655257 4.710222 0.394860 0
M  V30 31 H 0.265692 2.742194 -0.978741 0
M  V30 32 H -1.818488 -3.217331 -1.006005 0
M  V30 33 H -3.054690 -3.318407 1.145005 0
M  V30 34 H -3.622102 -3.384520 2.813174 0
M  V30 35 H -3.259711 -1.071146 1.332458 0
M  V30 36 H -3.663086 -1.136367 3.055540 0
M  V30 37 H -1.282056 -0.959216 4.549283 0
M  V30 38 H 0.108665 -0.959914 3.445007 0
M  V30 39 H -1.359164 -3.224725 4.605753 0
M  V30 40 H 0.144734 -3.207971 3.659988 0
M  V30 END ATOM
M  V30 BEGIN BOND
M  V30 1 2 1 2
M  V30 2 2 2 3
M  V30 3 1 2 4
M  V30 4 2 4 5
M  V30 5 1 5 6
M  V30 6 2 6 7
M  V30 7 1 7 8
M  V30 8 1 8 9
M  V30 9 2 9 10
M  V30 10 1 10 11
M  V30 11 2 11 12
M  V30 12 1 12 13
M  V30 13 2 13 14
M  V30 14 1 14 15
M  V30 15 2 15 16
M  V30 16 1 16 17
M  V30 17 1 7 18
M  V30 18 2 18 19
M  V30 19 1 2 20
M  V30 20 1 20 21
M  V30 21 1 21 22
M  V30 22 1 22 23
M  V30 23 1 23 24
M  V30 24 1 24 25
M  V30 25 1 19 4
M  V30 26 1 25 20
M  V30 27 1 17 9
M  V30 28 1 17 12
M  V30 29 1 5 26
M  V30 30 1 6 27
M  V30 31 1 13 28
M  V30 32 1 14 29
M  V30 33 1 15 30
M  V30 34 1 16 31
M  V30 35 1 19 32
M  V30 36 1 21 33
M  V30 37 1 21 34
M  V30 38 1 22 35
M  V30 39 1 22 36
M  V30 40 1 24 37
M  V30 41 1 24 38
M  V30 42 1 25 39
M  V30 43 1 25 40
M  V30 END BOND
M  V30 END CTAB
M  END
>  <Dataset>  (692) 
ChEMBL_Kinases

>  <Ligand_Instance>  (692) 
nan

>  <PDB_ID>  (692) 
nan

>  <Standardized_SMILES>  (692) 
O=S(=O)(c1ccc(Sc2nnc3ccccn23)nc1)N1CCOCC1

>  <Name>  (692) 
nan

>  <Pocket>  (692) 
nan

>  <ATP_Site>  (692) 
nan

>  <Peripheral>  (692) 
nan

>  <Num_H_Atoms_ProtBoundConf>  (692) 
nan

>  <Num_Resolved_Atoms>  (692) 
nan

>  <Num_Not_Resolved_Atoms>  (692) 
nan

$$$$
CHEMBL1532856
     RDKit          3D

  0  0  0  0  0  0  0  0  0  0999 V3000
M  V30 BEGIN CTAB
M  V30 COUNTS 57 61 0 0 0
M  V30 BEGIN ATOM
M  V30 1 O 0.516359 0.255679 0.959751 0
M  V30 2 C 1.430175 -0.502658 1.375148 0
M  V30 3 C 2.517769 -0.606027 2.343999 0
M  V30 4 C 2.739432 0.551266 3.245100 0
M  V30 5 N 3.049385 1.799767 2.647523 0
M  V30 6 C 4.409153 2.196449 2.357851 0
M  V30 7 O 5.454499 1.517470 2.578585 0
M  V30 8 C 4.446358 3.525114 1.755994 0
M  V30 9 C 5.481262 4.321363 1.312522 0
M  V30 10 C 5.194852 5.568242 0.774032 0
M  V30 11 C 3.877275 6.022444 0.676966 0
M  V30 12 C 2.843922 5.221385 1.122434 0
M  V30 13 C 3.150056 3.985180 1.654610 0
M  V30 14 C 2.307739 2.927763 2.200026 0
M  V30 15 O 1.053195 2.972425 2.283395 0
M  V30 16 N 1.313845 -1.674503 0.569098 0
M  V30 17 C 0.323703 -1.791414 -0.438946 0
M  V30 18 S 0.899217 -1.184754 -2.052152 0
M  V30 19 C -0.632638 -1.530143 -2.923895 0
M  V30 20 C -1.419049 -2.051955 -1.971202 0
M  V30 21 C -0.947604 -2.192099 -0.699883 0
M  V30 22 C -1.542689 -2.706290 0.508093 0
M  V30 23 O -0.906679 -2.745631 1.606829 0
M  V30 24 N -2.793409 -3.249256 0.864604 0
M  V30 25 C -2.860447 -3.617913 2.264257 0
M  V30 26 C -4.243656 -4.165470 2.462576 0
M  V30 27 C -4.567899 -5.514920 2.302522 0
M  V30 28 C -5.923690 -5.681039 2.559539 0
M  V30 29 C -6.352302 -4.397304 2.866879 0
M  V30 30 O -5.349849 -3.572715 2.795501 0
M  V30 31 C -2.690722 -2.354093 -2.652544 0
M  V30 32 C -2.332928 -3.242012 -3.835765 0
M  V30 33 C -1.816765 -2.317709 -4.906703 0
M  V30 34 C -0.923035 -1.282491 -4.332306 0
M  V30 35 H 2.297694 -1.485557 3.011520 0
M  V30 36 H 3.493539 -0.900828 1.854649 0
M  V30 37 H 3.575025 0.247840 3.942903 0
M  V30 38 H 1.857277 0.689124 3.937076 0
M  V30 39 H 6.513713 3.999755 1.373279 0
M  V30 40 H 5.949232 6.257036 0.402132 0
M  V30 41 H 3.646887 7.000571 0.254877 0
M  V30 42 H 1.794870 5.504195 1.080927 0
M  V30 43 H 1.909772 -2.560725 0.608671 0
M  V30 44 H -3.505658 -3.323410 0.112034 0
M  V30 45 H -2.105783 -4.379544 2.549201 0
M  V30 46 H -2.755983 -2.764909 2.950795 0
M  V30 47 H -3.892747 -6.307124 2.026533 0
M  V30 48 H -6.424109 -6.634030 2.503451 0
M  V30 49 H -7.383677 -4.176761 3.121077 0
M  V30 50 H -3.493578 -2.762688 -2.057525 0
M  V30 51 H -3.099448 -1.389046 -3.075713 0
M  V30 52 H -1.539947 -3.962075 -3.529265 0
M  V30 53 H -3.245880 -3.739776 -4.183365 0
M  V30 54 H -1.223429 -2.965679 -5.615611 0
M  V30 55 H -2.668059 -1.861232 -5.454522 0
M  V30 56 H 0.028234 -1.227285 -4.923454 0
M  V30 57 H -1.370769 -0.255756 -4.473015 0
M  V30 END ATOM
M  V30 BEGIN BOND
M  V30 1 2 1 2
M  V30 2 1 2 3
M  V30 3 1 3 4
M  V30 4 1 4 5
M  V30 5 1 5 6
M  V30 6 2 6 7
M  V30 7 1 6 8
M  V30 8 2 8 9
M  V30 9 1 9 10
M  V30 10 2 10 11
M  V30 11 1 11 12
M  V30 12 2 12 13
M  V30 13 1 13 14
M  V30 14 2 14 15
M  V30 15 1 2 16
M  V30 16 1 16 17
M  V30 17 1 17 18
M  V30 18 1 18 19
M  V30 19 2 19 20
M  V30 20 1 20 21
M  V30 21 1 21 22
M  V30 22 2 22 23
M  V30 23 1 22 24
M  V30 24 1 24 25
M  V30 25 1 25 26
M  V30 26 2 26 27
M  V30 27 1 27 28
M  V30 28 2 28 29
M  V30 29 1 29 30
M  V30 30 1 20 31
M  V30 31 1 31 32
M  V30 32 1 32 33
M  V30 33 1 33 34
M  V30 34 1 14 5
M  V30 35 2 21 17
M  V30 36 1 30 26
M  V30 37 1 13 8
M  V30 38 1 34 19
M  V30 39 1 3 35
M  V30 40 1 3 36
M  V30 41 1 4 37
M  V30 42 1 4 38
M  V30 43 1 9 39
M  V30 44 1 10 40
M  V30 45 1 11 41
M  V30 46 1 12 42
M  V30 47 1 16 43
M  V30 48 1 24 44
M  V30 49 1 25 45
M  V30 50 1 25 46
M  V30 51 1 27 47
M  V30 52 1 28 48
M  V30 53 1 29 49
M  V30 54 1 31 50
M  V30 55 1 31 51
M  V30 56 1 32 52
M  V30 57 1 32 53
M  V30 58 1 33 54
M  V30 59 1 33 55
M  V30 60 1 34 56
M  V30 61 1 34 57
M  V30 END BOND
M  V30 END CTAB
M  END
>  <Dataset>  (693) 
ChEMBL_Kinases

>  <Ligand_Instance>  (693) 
nan

>  <PDB_ID>  (693) 
nan

>  <Standardized_SMILES>  (693) 
O=C(CCN1C(=O)c2ccccc2C1=O)Nc1sc2c(c1C(=O)NCc1ccco1)CCCC2

>  <Name>  (693) 
nan

>  <Pocket>  (693) 
nan

>  <ATP_Site>  (693) 
nan

>  <Peripheral>  (693) 
nan

>  <Num_H_Atoms_ProtBoundConf>  (693) 
nan

>  <Num_Resolved_Atoms>  (693) 
nan

>  <Num_Not_Resolved_Atoms>  (693) 
nan

$$$$
CHEMBL1532840
     RDKit          3D

  0  0  0  0  0  0  0  0  0  0999 V3000
M  V30 BEGIN CTAB
M  V30 COUNTS 66 70 0 0 0
M  V30 BEGIN ATOM
M  V30 1 C 3.250078 -2.454018 5.437745 0
M  V30 2 C 3.233099 -0.961809 5.462106 0
M  V30 3 C 3.270415 -0.356055 4.107858 0
M  V30 4 C 4.431899 -0.026703 3.437208 0
M  V30 5 C 4.388985 0.533812 2.179570 0
M  V30 6 C 3.145843 0.751908 1.619714 0
M  V30 7 N 3.087517 1.297781 0.394235 0
M  V30 8 C 1.937692 1.550143 -0.237389 0
M  V30 9 O 1.852672 2.114996 -1.504366 0
M  V30 10 C 0.699726 1.270859 0.315655 0
M  V30 11 C -0.668698 1.498960 -0.253342 0
M  V30 12 C -1.395194 2.568978 0.418841 0
M  V30 13 N -1.133890 3.905864 0.229015 0
M  V30 14 N -1.889445 4.661403 0.947085 0
M  V30 15 N -2.685009 3.905035 1.646047 0
M  V30 16 N -2.401948 2.625904 1.339964 0
M  V30 17 C -3.102016 1.534278 1.909274 0
M  V30 18 C -4.371773 1.139186 1.236023 0
M  V30 19 O -4.317696 0.770673 -0.069618 0
M  V30 20 C -5.641440 0.450199 -0.450702 0
M  V30 21 N -1.328916 0.397271 -0.812688 0
M  V30 22 C -0.791985 0.014298 -2.136570 0
M  V30 23 C 0.230395 -1.065580 -2.076025 0
M  V30 24 N -0.477897 -2.304707 -1.855287 0
M  V30 25 C -0.112906 -3.559591 -2.356854 0
M  V30 26 C 1.006409 -3.719240 -3.143398 0
M  V30 27 C 1.367042 -4.960312 -3.638740 0
M  V30 28 C 0.601879 -6.072614 -3.349504 0
M  V30 29 F 0.925724 -7.322689 -3.821771 0
M  V30 30 C -0.523395 -5.883811 -2.553109 0
M  V30 31 C -0.897220 -4.651337 -2.050629 0
M  V30 32 C -1.612485 -2.030142 -1.037628 0
M  V30 33 C -1.350406 -0.845374 -0.080811 0
M  V30 34 C 0.752617 0.700584 1.596895 0
M  V30 35 C 1.949395 0.445831 2.236416 0
M  V30 36 C 2.061967 -0.110754 3.489144 0
M  V30 37 H 4.248811 -2.816310 5.753421 0
M  V30 38 H 3.070314 -2.876363 4.424601 0
M  V30 39 H 2.524539 -2.851075 6.181137 0
M  V30 40 H 4.099491 -0.585823 6.059126 0
M  V30 41 H 2.305653 -0.619473 5.973212 0
M  V30 42 H 5.358095 -0.230853 3.947841 0
M  V30 43 H 5.305969 0.788417 1.662311 0
M  V30 44 H 2.646559 2.415830 -2.020955 0
M  V30 45 H -0.339730 2.041577 -1.243773 0
M  V30 46 H -3.454883 1.880084 2.944686 0
M  V30 47 H -2.460563 0.675765 2.238700 0
M  V30 48 H -5.162987 1.941484 1.308402 0
M  V30 49 H -4.836152 0.298556 1.831970 0
M  V30 50 H -5.702289 0.140281 -1.491864 0
M  V30 51 H -6.350095 1.271470 -0.208596 0
M  V30 52 H -5.949593 -0.405855 0.175110 0
M  V30 53 H -1.593951 -0.330886 -2.815698 0
M  V30 54 H -0.344352 0.923333 -2.570900 0
M  V30 55 H 1.075555 -0.920902 -1.414104 0
M  V30 56 H 0.657620 -1.149475 -3.109147 0
M  V30 57 H 1.655839 -2.900975 -3.414357 0
M  V30 58 H 2.242464 -5.071073 -4.251299 0
M  V30 59 H -1.107064 -6.780545 -2.342105 0
M  V30 60 H -1.792179 -4.636169 -1.444242 0
M  V30 61 H -2.468900 -1.759931 -1.656383 0
M  V30 62 H -1.900422 -2.890201 -0.388378 0
M  V30 63 H -2.256099 -0.870685 0.537965 0
M  V30 64 H -0.450773 -1.112098 0.452764 0
M  V30 65 H -0.084789 0.412543 2.212311 0
M  V30 66 H 1.129664 -0.368172 4.011118 0
M  V30 END ATOM
M  V30 BEGIN BOND
M  V30 1 1 1 2
M  V30 2 1 2 3
M  V30 3 2 3 4
M  V30 4 1 4 5
M  V30 5 2 5 6
M  V30 6 1 6 7
M  V30 7 2 7 8
M  V30 8 1 8 9
M  V30 9 1 8 10
M  V30 10 1 10 11
M  V30 11 1 11 12
M  V30 12 2 12 13
M  V30 13 1 13 14
M  V30 14 2 14 15
M  V30 15 1 15 16
M  V30 16 1 16 17
M  V30 17 1 17 18
M  V30 18 1 18 19
M  V30 19 1 19 20
M  V30 20 1 11 21
M  V30 21 1 21 22
M  V30 22 1 22 23
M  V30 23 1 23 24
M  V30 24 1 24 25
M  V30 25 2 25 26
M  V30 26 1 26 27
M  V30 27 2 27 28
M  V30 28 1 28 29
M  V30 29 1 28 30
M  V30 30 2 30 31
M  V30 31 1 24 32
M  V30 32 1 32 33
M  V30 33 2 10 34
M  V30 34 1 34 35
M  V30 35 2 35 36
M  V30 36 1 36 3
M  V30 37 1 35 6
M  V30 38 1 16 12
M  V30 39 1 33 21
M  V30 40 1 31 25
M  V30 41 1 1 37
M  V30 42 1 1 38
M  V30 43 1 1 39
M  V30 44 1 2 40
M  V30 45 1 2 41
M  V30 46 1 4 42
M  V30 47 1 5 43
M  V30 48 1 9 44
M  V30 49 1 11 45
M  V30 50 1 17 46
M  V30 51 1 17 47
M  V30 52 1 18 48
M  V30 53 1 18 49
M  V30 54 1 20 50
M  V30 55 1 20 51
M  V30 56 1 20 52
M  V30 57 1 22 53
M  V30 58 1 22 54
M  V30 59 1 23 55
M  V30 60 1 23 56
M  V30 61 1 26 57
M  V30 62 1 27 58
M  V30 63 1 30 59
M  V30 64 1 31 60
M  V30 65 1 32 61
M  V30 66 1 32 62
M  V30 67 1 33 63
M  V30 68 1 33 64
M  V30 69 1 34 65
M  V30 70 1 36 66
M  V30 END BOND
M  V30 END CTAB
M  END
>  <Dataset>  (694) 
ChEMBL_Kinases

>  <Ligand_Instance>  (694) 
nan

>  <PDB_ID>  (694) 
nan

>  <Standardized_SMILES>  (694) 
CCc1ccc2nc(O)c(C(c3nnnn3CCOC)N3CCN(c4ccc(F)cc4)CC3)cc2c1

>  <Name>  (694) 
nan

>  <Pocket>  (694) 
nan

>  <ATP_Site>  (694) 
nan

>  <Peripheral>  (694) 
nan

>  <Num_H_Atoms_ProtBoundConf>  (694) 
nan

>  <Num_Resolved_Atoms>  (694) 
nan

>  <Num_Not_Resolved_Atoms>  (694) 
nan

$$$$
CHEMBL1532745
     RDKit          3D

  0  0  0  0  0  0  0  0  0  0999 V3000
M  V30 BEGIN CTAB
M  V30 COUNTS 47 50 0 0 0
M  V30 BEGIN ATOM
M  V30 1 N -0.417130 -4.165697 -2.983275 0
M  V30 2 C -0.953545 -3.124425 -2.857708 0
M  V30 3 C -1.618170 -1.858642 -2.727189 0
M  V30 4 C -1.427044 -1.109104 -1.636551 0
M  V30 5 N -0.707439 -1.117557 -0.397803 0
M  V30 6 C 0.170378 -1.976442 0.254541 0
M  V30 7 O 0.414825 -3.016552 -0.374146 0
M  V30 8 C 0.805887 -1.787360 1.547178 0
M  V30 9 C 1.664132 -2.714858 2.096146 0
M  V30 10 C 2.037978 -2.145332 3.320174 0
M  V30 11 C 1.400415 -0.922501 3.452437 0
M  V30 12 C 1.526085 0.007026 4.610611 0
M  V30 13 N 2.628741 0.928209 4.370337 0
M  V30 14 C 2.505176 2.133337 3.744310 0
M  V30 15 C 3.752359 2.756139 3.681716 0
M  V30 16 Br 4.010774 4.477134 2.874263 0
M  V30 17 C 4.603593 1.858005 4.299364 0
M  V30 18 N 3.904079 0.786320 4.694979 0
M  V30 19 O 0.693129 -0.784684 2.366184 0
M  V30 20 S -2.476470 0.353370 -1.973935 0
M  V30 21 C -3.040579 -0.202675 -3.515038 0
M  V30 22 C -2.440879 -1.388468 -3.676883 0
M  V30 23 C -2.669152 -2.217842 -4.912771 0
M  V30 24 C -2.183497 -1.552056 -6.166377 0
M  V30 25 C -1.664625 -0.167668 -6.005853 0
M  V30 26 C -2.691628 0.905487 -6.258659 0
M  V30 27 C -4.030984 0.639701 -5.627759 0
M  V30 28 C -3.985365 0.806409 -4.130570 0
M  V30 29 H -0.809527 -0.288575 0.264191 0
M  V30 30 H 1.987958 -3.665325 1.695739 0
M  V30 31 H 2.716749 -2.617784 4.018488 0
M  V30 32 H 1.716433 -0.588823 5.522490 0
M  V30 33 H 0.595243 0.595347 4.655889 0
M  V30 34 H 1.582748 2.523123 3.366191 0
M  V30 35 H 5.664763 2.108675 4.385467 0
M  V30 36 H -3.742005 -2.542148 -4.965272 0
M  V30 37 H -2.104640 -3.168035 -4.803969 0
M  V30 38 H -3.082219 -1.493398 -6.848016 0
M  V30 39 H -1.462127 -2.175131 -6.731774 0
M  V30 40 H -1.118734 -0.006541 -5.045318 0
M  V30 41 H -0.881338 -0.003935 -6.780051 0
M  V30 42 H -2.269487 1.850437 -5.915045 0
M  V30 43 H -2.837440 0.968193 -7.363037 0
M  V30 44 H -4.702234 1.447506 -5.999179 0
M  V30 45 H -4.470416 -0.308673 -5.935295 0
M  V30 46 H -3.700488 1.819932 -3.852423 0
M  V30 47 H -4.966118 0.581216 -3.697387 0
M  V30 END ATOM
M  V30 BEGIN BOND
M  V30 1 3 1 2
M  V30 2 1 2 3
M  V30 3 2 3 4
M  V30 4 1 4 5
M  V30 5 1 5 6
M  V30 6 2 6 7
M  V30 7 1 6 8
M  V30 8 2 8 9
M  V30 9 1 9 10
M  V30 10 2 10 11
M  V30 11 1 11 12
M  V30 12 1 12 13
M  V30 13 1 13 14
M  V30 14 2 14 15
M  V30 15 1 15 16
M  V30 16 1 15 17
M  V30 17 2 17 18
M  V30 18 1 11 19
M  V30 19 1 4 20
M  V30 20 1 20 21
M  V30 21 2 21 22
M  V30 22 1 22 23
M  V30 23 1 23 24
M  V30 24 1 24 25
M  V30 25 1 25 26
M  V30 26 1 26 27
M  V30 27 1 27 28
M  V30 28 1 22 3
M  V30 29 1 19 8
M  V30 30 1 28 21
M  V30 31 1 18 13
M  V30 32 1 5 29
M  V30 33 1 9 30
M  V30 34 1 10 31
M  V30 35 1 12 32
M  V30 36 1 12 33
M  V30 37 1 14 34
M  V30 38 1 17 35
M  V30 39 1 23 36
M  V30 40 1 23 37
M  V30 41 1 24 38
M  V30 42 1 24 39
M  V30 43 1 25 40
M  V30 44 1 25 41
M  V30 45 1 26 42
M  V30 46 1 26 43
M  V30 47 1 27 44
M  V30 48 1 27 45
M  V30 49 1 28 46
M  V30 50 1 28 47
M  V30 END BOND
M  V30 END CTAB
M  END
>  <Dataset>  (695) 
ChEMBL_Kinases

>  <Ligand_Instance>  (695) 
nan

>  <PDB_ID>  (695) 
nan

>  <Standardized_SMILES>  (695) 
N#Cc1c(NC(=O)c2ccc(Cn3cc(Br)cn3)o2)sc2c1CCCCCC2

>  <Name>  (695) 
nan

>  <Pocket>  (695) 
nan

>  <ATP_Site>  (695) 
nan

>  <Peripheral>  (695) 
nan

>  <Num_H_Atoms_ProtBoundConf>  (695) 
nan

>  <Num_Resolved_Atoms>  (695) 
nan

>  <Num_Not_Resolved_Atoms>  (695) 
nan

$$$$
CHEMBL1532732
     RDKit          3D

  0  0  0  0  0  0  0  0  0  0999 V3000
M  V30 BEGIN CTAB
M  V30 COUNTS 43 45 0 0 0
M  V30 BEGIN ATOM
M  V30 1 C 3.461642 -7.640705 4.329621 0
M  V30 2 C 3.117773 -6.658198 3.281284 0
M  V30 3 C 3.646464 -6.778833 2.003724 0
M  V30 4 C 3.340999 -5.867605 0.992600 0
M  V30 5 C 2.475657 -4.826928 1.330889 0
M  V30 6 O 2.014298 -3.835277 0.603243 0
M  V30 7 C 1.223782 -3.065960 1.289255 0
M  V30 8 C 0.490719 -1.858186 0.897768 0
M  V30 9 C -0.317180 -1.169245 1.800025 0
M  V30 10 C -0.997437 -0.027278 1.392749 0
M  V30 11 C -0.869444 0.426010 0.081668 0
M  V30 12 N -1.515875 1.578862 -0.445637 0
M  V30 13 C -0.972188 2.892113 -0.430820 0
M  V30 14 O 0.165757 3.050136 0.086612 0
M  V30 15 C -1.906942 3.858003 -1.061600 0
M  V30 16 C -1.338212 5.260103 -1.052009 0
M  V30 17 C -1.064536 5.762363 0.327073 0
M  V30 18 C -2.246364 6.253522 -1.713865 0
M  V30 19 C -0.061422 -0.256746 -0.833785 0
M  V30 20 C 0.620244 -1.409109 -0.409014 0
M  V30 21 N 1.168654 -3.594183 2.546646 0
M  V30 22 C 1.941580 -4.700786 2.612577 0
M  V30 23 C 2.264168 -5.622040 3.595025 0
M  V30 24 H 4.120532 -8.431102 3.914724 0
M  V30 25 H 3.962258 -7.153407 5.207617 0
M  V30 26 H 2.583863 -8.164769 4.761267 0
M  V30 27 H 4.316951 -7.588935 1.749346 0
M  V30 28 H 3.755831 -5.965545 -0.003016 0
M  V30 29 H -0.412340 -1.527961 2.819890 0
M  V30 30 H -1.625189 0.529988 2.048235 0
M  V30 31 H -2.431243 1.202855 -0.815164 0
M  V30 32 H -2.838001 3.918767 -0.429688 0
M  V30 33 H -2.226016 3.544386 -2.059917 0
M  V30 34 H -0.396518 5.248967 -1.634989 0
M  V30 35 H -1.106481 6.881200 0.343570 0
M  V30 36 H -1.927045 5.442380 0.970863 0
M  V30 37 H -0.085679 5.485159 0.741021 0
M  V30 38 H -1.930504 7.273930 -1.356056 0
M  V30 39 H -3.304785 6.175504 -1.328986 0
M  V30 40 H -2.226007 6.265441 -2.804588 0
M  V30 41 H 0.054788 0.080021 -1.868858 0
M  V30 42 H 1.229883 -1.895620 -1.159099 0
M  V30 43 H 1.818533 -5.470676 4.568589 0
M  V30 END ATOM
M  V30 BEGIN BOND
M  V30 1 1 1 2
M  V30 2 2 2 3
M  V30 3 1 3 4
M  V30 4 2 4 5
M  V30 5 1 5 6
M  V30 6 1 6 7
M  V30 7 1 7 8
M  V30 8 2 8 9
M  V30 9 1 9 10
M  V30 10 2 10 11
M  V30 11 1 11 12
M  V30 12 1 12 13
M  V30 13 2 13 14
M  V30 14 1 13 15
M  V30 15 1 15 16
M  V30 16 1 16 17
M  V30 17 1 16 18
M  V30 18 1 11 19
M  V30 19 2 19 20
M  V30 20 2 7 21
M  V30 21 1 21 22
M  V30 22 2 22 23
M  V30 23 1 23 2
M  V30 24 1 22 5
M  V30 25 1 20 8
M  V30 26 1 1 24
M  V30 27 1 1 25
M  V30 28 1 1 26
M  V30 29 1 3 27
M  V30 30 1 4 28
M  V30 31 1 9 29
M  V30 32 1 10 30
M  V30 33 1 12 31
M  V30 34 1 15 32
M  V30 35 1 15 33
M  V30 36 1 16 34
M  V30 37 1 17 35
M  V30 38 1 17 36
M  V30 39 1 17 37
M  V30 40 1 18 38
M  V30 41 1 18 39
M  V30 42 1 18 40
M  V30 43 1 19 41
M  V30 44 1 20 42
M  V30 45 1 23 43
M  V30 END BOND
M  V30 END CTAB
M  END
>  <Dataset>  (696) 
ChEMBL_Kinases

>  <Ligand_Instance>  (696) 
nan

>  <PDB_ID>  (696) 
nan

>  <Standardized_SMILES>  (696) 
Cc1ccc2oc(-c3ccc(NC(=O)CC(C)C)cc3)nc2c1

>  <Name>  (696) 
nan

>  <Pocket>  (696) 
nan

>  <ATP_Site>  (696) 
nan

>  <Peripheral>  (696) 
nan

>  <Num_H_Atoms_ProtBoundConf>  (696) 
nan

>  <Num_Resolved_Atoms>  (696) 
nan

>  <Num_Not_Resolved_Atoms>  (696) 
nan

$$$$
CHEMBL1532677
     RDKit          3D

  0  0  0  0  0  0  0  0  0  0999 V3000
M  V30 BEGIN CTAB
M  V30 COUNTS 31 33 0 0 0
M  V30 BEGIN ATOM
M  V30 1 O -0.487638 0.521547 1.667964 0
M  V30 2 S 0.247730 0.141976 0.398372 0
M  V30 3 O 1.491285 -0.573898 0.863606 0
M  V30 4 N -0.760253 -0.828228 -0.521548 0
M  V30 5 C -0.287535 -1.322594 -1.760865 0
M  V30 6 C -1.404945 -2.148759 -2.348802 0
M  V30 7 C -2.311864 -1.492245 -3.161684 0
M  V30 8 C -3.372127 -2.161167 -3.748561 0
M  V30 9 C -3.445564 -3.507597 -3.460254 0
M  V30 10 C -2.581539 -4.227777 -2.661854 0
M  V30 11 C -1.539421 -3.491903 -2.104861 0
M  V30 12 C 0.668557 1.617718 -0.394176 0
M  V30 13 C 0.215480 2.148544 -1.574774 0
M  V30 14 C 0.651177 3.348528 -2.038255 0
M  V30 15 C 1.574605 4.068915 -1.315119 0
M  V30 16 Br 2.034441 5.725938 -2.169861 0
M  V30 17 C 2.015834 3.518500 -0.132542 0
M  V30 18 N 2.988931 4.413011 0.502740 0
M  V30 19 S 3.281806 3.330720 1.957222 0
M  V30 20 N 2.300052 2.116716 1.607496 0
M  V30 21 C 1.581611 2.331655 0.320208 0
M  V30 22 H -1.562641 -1.276558 -0.087326 0
M  V30 23 H 0.107900 -0.617224 -2.491575 0
M  V30 24 H 0.521016 -2.085964 -1.572400 0
M  V30 25 H -2.232337 -0.420398 -3.376170 0
M  V30 26 H -4.114225 -1.704444 -4.393337 0
M  V30 27 H -4.261879 -4.064228 -3.901550 0
M  V30 28 H -2.689599 -5.270778 -2.475031 0
M  V30 29 H -0.798982 -3.955964 -1.459420 0
M  V30 30 H -0.518732 1.548930 -2.090645 0
M  V30 31 H 0.208471 3.640121 -2.980885 0
M  V30 END ATOM
M  V30 BEGIN BOND
M  V30 1 2 1 2
M  V30 2 2 2 3
M  V30 3 1 2 4
M  V30 4 1 4 5
M  V30 5 1 5 6
M  V30 6 2 6 7
M  V30 7 1 7 8
M  V30 8 2 8 9
M  V30 9 1 9 10
M  V30 10 2 10 11
M  V30 11 1 2 12
M  V30 12 2 12 13
M  V30 13 1 13 14
M  V30 14 2 14 15
M  V30 15 1 15 16
M  V30 16 1 15 17
M  V30 17 2 17 18
M  V30 18 1 18 19
M  V30 19 1 19 20
M  V30 20 2 20 21
M  V30 21 1 11 6
M  V30 22 1 21 12
M  V30 23 1 21 17
M  V30 24 1 4 22
M  V30 25 1 5 23
M  V30 26 1 5 24
M  V30 27 1 7 25
M  V30 28 1 8 26
M  V30 29 1 9 27
M  V30 30 1 10 28
M  V30 31 1 11 29
M  V30 32 1 13 30
M  V30 33 1 14 31
M  V30 END BOND
M  V30 END CTAB
M  END
>  <Dataset>  (697) 
ChEMBL_Kinases

>  <Ligand_Instance>  (697) 
nan

>  <PDB_ID>  (697) 
nan

>  <Standardized_SMILES>  (697) 
O=S(=O)(NCc1ccccc1)c1ccc(Br)c2nsnc12

>  <Name>  (697) 
nan

>  <Pocket>  (697) 
nan

>  <ATP_Site>  (697) 
nan

>  <Peripheral>  (697) 
nan

>  <Num_H_Atoms_ProtBoundConf>  (697) 
nan

>  <Num_Resolved_Atoms>  (697) 
nan

>  <Num_Not_Resolved_Atoms>  (697) 
nan

$$$$
CHEMBL1532659
     RDKit          3D

  0  0  0  0  0  0  0  0  0  0999 V3000
M  V30 BEGIN CTAB
M  V30 COUNTS 31 33 0 0 0
M  V30 BEGIN ATOM
M  V30 1 C -2.240539 -4.091978 3.100415 0
M  V30 2 C -1.118142 -3.239040 2.698582 0
M  V30 3 S 0.278831 -2.976358 3.765015 0
M  V30 4 C 1.150464 -1.894801 2.631468 0
M  V30 5 N 2.351541 -1.279883 2.785407 0
M  V30 6 C 2.835927 -0.500869 1.806452 0
M  V30 7 N 2.060544 -0.413050 0.756733 0
M  V30 8 C 0.894975 -0.984968 0.558706 0
M  V30 9 N 0.292310 -0.691893 -0.694945 0
M  V30 10 C 0.928062 0.169628 -1.666077 0
M  V30 11 C 1.136353 1.551198 -1.101501 0
M  V30 12 C 0.221384 2.581506 -1.199917 0
M  V30 13 C 0.824873 3.624761 -0.557039 0
M  V30 14 C 2.063663 3.218659 -0.092056 0
M  V30 15 O 2.181485 1.975217 -0.452020 0
M  V30 16 C 0.338866 -1.795669 1.518439 0
M  V30 17 C -0.834629 -2.496817 1.564411 0
M  V30 18 C -1.854044 -2.535904 0.483705 0
M  V30 19 H -3.209699 -3.767945 2.671729 0
M  V30 20 H -2.079495 -5.178367 2.890454 0
M  V30 21 H -2.383604 -3.982067 4.214644 0
M  V30 22 H 3.789528 -0.061416 2.024194 0
M  V30 23 H -0.598618 -0.970840 -1.148885 0
M  V30 24 H 0.441666 0.260563 -2.631457 0
M  V30 25 H 1.932383 -0.304657 -1.858199 0
M  V30 26 H -0.739446 2.492730 -1.696024 0
M  V30 27 H 0.338296 4.602132 -0.465300 0
M  V30 28 H 2.676308 3.923202 0.441639 0
M  V30 29 H -2.320589 -1.571803 0.262095 0
M  V30 30 H -2.713823 -3.204521 0.768550 0
M  V30 31 H -1.490195 -2.981060 -0.463754 0
M  V30 END ATOM
M  V30 BEGIN BOND
M  V30 1 1 1 2
M  V30 2 1 2 3
M  V30 3 1 3 4
M  V30 4 2 4 5
M  V30 5 1 5 6
M  V30 6 2 6 7
M  V30 7 1 7 8
M  V30 8 1 8 9
M  V30 9 1 9 10
M  V30 10 1 10 11
M  V30 11 2 11 12
M  V30 12 1 12 13
M  V30 13 2 13 14
M  V30 14 1 14 15
M  V30 15 2 8 16
M  V30 16 1 16 17
M  V30 17 1 17 18
M  V30 18 2 17 2
M  V30 19 1 16 4
M  V30 20 1 15 11
M  V30 21 1 1 19
M  V30 22 1 1 20
M  V30 23 1 1 21
M  V30 24 1 6 22
M  V30 25 1 9 23
M  V30 26 1 10 24
M  V30 27 1 10 25
M  V30 28 1 12 26
M  V30 29 1 13 27
M  V30 30 1 14 28
M  V30 31 1 18 29
M  V30 32 1 18 30
M  V30 33 1 18 31
M  V30 END BOND
M  V30 END CTAB
M  END
>  <Dataset>  (698) 
ChEMBL_Kinases

>  <Ligand_Instance>  (698) 
nan

>  <PDB_ID>  (698) 
nan

>  <Standardized_SMILES>  (698) 
Cc1sc2ncnc(NCc3ccco3)c2c1C

>  <Name>  (698) 
nan

>  <Pocket>  (698) 
nan

>  <ATP_Site>  (698) 
nan

>  <Peripheral>  (698) 
nan

>  <Num_H_Atoms_ProtBoundConf>  (698) 
nan

>  <Num_Resolved_Atoms>  (698) 
nan

>  <Num_Not_Resolved_Atoms>  (698) 
nan

$$$$
CHEMBL1532517
     RDKit          3D

  0  0  0  0  0  0  0  0  0  0999 V3000
M  V30 BEGIN CTAB
M  V30 COUNTS 38 39 0 0 0
M  V30 BEGIN ATOM
M  V30 1 C 0.118653 -1.665696 4.257346 0
M  V30 2 C -0.519188 -2.316270 3.095074 0
M  V30 3 O -1.771776 -2.476941 3.041308 0
M  V30 4 N 0.251335 -2.784801 1.996114 0
M  V30 5 C -0.406616 -3.408394 0.890582 0
M  V30 6 C 0.505288 -3.858421 -0.201317 0
M  V30 7 N 1.285995 -2.839254 -0.823002 0
M  V30 8 C 0.495570 -1.777937 -1.347219 0
M  V30 9 C -0.289421 -1.732565 -2.479419 0
M  V30 10 C -0.929991 -0.540561 -2.732897 0
M  V30 11 N -0.786054 0.516518 -1.907296 0
M  V30 12 C -0.022049 0.476345 -0.804333 0
M  V30 13 C 0.067127 1.677733 0.014115 0
M  V30 14 C -0.700644 2.757485 -0.367063 0
M  V30 15 C -0.673840 3.957382 0.343193 0
M  V30 16 C 0.144612 4.056076 1.453735 0
M  V30 17 C 0.928736 2.970313 1.852195 0
M  V30 18 C 0.879581 1.784079 1.120847 0
M  V30 19 C 1.723703 0.634197 1.544250 0
M  V30 20 N 0.599025 -0.687815 -0.562412 0
M  V30 21 H 1.184774 -1.876998 4.339753 0
M  V30 22 H -0.401391 -1.942969 5.212193 0
M  V30 23 H 0.025357 -0.548783 4.135354 0
M  V30 24 H 1.305528 -2.690014 1.957911 0
M  V30 25 H -1.243917 -2.789748 0.485659 0
M  V30 26 H -0.907760 -4.342578 1.280300 0
M  V30 27 H -0.121787 -4.352558 -0.992222 0
M  V30 28 H 1.219838 -4.613260 0.200037 0
M  V30 29 H 2.325411 -2.824698 -0.909141 0
M  V30 30 H -0.294708 -2.655648 -3.022439 0
M  V30 31 H -1.542181 -0.544984 -3.638994 0
M  V30 32 H -1.361367 2.771269 -1.209828 0
M  V30 33 H -1.281195 4.816171 0.045585 0
M  V30 34 H 0.230586 4.932645 2.059480 0
M  V30 35 H 1.576021 3.051579 2.732713 0
M  V30 36 H 2.359834 0.243715 0.701622 0
M  V30 37 H 2.429245 0.940195 2.350030 0
M  V30 38 H 1.072386 -0.135943 1.970365 0
M  V30 END ATOM
M  V30 BEGIN BOND
M  V30 1 1 1 2
M  V30 2 2 2 3
M  V30 3 1 2 4
M  V30 4 1 4 5
M  V30 5 1 5 6
M  V30 6 1 6 7
M  V30 7 1 7 8
M  V30 8 2 8 9
M  V30 9 1 9 10
M  V30 10 2 10 11
M  V30 11 1 11 12
M  V30 12 1 12 13
M  V30 13 2 13 14
M  V30 14 1 14 15
M  V30 15 2 15 16
M  V30 16 1 16 17
M  V30 17 2 17 18
M  V30 18 1 18 19
M  V30 19 2 12 20
M  V30 20 1 20 8
M  V30 21 1 18 13
M  V30 22 1 1 21
M  V30 23 1 1 22
M  V30 24 1 1 23
M  V30 25 1 4 24
M  V30 26 1 5 25
M  V30 27 1 5 26
M  V30 28 1 6 27
M  V30 29 1 6 28
M  V30 30 1 7 29
M  V30 31 1 9 30
M  V30 32 1 10 31
M  V30 33 1 14 32
M  V30 34 1 15 33
M  V30 35 1 16 34
M  V30 36 1 17 35
M  V30 37 1 19 36
M  V30 38 1 19 37
M  V30 39 1 19 38
M  V30 END BOND
M  V30 END CTAB
M  END
>  <Dataset>  (699) 
ChEMBL_Kinases

>  <Ligand_Instance>  (699) 
nan

>  <PDB_ID>  (699) 
nan

>  <Standardized_SMILES>  (699) 
CC(=O)NCCNc1ccnc(-c2ccccc2C)n1

>  <Name>  (699) 
nan

>  <Pocket>  (699) 
nan

>  <ATP_Site>  (699) 
nan

>  <Peripheral>  (699) 
nan

>  <Num_H_Atoms_ProtBoundConf>  (699) 
nan

>  <Num_Resolved_Atoms>  (699) 
nan

>  <Num_Not_Resolved_Atoms>  (699) 
nan

$$$$
CHEMBL1532407
     RDKit          3D

  0  0  0  0  0  0  0  0  0  0999 V3000
M  V30 BEGIN CTAB
M  V30 COUNTS 30 32 0 0 0
M  V30 BEGIN ATOM
M  V30 1 N 2.598230 1.864622 3.467101 0
M  V30 2 C 2.177633 0.941964 2.867019 0
M  V30 3 C 1.641545 -0.183141 2.112944 0
M  V30 4 C 2.234255 -1.381717 2.431742 0
M  V30 5 S 3.529802 -1.528159 3.649436 0
M  V30 6 N 1.778568 -2.476239 1.763162 0
M  V30 7 C 0.803868 -2.371448 0.846210 0
M  V30 8 C 0.230664 -1.171511 0.545477 0
M  V30 9 C 0.622193 -0.010174 1.167954 0
M  V30 10 C 0.119301 1.335552 0.965461 0
M  V30 11 C -0.880391 1.912345 0.238873 0
M  V30 12 C -0.945414 3.274570 0.398875 0
M  V30 13 C 0.090871 3.456542 1.274841 0
M  V30 14 O 0.666966 2.347137 1.572129 0
M  V30 15 C -0.808821 -1.109072 -0.478695 0
M  V30 16 C -0.978033 -2.403163 -1.261293 0
M  V30 17 C -0.932459 -3.564621 -0.317407 0
M  V30 18 C 0.467197 -3.687059 0.258078 0
M  V30 19 H 3.162386 -2.511201 4.591493 0
M  V30 20 H -1.557848 1.379205 -0.385991 0
M  V30 21 H -1.605316 4.002319 -0.026921 0
M  V30 22 H 0.443872 4.395189 1.710591 0
M  V30 23 H -0.464843 -0.368871 -1.246206 0
M  V30 24 H -1.798054 -0.867653 -0.084187 0
M  V30 25 H -0.187467 -2.523564 -2.016172 0
M  V30 26 H -1.998841 -2.414264 -1.721484 0
M  V30 27 H -1.597443 -3.353769 0.533921 0
M  V30 28 H -1.233483 -4.501922 -0.799608 0
M  V30 29 H 0.418305 -4.492623 1.022017 0
M  V30 30 H 1.205630 -4.006416 -0.496457 0
M  V30 END ATOM
M  V30 BEGIN BOND
M  V30 1 3 1 2
M  V30 2 1 2 3
M  V30 3 2 3 4
M  V30 4 1 4 5
M  V30 5 1 4 6
M  V30 6 2 6 7
M  V30 7 1 7 8
M  V30 8 2 8 9
M  V30 9 1 9 10
M  V30 10 2 10 11
M  V30 11 1 11 12
M  V30 12 2 12 13
M  V30 13 1 13 14
M  V30 14 1 8 15
M  V30 15 1 15 16
M  V30 16 1 16 17
M  V30 17 1 17 18
M  V30 18 1 9 3
M  V30 19 1 14 10
M  V30 20 1 18 7
M  V30 21 1 5 19
M  V30 22 1 11 20
M  V30 23 1 12 21
M  V30 24 1 13 22
M  V30 25 1 15 23
M  V30 26 1 15 24
M  V30 27 1 16 25
M  V30 28 1 16 26
M  V30 29 1 17 27
M  V30 30 1 17 28
M  V30 31 1 18 29
M  V30 32 1 18 30
M  V30 END BOND
M  V30 END CTAB
M  END
>  <Dataset>  (700) 
ChEMBL_Kinases

>  <Ligand_Instance>  (700) 
nan

>  <PDB_ID>  (700) 
nan

>  <Standardized_SMILES>  (700) 
N#Cc1c(S)nc2c(c1-c1ccco1)CCCC2

>  <Name>  (700) 
nan

>  <Pocket>  (700) 
nan

>  <ATP_Site>  (700) 
nan

>  <Peripheral>  (700) 
nan

>  <Num_H_Atoms_ProtBoundConf>  (700) 
nan

>  <Num_Resolved_Atoms>  (700) 
nan

>  <Num_Not_Resolved_Atoms>  (700) 
nan

$$$$
CHEMBL1532397
     RDKit          3D

  0  0  0  0  0  0  0  0  0  0999 V3000
M  V30 BEGIN CTAB
M  V30 COUNTS 58 62 0 0 0
M  V30 BEGIN ATOM
M  V30 1 C 5.957313 0.962001 5.368402 0
M  V30 2 O 5.448763 -0.116687 4.623039 0
M  V30 3 C 4.808214 -0.018534 3.409121 0
M  V30 4 C 4.383495 -1.209771 2.841724 0
M  V30 5 C 3.737211 -1.219358 1.637391 0
M  V30 6 C 3.462739 -0.089502 0.911483 0
M  V30 7 N 2.799857 -0.034954 -0.336802 0
M  V30 8 C 2.498596 1.134320 -1.099643 0
M  V30 9 C 1.102804 1.131520 -1.712547 0
M  V30 10 N 0.233942 0.176696 -1.050750 0
M  V30 11 C -0.932415 0.608810 -0.358548 0
M  V30 12 O -0.983404 1.875984 -0.471230 0
M  V30 13 C -1.763368 -0.402616 0.285644 0
M  V30 14 C -1.465451 -0.719133 1.593223 0
M  V30 15 N -2.168406 -1.640508 2.287287 0
M  V30 16 C -1.827016 -1.953274 3.673082 0
M  V30 17 C -3.194555 -2.269864 1.679119 0
M  V30 18 O -3.868045 -3.138208 2.311419 0
M  V30 19 C -3.558253 -2.010558 0.370701 0
M  V30 20 C -2.819642 -1.064129 -0.309498 0
M  V30 21 C -3.311865 -0.928437 -1.592238 0
M  V30 22 C -2.969272 -0.148597 -2.679710 0
M  V30 23 C -3.724591 -0.295077 -3.844548 0
M  V30 24 C -4.770408 -1.196759 -3.874535 0
M  V30 25 C -5.115459 -1.977580 -2.789790 0
M  V30 26 C -4.370204 -1.835228 -1.635501 0
M  V30 27 N -4.510913 -2.476688 -0.461260 0
M  V30 28 C -5.465932 -3.476712 -0.088430 0
M  V30 29 C 0.808342 -1.136511 -1.265720 0
M  V30 30 C 2.306155 -1.171646 -1.067109 0
M  V30 31 C 3.884734 1.095700 1.474915 0
M  V30 32 C 4.541207 1.149184 2.690021 0
M  V30 33 H 6.804972 0.604616 5.990848 0
M  V30 34 H 6.218467 1.805266 4.720960 0
M  V30 35 H 5.149968 1.313330 6.074043 0
M  V30 36 H 4.559342 -2.164821 3.350665 0
M  V30 37 H 3.423627 -2.165867 1.231477 0
M  V30 38 H 2.577617 2.091429 -0.578275 0
M  V30 39 H 3.265647 1.168323 -1.927977 0
M  V30 40 H 1.207132 0.873829 -2.804398 0
M  V30 41 H 0.614465 2.112325 -1.698760 0
M  V30 42 H -0.655542 -0.236980 2.106278 0
M  V30 43 H -1.128101 -2.789181 3.692030 0
M  V30 44 H -2.734512 -2.181514 4.276383 0
M  V30 45 H -1.377486 -1.058924 4.178458 0
M  V30 46 H -2.148882 0.547791 -2.631094 0
M  V30 47 H -3.493288 0.302357 -4.739120 0
M  V30 48 H -5.392851 -1.351395 -4.757677 0
M  V30 49 H -5.935978 -2.681127 -2.822352 0
M  V30 50 H -4.937883 -4.418267 0.161762 0
M  V30 51 H -6.032015 -3.203153 0.844391 0
M  V30 52 H -6.195113 -3.686641 -0.898716 0
M  V30 53 H 0.260198 -1.891276 -0.665043 0
M  V30 54 H 0.556755 -1.399241 -2.330514 0
M  V30 55 H 2.513040 -2.147064 -0.584177 0
M  V30 56 H 2.806968 -1.201184 -2.075220 0
M  V30 57 H 3.767002 2.075265 1.069228 0
M  V30 58 H 4.896884 2.040366 3.185351 0
M  V30 END ATOM
M  V30 BEGIN BOND
M  V30 1 1 1 2
M  V30 2 1 2 3
M  V30 3 2 3 4
M  V30 4 1 4 5
M  V30 5 2 5 6
M  V30 6 1 6 7
M  V30 7 1 7 8
M  V30 8 1 8 9
M  V30 9 1 9 10
M  V30 10 1 10 11
M  V30 11 2 11 12
M  V30 12 1 11 13
M  V30 13 2 13 14
M  V30 14 1 14 15
M  V30 15 1 15 16
M  V30 16 1 15 17
M  V30 17 2 17 18
M  V30 18 1 17 19
M  V30 19 2 19 20
M  V30 20 1 20 21
M  V30 21 2 21 22
M  V30 22 1 22 23
M  V30 23 2 23 24
M  V30 24 1 24 25
M  V30 25 2 25 26
M  V30 26 1 26 27
M  V30 27 1 27 28
M  V30 28 1 10 29
M  V30 29 1 29 30
M  V30 30 1 6 31
M  V30 31 2 31 32
M  V30 32 1 32 3
M  V30 33 1 30 7
M  V30 34 1 20 13
M  V30 35 1 26 21
M  V30 36 1 27 19
M  V30 37 1 1 33
M  V30 38 1 1 34
M  V30 39 1 1 35
M  V30 40 1 4 36
M  V30 41 1 5 37
M  V30 42 1 8 38
M  V30 43 1 8 39
M  V30 44 1 9 40
M  V30 45 1 9 41
M  V30 46 1 14 42
M  V30 47 1 16 43
M  V30 48 1 16 44
M  V30 49 1 16 45
M  V30 50 1 22 46
M  V30 51 1 23 47
M  V30 52 1 24 48
M  V30 53 1 25 49
M  V30 54 1 28 50
M  V30 55 1 28 51
M  V30 56 1 28 52
M  V30 57 1 29 53
M  V30 58 1 29 54
M  V30 59 1 30 55
M  V30 60 1 30 56
M  V30 61 1 31 57
M  V30 62 1 32 58
M  V30 END BOND
M  V30 END CTAB
M  END
>  <Dataset>  (701) 
ChEMBL_Kinases

>  <Ligand_Instance>  (701) 
nan

>  <PDB_ID>  (701) 
nan

>  <Standardized_SMILES>  (701) 
COc1ccc(N2CCN(C(=O)c3cn(C)c(=O)c4c3c3ccccc3n4C)CC2)cc1

>  <Name>  (701) 
nan

>  <Pocket>  (701) 
nan

>  <ATP_Site>  (701) 
nan

>  <Peripheral>  (701) 
nan

>  <Num_H_Atoms_ProtBoundConf>  (701) 
nan

>  <Num_Resolved_Atoms>  (701) 
nan

>  <Num_Not_Resolved_Atoms>  (701) 
nan

$$$$
CHEMBL1532225
     RDKit          3D

  0  0  0  0  0  0  0  0  0  0999 V3000
M  V30 BEGIN CTAB
M  V30 COUNTS 54 57 0 0 0
M  V30 BEGIN ATOM
M  V30 1 C -0.330175 -2.731703 2.913139 0
M  V30 2 N 0.935181 -3.454736 3.042119 0
M  V30 3 C 1.937774 -2.506992 3.406972 0
M  V30 4 C 2.221473 -1.645618 2.171796 0
M  V30 5 N 2.996849 -2.418351 1.244847 0
M  V30 6 C 4.315081 -2.038345 0.998388 0
M  V30 7 C 4.682204 -0.886060 0.161171 0
M  V30 8 C 4.133045 0.454994 0.442265 0
M  V30 9 N 2.723051 0.529390 0.192858 0
M  V30 10 C 1.815412 1.620760 0.404420 0
M  V30 11 O 2.389066 2.628765 0.884246 0
M  V30 12 C 0.397493 1.395394 0.037435 0
M  V30 13 C -0.640555 2.254882 0.141720 0
M  V30 14 C -1.867815 1.842420 -0.257544 0
M  V30 15 C -3.090043 2.483758 -0.270952 0
M  V30 16 O -3.215619 3.686756 0.144861 0
M  V30 17 N -4.191712 1.900241 -0.708741 0
M  V30 18 C -5.478010 2.616550 -0.703956 0
M  V30 19 C -4.301833 0.649450 -1.190158 0
M  V30 20 C -5.439603 0.031347 -1.651963 0
M  V30 21 C -5.357888 -1.272347 -2.116909 0
M  V30 22 C -4.160080 -1.979605 -2.132401 0
M  V30 23 C -2.995889 -1.395029 -1.677427 0
M  V30 24 C -3.143103 -0.086474 -1.224094 0
M  V30 25 C -1.981604 0.540899 -0.757437 0
M  V30 26 S -0.256286 -0.073979 -0.632232 0
M  V30 27 C 2.768103 -3.810489 1.420329 0
M  V30 28 C 1.327337 -4.116574 1.819582 0
M  V30 29 H -0.263687 -1.748365 3.442079 0
M  V30 30 H -1.125292 -3.337315 3.377451 0
M  V30 31 H -0.513515 -2.605765 1.815585 0
M  V30 32 H 2.872375 -3.037992 3.651144 0
M  V30 33 H 1.654314 -1.866115 4.252588 0
M  V30 34 H 2.779938 -0.771148 2.578134 0
M  V30 35 H 1.280416 -1.290168 1.728487 0
M  V30 36 H 4.926340 -1.964393 1.964925 0
M  V30 37 H 4.825158 -2.943102 0.499101 0
M  V30 38 H 5.808652 -0.792235 0.177070 0
M  V30 39 H 4.414756 -1.121784 -0.916116 0
M  V30 40 H 4.418709 0.834281 1.445618 0
M  V30 41 H 4.604891 1.203172 -0.266592 0
M  V30 42 H 2.308511 -0.350896 -0.239545 0
M  V30 43 H -0.462230 3.243827 0.541441 0
M  V30 44 H -5.366147 3.595549 -0.198455 0
M  V30 45 H -5.767066 2.870628 -1.760551 0
M  V30 46 H -6.263686 2.037185 -0.176356 0
M  V30 47 H -6.341774 0.598958 -1.623773 0
M  V30 48 H -6.252950 -1.768738 -2.485365 0
M  V30 49 H -4.060956 -2.997065 -2.490010 0
M  V30 50 H -2.027094 -1.869632 -1.654090 0
M  V30 51 H 3.425825 -4.280250 2.163185 0
M  V30 52 H 2.907215 -4.345460 0.452563 0
M  V30 53 H 1.306459 -5.203572 2.008273 0
M  V30 54 H 0.609943 -3.832361 1.019575 0
M  V30 END ATOM
M  V30 BEGIN BOND
M  V30 1 1 1 2
M  V30 2 1 2 3
M  V30 3 1 3 4
M  V30 4 1 4 5
M  V30 5 1 5 6
M  V30 6 1 6 7
M  V30 7 1 7 8
M  V30 8 1 8 9
M  V30 9 1 9 10
M  V30 10 2 10 11
M  V30 11 1 10 12
M  V30 12 2 12 13
M  V30 13 1 13 14
M  V30 14 1 14 15
M  V30 15 2 15 16
M  V30 16 1 15 17
M  V30 17 1 17 18
M  V30 18 1 17 19
M  V30 19 2 19 20
M  V30 20 1 20 21
M  V30 21 2 21 22
M  V30 22 1 22 23
M  V30 23 2 23 24
M  V30 24 1 24 25
M  V30 25 1 25 26
M  V30 26 1 5 27
M  V30 27 1 27 28
M  V30 28 1 28 2
M  V30 29 1 26 12
M  V30 30 2 25 14
M  V30 31 1 24 19
M  V30 32 1 1 29
M  V30 33 1 1 30
M  V30 34 1 1 31
M  V30 35 1 3 32
M  V30 36 1 3 33
M  V30 37 1 4 34
M  V30 38 1 4 35
M  V30 39 1 6 36
M  V30 40 1 6 37
M  V30 41 1 7 38
M  V30 42 1 7 39
M  V30 43 1 8 40
M  V30 44 1 8 41
M  V30 45 1 9 42
M  V30 46 1 13 43
M  V30 47 1 18 44
M  V30 48 1 18 45
M  V30 49 1 18 46
M  V30 50 1 20 47
M  V30 51 1 21 48
M  V30 52 1 22 49
M  V30 53 1 23 50
M  V30 54 1 27 51
M  V30 55 1 27 52
M  V30 56 1 28 53
M  V30 57 1 28 54
M  V30 END BOND
M  V30 END CTAB
M  END
>  <Dataset>  (702) 
ChEMBL_Kinases

>  <Ligand_Instance>  (702) 
nan

>  <PDB_ID>  (702) 
nan

>  <Standardized_SMILES>  (702) 
CN1CCN(CCCNC(=O)c2cc3c(=O)n(C)c4ccccc4c3s2)CC1

>  <Name>  (702) 
nan

>  <Pocket>  (702) 
nan

>  <ATP_Site>  (702) 
nan

>  <Peripheral>  (702) 
nan

>  <Num_H_Atoms_ProtBoundConf>  (702) 
nan

>  <Num_Resolved_Atoms>  (702) 
nan

>  <Num_Not_Resolved_Atoms>  (702) 
nan

$$$$
CHEMBL1532203
     RDKit          3D

  0  0  0  0  0  0  0  0  0  0999 V3000
M  V30 BEGIN CTAB
M  V30 COUNTS 25 26 0 0 0
M  V30 BEGIN ATOM
M  V30 1 C -0.240395 -2.720894 5.311437 0
M  V30 2 O -0.321702 -1.519074 4.576474 0
M  V30 3 C 0.116812 -1.513003 3.251280 0
M  V30 4 C 0.600786 -2.723551 2.779778 0
M  V30 5 C 1.030583 -2.677344 1.448472 0
M  V30 6 C 0.979367 -1.542187 0.678717 0
M  V30 7 S 1.405390 -1.127104 -0.941036 0
M  V30 8 C 0.847446 0.702946 -0.750987 0
M  V30 9 N 0.875575 1.773139 -1.706345 0
M  V30 10 C -0.158806 2.120781 -2.619543 0
M  V30 11 C 0.045671 3.270682 -3.545386 0
M  V30 12 O -1.205630 1.402362 -2.572073 0
M  V30 13 N 0.445686 0.732085 0.434308 0
M  V30 14 C 0.487260 -0.350427 1.189955 0
M  V30 15 C 0.045130 -0.348838 2.519466 0
M  V30 16 H -0.843998 -3.553314 4.847613 0
M  V30 17 H -0.503604 -2.571111 6.376202 0
M  V30 18 H 0.814226 -3.123064 5.318610 0
M  V30 19 H 0.656046 -3.629874 3.350677 0
M  V30 20 H 1.430303 -3.546466 0.952678 0
M  V30 21 H 1.770150 2.344977 -1.708694 0
M  V30 22 H -0.840565 3.294399 -4.243017 0
M  V30 23 H 0.992746 3.128052 -4.140359 0
M  V30 24 H 0.023748 4.248817 -3.027628 0
M  V30 25 H -0.366779 0.523374 3.049364 0
M  V30 END ATOM
M  V30 BEGIN BOND
M  V30 1 1 1 2
M  V30 2 1 2 3
M  V30 3 2 3 4
M  V30 4 1 4 5
M  V30 5 2 5 6
M  V30 6 1 6 7
M  V30 7 1 7 8
M  V30 8 1 8 9
M  V30 9 1 9 10
M  V30 10 1 10 11
M  V30 11 2 10 12
M  V30 12 2 8 13
M  V30 13 1 13 14
M  V30 14 2 14 15
M  V30 15 1 15 3
M  V30 16 1 14 6
M  V30 17 1 1 16
M  V30 18 1 1 17
M  V30 19 1 1 18
M  V30 20 1 4 19
M  V30 21 1 5 20
M  V30 22 1 9 21
M  V30 23 1 11 22
M  V30 24 1 11 23
M  V30 25 1 11 24
M  V30 26 1 15 25
M  V30 END BOND
M  V30 END CTAB
M  END
>  <Dataset>  (703) 
ChEMBL_Kinases

>  <Ligand_Instance>  (703) 
nan

>  <PDB_ID>  (703) 
nan

>  <Standardized_SMILES>  (703) 
COc1ccc2sc(NC(C)=O)nc2c1

>  <Name>  (703) 
nan

>  <Pocket>  (703) 
nan

>  <ATP_Site>  (703) 
nan

>  <Peripheral>  (703) 
nan

>  <Num_H_Atoms_ProtBoundConf>  (703) 
nan

>  <Num_Resolved_Atoms>  (703) 
nan

>  <Num_Not_Resolved_Atoms>  (703) 
nan

$$$$
CHEMBL1537869
     RDKit          3D

  0  0  0  0  0  0  0  0  0  0999 V3000
M  V30 BEGIN CTAB
M  V30 COUNTS 40 41 0 0 0
M  V30 BEGIN ATOM
M  V30 1 C -0.875363 -1.257276 3.399214 0
M  V30 2 C -0.226064 -1.640459 2.125871 0
M  V30 3 C 0.132410 -2.885513 1.878642 0
M  V30 4 C 0.771426 -3.518542 0.749069 0
M  V30 5 C 0.205654 -4.703229 0.260102 0
M  V30 6 C 0.695392 -5.448670 -0.789266 0
M  V30 7 C 1.835778 -4.983133 -1.401845 0
M  V30 8 C 2.454455 -3.819241 -0.975281 0
M  V30 9 C 1.894973 -3.147044 0.074771 0
M  V30 10 C 0.019410 -0.721428 1.051872 0
M  V30 11 O 0.435129 -0.565670 -0.081625 0
M  V30 12 N -0.136462 0.650615 0.778144 0
M  V30 13 C 0.255125 1.177962 -0.486737 0
M  V30 14 C -0.100695 2.637873 -0.631701 0
M  V30 15 C -1.565730 2.860631 -0.927918 0
M  V30 16 O 0.327677 3.415950 0.412257 0
M  V30 17 C 0.208037 2.843106 1.655486 0
M  V30 18 C 1.583445 2.427258 2.125138 0
M  V30 19 C -0.682215 1.632114 1.686674 0
M  V30 20 H -0.174863 -0.649003 3.992269 0
M  V30 21 H -1.145748 -2.209406 3.929665 0
M  V30 22 H -1.831355 -0.710561 3.272727 0
M  V30 23 H -0.092884 -3.602546 2.688690 0
M  V30 24 H -0.703468 -5.112917 0.716645 0
M  V30 25 H 0.222217 -6.346288 -1.120163 0
M  V30 26 H 2.273892 -5.529327 -2.241001 0
M  V30 27 H 3.335690 -3.480434 -1.465457 0
M  V30 28 H 2.407783 -2.265099 0.391097 0
M  V30 29 H -0.348827 0.656304 -1.285451 0
M  V30 30 H 1.307578 0.975275 -0.705827 0
M  V30 31 H 0.463687 2.981305 -1.525308 0
M  V30 32 H -2.125543 1.910527 -0.921226 0
M  V30 33 H -2.007855 3.650582 -0.271860 0
M  V30 34 H -1.729315 3.271994 -1.967475 0
M  V30 35 H -0.204879 3.549101 2.407815 0
M  V30 36 H 1.986025 3.209994 2.794440 0
M  V30 37 H 1.510677 1.469819 2.669836 0
M  V30 38 H 2.262311 2.260600 1.251521 0
M  V30 39 H -1.739963 1.870261 1.450595 0
M  V30 40 H -0.694061 1.296072 2.741428 0
M  V30 END ATOM
M  V30 BEGIN BOND
M  V30 1 1 1 2
M  V30 2 2 2 3
M  V30 3 1 3 4
M  V30 4 2 4 5
M  V30 5 1 5 6
M  V30 6 2 6 7
M  V30 7 1 7 8
M  V30 8 2 8 9
M  V30 9 1 2 10
M  V30 10 2 10 11
M  V30 11 1 10 12
M  V30 12 1 12 13
M  V30 13 1 13 14
M  V30 14 1 14 15
M  V30 15 1 14 16
M  V30 16 1 16 17
M  V30 17 1 17 18
M  V30 18 1 17 19
M  V30 19 1 9 4
M  V30 20 1 19 12
M  V30 21 1 1 20
M  V30 22 1 1 21
M  V30 23 1 1 22
M  V30 24 1 3 23
M  V30 25 1 5 24
M  V30 26 1 6 25
M  V30 27 1 7 26
M  V30 28 1 8 27
M  V30 29 1 9 28
M  V30 30 1 13 29
M  V30 31 1 13 30
M  V30 32 1 14 31
M  V30 33 1 15 32
M  V30 34 1 15 33
M  V30 35 1 15 34
M  V30 36 1 17 35
M  V30 37 1 18 36
M  V30 38 1 18 37
M  V30 39 1 18 38
M  V30 40 1 19 39
M  V30 41 1 19 40
M  V30 END BOND
M  V30 END CTAB
M  END
>  <Dataset>  (704) 
ChEMBL_Kinases

>  <Ligand_Instance>  (704) 
nan

>  <PDB_ID>  (704) 
nan

>  <Standardized_SMILES>  (704) 
C/C(=C/c1ccccc1)C(=O)N1CC(C)OC(C)C1

>  <Name>  (704) 
nan

>  <Pocket>  (704) 
nan

>  <ATP_Site>  (704) 
nan

>  <Peripheral>  (704) 
nan

>  <Num_H_Atoms_ProtBoundConf>  (704) 
nan

>  <Num_Resolved_Atoms>  (704) 
nan

>  <Num_Not_Resolved_Atoms>  (704) 
nan

$$$$
CHEMBL1530382
     RDKit          3D

  0  0  0  0  0  0  0  0  0  0999 V3000
M  V30 BEGIN CTAB
M  V30 COUNTS 37 40 0 0 0
M  V30 BEGIN ATOM
M  V30 1 C -0.005239 -7.243903 2.839295 0
M  V30 2 C -0.013405 -5.836696 2.305649 0
M  V30 3 C 0.058725 -5.568197 0.995040 0
M  V30 4 C 0.018278 -4.108052 0.966902 0
M  V30 5 N 0.064282 -3.381221 -0.122954 0
M  V30 6 C 0.021271 -1.978981 -0.092570 0
M  V30 7 O 0.065590 -1.267712 -1.090575 0
M  V30 8 C -0.078349 -1.381044 1.227021 0
M  V30 9 C -0.155379 -0.077072 1.305844 0
M  V30 10 C -0.169119 0.957640 0.286668 0
M  V30 11 C -0.929059 1.214844 -0.836405 0
M  V30 12 N -0.529391 2.293563 -1.491186 0
M  V30 13 C -1.138169 2.815464 -2.718316 0
M  V30 14 C 0.522428 2.829588 -0.850204 0
M  V30 15 C 1.328051 3.937647 -1.074676 0
M  V30 16 C 2.373050 4.250345 -0.211754 0
M  V30 17 C 2.586977 3.428393 0.874626 0
M  V30 18 C 1.791651 2.306079 1.125210 0
M  V30 19 C 0.751607 2.019446 0.240635 0
M  V30 20 C -0.131341 -2.139840 2.465163 0
M  V30 21 N -0.218627 -1.712325 3.661848 0
M  V30 22 N -0.078578 -3.569796 2.300332 0
M  V30 23 O -0.095040 -4.706393 3.108534 0
M  V30 24 H 1.042631 -7.592374 2.908842 0
M  V30 25 H -0.542964 -7.310275 3.795236 0
M  V30 26 H -0.513450 -7.942449 2.132374 0
M  V30 27 H 0.126659 -6.292567 0.217851 0
M  V30 28 H -0.229922 0.403722 2.274605 0
M  V30 29 H -1.773832 0.614005 -1.144635 0
M  V30 30 H -0.697579 3.795210 -2.942176 0
M  V30 31 H -0.901846 2.055868 -3.497782 0
M  V30 32 H -2.225373 2.877198 -2.572280 0
M  V30 33 H 1.144751 4.572581 -1.933914 0
M  V30 34 H 2.974842 5.122849 -0.426969 0
M  V30 35 H 3.401344 3.673164 1.545385 0
M  V30 36 H 2.014744 1.705755 1.994925 0
M  V30 37 H -0.262572 -0.720889 3.877382 0
M  V30 END ATOM
M  V30 BEGIN BOND
M  V30 1 1 1 2
M  V30 2 2 2 3
M  V30 3 1 3 4
M  V30 4 2 4 5
M  V30 5 1 5 6
M  V30 6 2 6 7
M  V30 7 1 6 8
M  V30 8 2 8 9
M  V30 9 1 9 10
M  V30 10 2 10 11
M  V30 11 1 11 12
M  V30 12 1 12 13
M  V30 13 1 12 14
M  V30 14 2 14 15
M  V30 15 1 15 16
M  V30 16 2 16 17
M  V30 17 1 17 18
M  V30 18 2 18 19
M  V30 19 1 8 20
M  V30 20 2 20 21 CFG=2
M  V30 21 1 20 22
M  V30 22 1 22 23
M  V30 23 1 23 2
M  V30 24 1 22 4
M  V30 25 1 19 10
M  V30 26 1 19 14
M  V30 27 1 1 24
M  V30 28 1 1 25
M  V30 29 1 1 26
M  V30 30 1 3 27
M  V30 31 1 9 28
M  V30 32 1 11 29
M  V30 33 1 13 30
M  V30 34 1 13 31
M  V30 35 1 13 32
M  V30 36 1 15 33
M  V30 37 1 16 34
M  V30 38 1 17 35
M  V30 39 1 18 36
M  V30 40 1 21 37
M  V30 END BOND
M  V30 END CTAB
M  END
>  <Dataset>  (705) 
ChEMBL_Kinases

>  <Ligand_Instance>  (705) 
nan

>  <PDB_ID>  (705) 
nan

>  <Standardized_SMILES>  (705) 
CC1=CC2=NC(=O)/C(=C\c3cn(C)c4ccccc34)C(=N)N2O1

>  <Name>  (705) 
nan

>  <Pocket>  (705) 
nan

>  <ATP_Site>  (705) 
nan

>  <Peripheral>  (705) 
nan

>  <Num_H_Atoms_ProtBoundConf>  (705) 
nan

>  <Num_Resolved_Atoms>  (705) 
nan

>  <Num_Not_Resolved_Atoms>  (705) 
nan

$$$$
CHEMBL1530519
     RDKit          3D

  0  0  0  0  0  0  0  0  0  0999 V3000
M  V30 BEGIN CTAB
M  V30 COUNTS 30 31 0 0 0
M  V30 BEGIN ATOM
M  V30 1 C -1.610389 -4.261418 2.236342 0
M  V30 2 O -0.227049 -4.403533 2.483080 0
M  V30 3 C 0.702490 -3.547662 1.912602 0
M  V30 4 C 2.047545 -3.778065 2.223578 0
M  V30 5 C 3.074952 -2.994776 1.719538 0
M  V30 6 C 2.786657 -1.938834 0.874693 0
M  V30 7 C 1.466689 -1.694089 0.554920 0
M  V30 8 C 1.066145 -0.585660 -0.340997 0
M  V30 9 N 1.604176 -0.072346 -1.473319 0
M  V30 10 N 0.822908 0.928404 -1.865886 0
M  V30 11 N -0.195655 1.086380 -1.039811 0
M  V30 12 C -1.281097 2.048972 -1.085673 0
M  V30 13 C -0.861790 3.303134 -0.307486 0
M  V30 14 C -0.568570 2.947495 1.105093 0
M  V30 15 O -1.554073 2.740855 1.873521 0
M  V30 16 O 0.661018 2.801655 1.734850 0
M  V30 17 N -0.040856 0.157483 -0.109706 0
M  V30 18 C 0.465598 -2.487148 1.069148 0
M  V30 19 H -1.902969 -3.207654 2.056654 0
M  V30 20 H -2.226198 -4.608046 3.094007 0
M  V30 21 H -1.887408 -4.824115 1.307222 0
M  V30 22 H 2.376176 -4.569909 2.867977 0
M  V30 23 H 4.109654 -3.170504 1.956982 0
M  V30 24 H 3.488282 -1.270309 0.426991 0
M  V30 25 H -2.142890 1.632993 -0.524065 0
M  V30 26 H -1.581159 2.299561 -2.098735 0
M  V30 27 H -1.698640 4.048683 -0.370114 0
M  V30 28 H 0.012724 3.716174 -0.837217 0
M  V30 29 H 0.861901 1.989057 2.313580 0
M  V30 30 H -0.565298 -2.303917 0.825136 0
M  V30 END ATOM
M  V30 BEGIN BOND
M  V30 1 1 1 2
M  V30 2 1 2 3
M  V30 3 2 3 4
M  V30 4 1 4 5
M  V30 5 2 5 6
M  V30 6 1 6 7
M  V30 7 1 7 8
M  V30 8 1 8 9
M  V30 9 2 9 10
M  V30 10 1 10 11
M  V30 11 1 11 12
M  V30 12 1 12 13
M  V30 13 1 13 14
M  V30 14 2 14 15
M  V30 15 1 14 16
M  V30 16 1 11 17
M  V30 17 2 7 18
M  V30 18 1 18 3
M  V30 19 2 17 8
M  V30 20 1 1 19
M  V30 21 1 1 20
M  V30 22 1 1 21
M  V30 23 1 4 22
M  V30 24 1 5 23
M  V30 25 1 6 24
M  V30 26 1 12 25
M  V30 27 1 12 26
M  V30 28 1 13 27
M  V30 29 1 13 28
M  V30 30 1 16 29
M  V30 31 1 18 30
M  V30 END BOND
M  V30 END CTAB
M  END
>  <Dataset>  (706) 
ChEMBL_Kinases

>  <Ligand_Instance>  (706) 
nan

>  <PDB_ID>  (706) 
nan

>  <Standardized_SMILES>  (706) 
COc1cccc(-c2nnn(CCC(=O)O)n2)c1

>  <Name>  (706) 
nan

>  <Pocket>  (706) 
nan

>  <ATP_Site>  (706) 
nan

>  <Peripheral>  (706) 
nan

>  <Num_H_Atoms_ProtBoundConf>  (706) 
nan

>  <Num_Resolved_Atoms>  (706) 
nan

>  <Num_Not_Resolved_Atoms>  (706) 
nan

$$$$
CHEMBL1530661
     RDKit          3D

  0  0  0  0  0  0  0  0  0  0999 V3000
M  V30 BEGIN CTAB
M  V30 COUNTS 31 33 0 0 0
M  V30 BEGIN ATOM
M  V30 1 C -2.818748 -1.900501 1.790802 0
M  V30 2 C -1.482907 -2.520099 1.586709 0
M  V30 3 C -1.083040 -3.736419 2.069905 0
M  V30 4 C 0.186685 -4.201953 1.830072 0
M  V30 5 C 1.081275 -3.458920 1.102849 0
M  V30 6 N 2.352137 -3.886834 0.862540 0
M  V30 7 C 3.194311 -3.121547 0.163029 0
M  V30 8 N 2.833969 -1.922686 -0.323987 0
M  V30 9 C 1.596290 -1.380710 -0.157356 0
M  V30 10 N 1.128239 -0.137443 -0.623499 0
M  V30 11 C 0.798379 1.153840 -0.160707 0
M  V30 12 C 0.541538 2.038801 -1.183153 0
M  V30 13 C 0.176331 3.324089 -0.885402 0
M  V30 14 C 0.067779 3.723595 0.443445 0
M  V30 15 C 0.341364 2.786422 1.411589 0
M  V30 16 C 0.712073 1.483119 1.176819 0
M  V30 17 C 0.789082 -2.238341 0.575971 0
M  V30 18 C -0.519073 -1.841834 0.865411 0
M  V30 19 H -2.660128 -1.102128 2.573400 0
M  V30 20 H -3.530833 -2.643512 2.192640 0
M  V30 21 H -3.210208 -1.367932 0.909757 0
M  V30 22 H -1.806702 -4.298280 2.644834 0
M  V30 23 H 0.500377 -5.182506 2.220833 0
M  V30 24 H 4.224855 -3.302526 -0.109473 0
M  V30 25 H 1.064506 -0.458728 -1.611518 0
M  V30 26 H 0.595887 1.823886 -2.247308 0
M  V30 27 H -0.036182 4.066138 -1.671894 0
M  V30 28 H -0.222548 4.742939 0.616717 0
M  V30 29 H 0.246934 3.133210 2.454866 0
M  V30 30 H 0.929529 0.760144 1.927148 0
M  V30 31 H -0.836532 -0.857600 0.470425 0
M  V30 END ATOM
M  V30 BEGIN BOND
M  V30 1 1 1 2
M  V30 2 2 2 3
M  V30 3 1 3 4
M  V30 4 2 4 5
M  V30 5 1 5 6
M  V30 6 2 6 7
M  V30 7 1 7 8
M  V30 8 2 8 9
M  V30 9 1 9 10
M  V30 10 1 10 11
M  V30 11 2 11 12
M  V30 12 1 12 13
M  V30 13 2 13 14
M  V30 14 1 14 15
M  V30 15 2 15 16
M  V30 16 1 9 17
M  V30 17 2 17 18
M  V30 18 1 18 2
M  V30 19 1 17 5
M  V30 20 1 16 11
M  V30 21 1 1 19
M  V30 22 1 1 20
M  V30 23 1 1 21
M  V30 24 1 3 22
M  V30 25 1 4 23
M  V30 26 1 7 24
M  V30 27 1 10 25
M  V30 28 1 12 26
M  V30 29 1 13 27
M  V30 30 1 14 28
M  V30 31 1 15 29
M  V30 32 1 16 30
M  V30 33 1 18 31
M  V30 END BOND
M  V30 END CTAB
M  END
>  <Dataset>  (707) 
ChEMBL_Kinases

>  <Ligand_Instance>  (707) 
nan

>  <PDB_ID>  (707) 
nan

>  <Standardized_SMILES>  (707) 
Cc1ccc2ncnc(Nc3ccccc3)c2c1

>  <Name>  (707) 
nan

>  <Pocket>  (707) 
nan

>  <ATP_Site>  (707) 
nan

>  <Peripheral>  (707) 
nan

>  <Num_H_Atoms_ProtBoundConf>  (707) 
nan

>  <Num_Resolved_Atoms>  (707) 
nan

>  <Num_Not_Resolved_Atoms>  (707) 
nan

$$$$
CHEMBL1530816
     RDKit          3D

  0  0  0  0  0  0  0  0  0  0999 V3000
M  V30 BEGIN CTAB
M  V30 COUNTS 38 40 0 0 0
M  V30 BEGIN ATOM
M  V30 1 C 0.725954 -2.511044 3.883930 0
M  V30 2 C 0.562489 -1.480857 2.825929 0
M  V30 3 C 0.333031 -1.754617 1.471590 0
M  V30 4 C 0.193414 -0.702667 0.555704 0
M  V30 5 N -0.052960 -1.254080 -0.726220 0
M  V30 6 C -1.144489 -1.317616 -1.689332 0
M  V30 7 C -1.537350 -2.796308 -1.794873 0
M  V30 8 O -0.663794 -3.629211 -1.125614 0
M  V30 9 C 0.655479 -3.423112 -1.446082 0
M  V30 10 C 1.091456 -1.991017 -1.289382 0
M  V30 11 C 0.291900 0.578041 1.044085 0
M  V30 12 C 0.145293 1.521493 0.056613 0
M  V30 13 N -0.074553 1.250537 -1.313771 0
M  V30 14 C 0.224841 2.850469 0.399669 0
M  V30 15 Br 0.046307 4.284306 -0.829920 0
M  V30 16 C 0.452283 3.166522 1.743136 0
M  V30 17 C 0.595575 2.172034 2.712005 0
M  V30 18 C 0.838136 2.499789 4.144853 0
M  V30 19 C 0.517032 0.837611 2.374642 0
M  V30 20 N 0.644657 -0.198189 3.220737 0
M  V30 21 H 1.417313 -2.144849 4.647929 0
M  V30 22 H 0.979429 -3.505403 3.458394 0
M  V30 23 H -0.270871 -2.653288 4.377522 0
M  V30 24 H 0.294376 -2.840985 1.320109 0
M  V30 25 H -2.023181 -0.708734 -1.387134 0
M  V30 26 H -0.776387 -1.033430 -2.676942 0
M  V30 27 H -1.739500 -3.094131 -2.844433 0
M  V30 28 H -2.533226 -2.931972 -1.279824 0
M  V30 29 H 1.246240 -4.080592 -0.743460 0
M  V30 30 H 0.840978 -3.834051 -2.465269 0
M  V30 31 H 1.984677 -1.952708 -0.641139 0
M  V30 32 H 1.316621 -1.559702 -2.303679 0
M  V30 33 H -1.077014 1.554075 -1.506456 0
M  V30 34 H 0.781931 0.842000 -1.744860 0
M  V30 35 H 0.533963 4.176102 2.133719 0
M  V30 36 H 1.267436 3.534691 4.155842 0
M  V30 37 H -0.103003 2.544290 4.720747 0
M  V30 38 H 1.490237 1.765468 4.643415 0
M  V30 END ATOM
M  V30 BEGIN BOND
M  V30 1 1 1 2
M  V30 2 2 2 3
M  V30 3 1 3 4
M  V30 4 1 4 5
M  V30 5 1 5 6
M  V30 6 1 6 7
M  V30 7 1 7 8
M  V30 8 1 8 9
M  V30 9 1 9 10
M  V30 10 2 4 11
M  V30 11 1 11 12
M  V30 12 1 12 13
M  V30 13 2 12 14
M  V30 14 1 14 15
M  V30 15 1 14 16
M  V30 16 2 16 17
M  V30 17 1 17 18
M  V30 18 1 17 19
M  V30 19 2 19 20
M  V30 20 1 20 2
M  V30 21 1 10 5
M  V30 22 1 19 11
M  V30 23 1 1 21
M  V30 24 1 1 22
M  V30 25 1 1 23
M  V30 26 1 3 24
M  V30 27 1 6 25
M  V30 28 1 6 26
M  V30 29 1 7 27
M  V30 30 1 7 28
M  V30 31 1 9 29
M  V30 32 1 9 30
M  V30 33 1 10 31
M  V30 34 1 10 32
M  V30 35 1 13 33
M  V30 36 1 13 34
M  V30 37 1 16 35
M  V30 38 1 18 36
M  V30 39 1 18 37
M  V30 40 1 18 38
M  V30 END BOND
M  V30 END CTAB
M  END
>  <Dataset>  (708) 
ChEMBL_Kinases

>  <Ligand_Instance>  (708) 
nan

>  <PDB_ID>  (708) 
nan

>  <Standardized_SMILES>  (708) 
Cc1cc(N2CCOCC2)c2c(N)c(Br)cc(C)c2n1

>  <Name>  (708) 
nan

>  <Pocket>  (708) 
nan

>  <ATP_Site>  (708) 
nan

>  <Peripheral>  (708) 
nan

>  <Num_H_Atoms_ProtBoundConf>  (708) 
nan

>  <Num_Resolved_Atoms>  (708) 
nan

>  <Num_Not_Resolved_Atoms>  (708) 
nan

$$$$
CHEMBL1530831
     RDKit          3D

  0  0  0  0  0  0  0  0  0  0999 V3000
M  V30 BEGIN CTAB
M  V30 COUNTS 45 48 0 0 0
M  V30 BEGIN ATOM
M  V30 1 O 0.803249 -2.386832 0.054787 0
M  V30 2 C -0.300892 -2.996526 0.124469 0
M  V30 3 C 0.114181 -3.239051 -1.258770 0
M  V30 4 S 1.717337 -2.378585 -1.485269 0
M  V30 5 C 1.512364 -0.621284 -1.369975 0
M  V30 6 N 1.236545 0.038501 -2.509801 0
M  V30 7 C 1.052747 1.368680 -2.592823 0
M  V30 8 C 0.756178 2.024475 -3.861875 0
M  V30 9 C 0.617915 1.457088 -5.113796 0
M  V30 10 C 0.339177 2.503324 -5.982002 0
M  V30 11 C 0.321395 3.667841 -5.207716 0
M  V30 12 O 0.571011 3.324324 -3.981729 0
M  V30 13 C 1.144500 2.145686 -1.457244 0
M  V30 14 C 1.427258 1.472462 -0.287437 0
M  V30 15 C 1.537016 2.258683 0.966945 0
M  V30 16 F 2.392360 3.347156 0.781481 0
M  V30 17 F 2.048943 1.512084 2.004187 0
M  V30 18 F 0.320399 2.802388 1.338844 0
M  V30 19 N 1.601612 0.139681 -0.261482 0
M  V30 20 N -1.346919 -3.284151 1.024711 0
M  V30 21 C -1.090264 -2.702760 2.273127 0
M  V30 22 C -1.589041 -1.414883 2.403610 0
M  V30 23 C -1.407374 -0.719216 3.590511 0
M  V30 24 C -0.713200 -1.383070 4.604675 0
M  V30 25 C -0.228717 -2.658707 4.451221 0
M  V30 26 C -0.405924 -3.353013 3.276935 0
M  V30 27 C 0.447351 -3.065117 5.694076 0
M  V30 28 C 0.669068 -1.756681 6.444285 0
M  V30 29 C -0.409476 -0.821629 5.950443 0
M  V30 30 H 0.279319 -4.323426 -1.418306 0
M  V30 31 H -0.618931 -2.930369 -2.020566 0
M  V30 32 H 0.716751 0.400073 -5.322631 0
M  V30 33 H 0.172518 2.389383 -7.064025 0
M  V30 34 H 0.126556 4.620404 -5.646010 0
M  V30 35 H 1.010479 3.206915 -1.449164 0
M  V30 36 H -1.997287 -3.859534 0.445226 0
M  V30 37 H -2.128916 -0.892174 1.622848 0
M  V30 38 H -1.790269 0.280686 3.702213 0
M  V30 39 H -0.033512 -4.353990 3.136303 0
M  V30 40 H 1.380427 -3.633172 5.535889 0
M  V30 41 H -0.253752 -3.668209 6.341385 0
M  V30 42 H 1.659542 -1.346346 6.254437 0
M  V30 43 H 0.525516 -1.866328 7.541869 0
M  V30 44 H -0.017310 0.208503 5.896172 0
M  V30 45 H -1.341096 -0.886287 6.550118 0
M  V30 END ATOM
M  V30 BEGIN BOND
M  V30 1 2 1 2
M  V30 2 1 2 3
M  V30 3 1 3 4
M  V30 4 1 4 5
M  V30 5 2 5 6
M  V30 6 1 6 7
M  V30 7 1 7 8
M  V30 8 2 8 9
M  V30 9 1 9 10
M  V30 10 2 10 11
M  V30 11 1 11 12
M  V30 12 2 7 13
M  V30 13 1 13 14
M  V30 14 1 14 15
M  V30 15 1 15 16
M  V30 16 1 15 17
M  V30 17 1 15 18
M  V30 18 2 14 19
M  V30 19 1 2 20
M  V30 20 1 20 21
M  V30 21 2 21 22
M  V30 22 1 22 23
M  V30 23 2 23 24
M  V30 24 1 24 25
M  V30 25 2 25 26
M  V30 26 1 25 27
M  V30 27 1 27 28
M  V30 28 1 28 29
M  V30 29 1 19 5
M  V30 30 1 26 21
M  V30 31 1 12 8
M  V30 32 1 29 24
M  V30 33 1 3 30
M  V30 34 1 3 31
M  V30 35 1 9 32
M  V30 36 1 10 33
M  V30 37 1 11 34
M  V30 38 1 13 35
M  V30 39 1 20 36
M  V30 40 1 22 37
M  V30 41 1 23 38
M  V30 42 1 26 39
M  V30 43 1 27 40
M  V30 44 1 27 41
M  V30 45 1 28 42
M  V30 46 1 28 43
M  V30 47 1 29 44
M  V30 48 1 29 45
M  V30 END BOND
M  V30 END CTAB
M  END
>  <Dataset>  (709) 
ChEMBL_Kinases

>  <Ligand_Instance>  (709) 
nan

>  <PDB_ID>  (709) 
nan

>  <Standardized_SMILES>  (709) 
O=C(CSc1nc(-c2ccco2)cc(C(F)(F)F)n1)Nc1ccc2c(c1)CCC2

>  <Name>  (709) 
nan

>  <Pocket>  (709) 
nan

>  <ATP_Site>  (709) 
nan

>  <Peripheral>  (709) 
nan

>  <Num_H_Atoms_ProtBoundConf>  (709) 
nan

>  <Num_Resolved_Atoms>  (709) 
nan

>  <Num_Not_Resolved_Atoms>  (709) 
nan

$$$$
CHEMBL1531054
     RDKit          3D

  0  0  0  0  0  0  0  0  0  0999 V3000
M  V30 BEGIN CTAB
M  V30 COUNTS 39 41 0 0 0
M  V30 BEGIN ATOM
M  V30 1 C 1.801200 -5.760875 3.185504 0
M  V30 2 O 0.655600 -5.229295 2.513766 0
M  V30 3 C 0.696450 -3.986254 1.902188 0
M  V30 4 C 1.831072 -3.213228 1.911351 0
M  V30 5 C 1.849790 -1.979861 1.296495 0
M  V30 6 N 2.974564 -1.205794 1.300846 0
M  V30 7 C 2.947875 0.005958 0.680098 0
M  V30 8 N 1.849570 0.464361 0.063226 0
M  V30 9 C 0.724801 -0.221023 0.014223 0
M  V30 10 N -0.434184 0.292591 -0.653284 0
M  V30 11 C -0.465169 1.551649 -1.299000 0
M  V30 12 C -0.234148 2.764205 -0.554439 0
M  V30 13 C 0.925617 3.482964 -0.334958 0
M  V30 14 C 1.029526 4.623372 0.402911 0
M  V30 15 C -0.104786 5.139062 1.001232 0
M  V30 16 Cl 0.092686 6.599122 1.931566 0
M  V30 17 C -1.287382 4.473643 0.821991 0
M  V30 18 C -1.348176 3.334519 0.075543 0
M  V30 19 C 0.758071 -1.448648 0.645286 0
M  V30 20 C -0.359731 -2.254750 0.658799 0
M  V30 21 C -0.417996 -3.490796 1.261116 0
M  V30 22 O -1.551637 -4.294695 1.267909 0
M  V30 23 C -2.702824 -3.795361 0.611702 0
M  V30 24 H 2.614571 -5.982516 2.483776 0
M  V30 25 H 2.186296 -5.045145 3.926192 0
M  V30 26 H 1.514516 -6.691913 3.714644 0
M  V30 27 H 2.748153 -3.555159 2.405988 0
M  V30 28 H 3.805782 0.668488 0.646977 0
M  V30 29 H -1.324767 -0.253065 -0.691006 0
M  V30 30 H 0.302529 1.508226 -2.134972 0
M  V30 31 H -1.421330 1.677025 -1.843682 0
M  V30 32 H 1.807730 3.078134 -0.812285 0
M  V30 33 H 1.989890 5.096716 0.503694 0
M  V30 34 H -2.138981 4.921805 1.311679 0
M  V30 35 H -2.342703 2.911057 0.015461 0
M  V30 36 H -1.292892 -1.979404 0.192325 0
M  V30 37 H -3.595134 -4.435169 0.794634 0
M  V30 38 H -2.505452 -3.627742 -0.480182 0
M  V30 39 H -2.992031 -2.783007 1.008803 0
M  V30 END ATOM
M  V30 BEGIN BOND
M  V30 1 1 1 2
M  V30 2 1 2 3
M  V30 3 2 3 4
M  V30 4 1 4 5
M  V30 5 2 5 6
M  V30 6 1 6 7
M  V30 7 2 7 8
M  V30 8 1 8 9
M  V30 9 1 9 10
M  V30 10 1 10 11
M  V30 11 1 11 12
M  V30 12 2 12 13
M  V30 13 1 13 14
M  V30 14 2 14 15
M  V30 15 1 15 16
M  V30 16 1 15 17
M  V30 17 2 17 18
M  V30 18 2 9 19
M  V30 19 1 19 20
M  V30 20 2 20 21
M  V30 21 1 21 22
M  V30 22 1 22 23
M  V30 23 1 21 3
M  V30 24 1 19 5
M  V30 25 1 18 12
M  V30 26 1 1 24
M  V30 27 1 1 25
M  V30 28 1 1 26
M  V30 29 1 4 27
M  V30 30 1 7 28
M  V30 31 1 10 29
M  V30 32 1 11 30
M  V30 33 1 11 31
M  V30 34 1 13 32
M  V30 35 1 14 33
M  V30 36 1 17 34
M  V30 37 1 18 35
M  V30 38 1 20 36
M  V30 39 1 23 37
M  V30 40 1 23 38
M  V30 41 1 23 39
M  V30 END BOND
M  V30 END CTAB
M  END
>  <Dataset>  (710) 
ChEMBL_Kinases

>  <Ligand_Instance>  (710) 
nan

>  <PDB_ID>  (710) 
nan

>  <Standardized_SMILES>  (710) 
COc1cc2ncnc(NCc3ccc(Cl)cc3)c2cc1OC

>  <Name>  (710) 
nan

>  <Pocket>  (710) 
nan

>  <ATP_Site>  (710) 
nan

>  <Peripheral>  (710) 
nan

>  <Num_H_Atoms_ProtBoundConf>  (710) 
nan

>  <Num_Resolved_Atoms>  (710) 
nan

>  <Num_Not_Resolved_Atoms>  (710) 
nan

$$$$
CHEMBL1531073
     RDKit          3D

  0  0  0  0  0  0  0  0  0  0999 V3000
M  V30 BEGIN CTAB
M  V30 COUNTS 30 33 0 0 0
M  V30 BEGIN ATOM
M  V30 1 O 1.038491 -2.001341 6.040120 0
M  V30 2 S 1.224288 -2.630835 4.695809 0
M  V30 3 O 1.522146 -4.094173 4.781650 0
M  V30 4 C 2.364088 -1.756798 3.697899 0
M  V30 5 C 1.709212 -1.291805 2.680029 0
M  V30 6 S 2.823865 -0.380904 1.611462 0
M  V30 7 C 1.957955 0.265353 0.186324 0
M  V30 8 N 1.872456 -0.486984 -0.932731 0
M  V30 9 C 1.171877 0.208315 -1.879262 0
M  V30 10 C 0.798658 -0.091286 -3.186556 0
M  V30 11 C 0.070876 0.889407 -3.860278 0
M  V30 12 Cl -0.423203 0.551986 -5.519837 0
M  V30 13 C -0.276555 2.095299 -3.297683 0
M  V30 14 C 0.126284 2.314383 -2.011541 0
M  V30 15 C 0.846185 1.418768 -1.255899 0
M  V30 16 O 1.328518 1.417178 -0.032307 0
M  V30 17 C 0.325304 -1.583261 2.624163 0
M  V30 18 C -0.593966 -1.213518 1.661048 0
M  V30 19 C -1.905386 -1.593437 1.778880 0
M  V30 20 C -2.398068 -2.345561 2.824988 0
M  V30 21 C -1.468441 -2.707357 3.779112 0
M  V30 22 C -0.148768 -2.322697 3.656727 0
M  V30 23 H 3.320688 -1.832676 4.192097 0
M  V30 24 H 1.069968 -1.040352 -3.634695 0
M  V30 25 H -0.850965 2.830341 -3.876107 0
M  V30 26 H -0.138540 3.260822 -1.550083 0
M  V30 27 H -0.309185 -0.624515 0.803706 0
M  V30 28 H -2.645381 -1.303351 1.015977 0
M  V30 29 H -3.418656 -2.665011 2.955835 0
M  V30 30 H -1.790867 -3.303130 4.634058 0
M  V30 END ATOM
M  V30 BEGIN BOND
M  V30 1 2 1 2
M  V30 2 2 2 3
M  V30 3 1 2 4
M  V30 4 2 4 5
M  V30 5 1 5 6
M  V30 6 1 6 7
M  V30 7 2 7 8
M  V30 8 1 8 9
M  V30 9 2 9 10
M  V30 10 1 10 11
M  V30 11 1 11 12
M  V30 12 2 11 13
M  V30 13 1 13 14
M  V30 14 2 14 15
M  V30 15 1 15 16
M  V30 16 1 5 17
M  V30 17 2 17 18
M  V30 18 1 18 19
M  V30 19 2 19 20
M  V30 20 1 20 21
M  V30 21 2 21 22
M  V30 22 1 22 2
M  V30 23 1 16 7
M  V30 24 1 22 17
M  V30 25 1 15 9
M  V30 26 1 4 23
M  V30 27 1 10 24
M  V30 28 1 13 25
M  V30 29 1 14 26
M  V30 30 1 18 27
M  V30 31 1 19 28
M  V30 32 1 20 29
M  V30 33 1 21 30
M  V30 END BOND
M  V30 END CTAB
M  END
>  <Dataset>  (711) 
ChEMBL_Kinases

>  <Ligand_Instance>  (711) 
nan

>  <PDB_ID>  (711) 
nan

>  <Standardized_SMILES>  (711) 
O=S1(=O)C=C(Sc2nc3cc(Cl)ccc3o2)c2ccccc21

>  <Name>  (711) 
nan

>  <Pocket>  (711) 
nan

>  <ATP_Site>  (711) 
nan

>  <Peripheral>  (711) 
nan

>  <Num_H_Atoms_ProtBoundConf>  (711) 
nan

>  <Num_Resolved_Atoms>  (711) 
nan

>  <Num_Not_Resolved_Atoms>  (711) 
nan

$$$$
CHEMBL1532135
     RDKit          3D

  0  0  0  0  0  0  0  0  0  0999 V3000
M  V30 BEGIN CTAB
M  V30 COUNTS 47 49 0 0 0
M  V30 BEGIN ATOM
M  V30 1 C 0.963383 -3.668064 1.458170 0
M  V30 2 C 0.695620 -4.352643 0.165034 0
M  V30 3 N 0.637953 -5.688973 -0.090892 0
M  V30 4 C 0.370078 -5.863111 -1.394214 0
M  V30 5 C 0.254559 -4.638654 -1.980924 0
M  V30 6 N 0.458278 -3.707594 -1.004912 0
M  V30 7 C 0.406486 -2.264675 -1.284677 0
M  V30 8 C -0.985356 -1.756084 -1.100706 0
M  V30 9 C -1.160244 -0.293673 -1.359166 0
M  V30 10 N -0.374652 0.562400 -0.520851 0
M  V30 11 C 0.959500 1.062892 -0.756977 0
M  V30 12 O 1.766165 0.621677 -1.629884 0
M  V30 13 O 1.069549 2.094256 0.195397 0
M  V30 14 C 0.399133 1.624379 1.352126 0
M  V30 15 C 0.119455 2.777914 2.277277 0
M  V30 16 C 0.993251 2.703200 3.513458 0
M  V30 17 C 0.571463 1.440770 4.235911 0
M  V30 18 C 1.002654 0.279188 3.405663 0
M  V30 19 C 1.265601 0.567757 1.969986 0
M  V30 20 C -0.870767 1.056154 0.750842 0
M  V30 21 C -1.857855 2.184833 0.575471 0
M  V30 22 O -1.396975 0.043963 1.539026 0
M  V30 23 H 1.803991 -2.953356 1.363426 0
M  V30 24 H 1.272391 -4.422282 2.211162 0
M  V30 25 H 0.023998 -3.203775 1.834520 0
M  V30 26 H 0.248564 -6.783450 -1.969446 0
M  V30 27 H 0.039862 -4.415941 -3.032427 0
M  V30 28 H 0.708612 -2.091281 -2.336410 0
M  V30 29 H 1.128330 -1.825455 -0.549996 0
M  V30 30 H -1.410202 -2.014337 -0.111459 0
M  V30 31 H -1.627748 -2.290200 -1.831900 0
M  V30 32 H -2.218934 -0.041922 -1.282693 0
M  V30 33 H -0.865741 -0.116160 -2.411234 0
M  V30 34 H -0.933719 2.860175 2.577726 0
M  V30 35 H 0.358639 3.746415 1.768139 0
M  V30 36 H 0.777511 3.574482 4.159066 0
M  V30 37 H 2.062086 2.658940 3.224165 0
M  V30 38 H -0.523660 1.490435 4.386344 0
M  V30 39 H 1.043677 1.445891 5.239500 0
M  V30 40 H 1.985523 -0.066112 3.841026 0
M  V30 41 H 0.313678 -0.560511 3.576836 0
M  V30 42 H 1.097744 -0.375847 1.404684 0
M  V30 43 H 2.355157 0.805554 1.793283 0
M  V30 44 H -2.533673 2.185578 1.461032 0
M  V30 45 H -1.380699 3.183729 0.525674 0
M  V30 46 H -2.507930 2.012427 -0.304361 0
M  V30 47 H -1.914649 0.466818 2.269782 0
M  V30 END ATOM
M  V30 BEGIN BOND
M  V30 1 1 1 2
M  V30 2 2 2 3
M  V30 3 1 3 4
M  V30 4 2 4 5
M  V30 5 1 5 6
M  V30 6 1 6 7
M  V30 7 1 7 8
M  V30 8 1 8 9
M  V30 9 1 9 10
M  V30 10 1 10 11
M  V30 11 2 11 12
M  V30 12 1 11 13
M  V30 13 1 13 14
M  V30 14 1 14 15
M  V30 15 1 15 16
M  V30 16 1 16 17
M  V30 17 1 17 18
M  V30 18 1 18 19
M  V30 19 1 14 20
M  V30 20 1 20 21
M  V30 21 1 20 22
M  V30 22 1 6 2
M  V30 23 1 20 10
M  V30 24 1 19 14
M  V30 25 1 1 23
M  V30 26 1 1 24
M  V30 27 1 1 25
M  V30 28 1 4 26
M  V30 29 1 5 27
M  V30 30 1 7 28
M  V30 31 1 7 29
M  V30 32 1 8 30
M  V30 33 1 8 31
M  V30 34 1 9 32
M  V30 35 1 9 33
M  V30 36 1 15 34
M  V30 37 1 15 35
M  V30 38 1 16 36
M  V30 39 1 16 37
M  V30 40 1 17 38
M  V30 41 1 17 39
M  V30 42 1 18 40
M  V30 43 1 18 41
M  V30 44 1 19 42
M  V30 45 1 19 43
M  V30 46 1 21 44
M  V30 47 1 21 45
M  V30 48 1 21 46
M  V30 49 1 22 47
M  V30 END BOND
M  V30 END CTAB
M  END
>  <Dataset>  (712) 
ChEMBL_Kinases

>  <Ligand_Instance>  (712) 
nan

>  <PDB_ID>  (712) 
nan

>  <Standardized_SMILES>  (712) 
Cc1nccn1CCCN1C(=O)OC2(CCCCC2)C1(C)O

>  <Name>  (712) 
nan

>  <Pocket>  (712) 
nan

>  <ATP_Site>  (712) 
nan

>  <Peripheral>  (712) 
nan

>  <Num_H_Atoms_ProtBoundConf>  (712) 
nan

>  <Num_Resolved_Atoms>  (712) 
nan

>  <Num_Not_Resolved_Atoms>  (712) 
nan

$$$$
CHEMBL1531262
     RDKit          3D

  0  0  0  0  0  0  0  0  0  0999 V3000
M  V30 BEGIN CTAB
M  V30 COUNTS 62 65 0 0 0
M  V30 BEGIN ATOM
M  V30 1 C 3.697951 0.269430 6.801888 0
M  V30 2 C 3.192821 0.294848 5.423365 0
M  V30 3 C 3.806129 1.092775 4.477313 0
M  V30 4 C 3.375472 1.161164 3.166855 0
M  V30 5 C 2.281350 0.387246 2.813896 0
M  V30 6 S 1.695903 0.448870 1.140023 0
M  V30 7 O 1.170076 -0.865669 0.712649 0
M  V30 8 O 2.891753 0.744215 0.274852 0
M  V30 9 C 0.470154 1.765986 1.033224 0
M  V30 10 N -0.086612 1.947620 -0.233113 0
M  V30 11 N 0.594011 2.721592 -1.102225 0
M  V30 12 N -0.027088 2.777930 -2.261597 0
M  V30 13 N -1.087789 2.047610 -2.124024 0
M  V30 14 C -1.183355 1.505729 -0.890484 0
M  V30 15 C -2.272652 0.681073 -0.401604 0
M  V30 16 C -2.581925 0.615595 1.019359 0
M  V30 17 C -2.952413 1.980310 1.622826 0
M  V30 18 C -3.975442 -0.067409 1.080411 0
M  V30 19 N -2.508434 -0.577203 -1.037805 0
M  V30 20 C -2.472390 -0.538454 -2.476860 0
M  V30 21 C -2.480969 -1.937463 -3.072369 0
M  V30 22 N -1.357011 -2.693254 -2.646740 0
M  V30 23 C -1.154178 -3.980270 -3.147238 0
M  V30 24 C 0.086939 -4.564292 -2.552008 0
M  V30 25 C 1.344179 -4.404068 -3.095364 0
M  V30 26 C 2.254501 -5.069417 -2.298678 0
M  V30 27 C 1.479917 -5.612002 -1.288133 0
M  V30 28 O 0.209095 -5.296354 -1.466612 0
M  V30 29 C -0.757764 -2.281538 -1.438572 0
M  V30 30 C -1.820481 -1.717533 -0.508775 0
M  V30 31 C 1.650116 -0.418068 3.738184 0
M  V30 32 C 2.107660 -0.465249 5.050179 0
M  V30 33 H 2.847945 0.391640 7.529989 0
M  V30 34 H 4.268346 -0.643616 7.019159 0
M  V30 35 H 4.370761 1.124612 7.025453 0
M  V30 36 H 4.661868 1.717656 4.691161 0
M  V30 37 H 3.868374 1.796420 2.424705 0
M  V30 38 H 1.047466 2.674814 1.355703 0
M  V30 39 H -0.177330 1.596441 1.900131 0
M  V30 40 H -3.208324 1.267544 -0.787118 0
M  V30 41 H -2.004303 0.001109 1.692311 0
M  V30 42 H -2.205928 2.750765 1.460890 0
M  V30 43 H -3.851148 2.319204 1.026694 0
M  V30 44 H -3.300433 1.819445 2.644050 0
M  V30 45 H -4.194525 -0.216701 2.157732 0
M  V30 46 H -4.724975 0.667169 0.710806 0
M  V30 47 H -3.955133 -0.985915 0.481366 0
M  V30 48 H -1.525400 -0.082972 -2.797544 0
M  V30 49 H -3.306797 0.039126 -2.886378 0
M  V30 50 H -2.444709 -1.817461 -4.171478 0
M  V30 51 H -3.413761 -2.431118 -2.807024 0
M  V30 52 H -1.035367 -3.958264 -4.255186 0
M  V30 53 H -1.970369 -4.712341 -2.921094 0
M  V30 54 H 1.673564 -3.873407 -3.981741 0
M  V30 55 H 3.324914 -5.229958 -2.309579 0
M  V30 56 H 1.758282 -6.217880 -0.431694 0
M  V30 57 H -0.278165 -3.095744 -0.905570 0
M  V30 58 H 0.018615 -1.521263 -1.684177 0
M  V30 59 H -1.474307 -1.511858 0.492035 0
M  V30 60 H -2.573121 -2.558768 -0.439330 0
M  V30 61 H 0.812694 -0.981693 3.374059 0
M  V30 62 H 1.600563 -1.102976 5.762556 0
M  V30 END ATOM
M  V30 BEGIN BOND
M  V30 1 1 1 2
M  V30 2 2 2 3
M  V30 3 1 3 4
M  V30 4 2 4 5
M  V30 5 1 5 6
M  V30 6 2 6 7
M  V30 7 2 6 8
M  V30 8 1 6 9
M  V30 9 1 9 10
M  V30 10 1 10 11
M  V30 11 2 11 12
M  V30 12 1 12 13
M  V30 13 2 13 14
M  V30 14 1 14 15
M  V30 15 1 15 16
M  V30 16 1 16 17
M  V30 17 1 16 18
M  V30 18 1 15 19
M  V30 19 1 19 20
M  V30 20 1 20 21
M  V30 21 1 21 22
M  V30 22 1 22 23
M  V30 23 1 23 24
M  V30 24 2 24 25
M  V30 25 1 25 26
M  V30 26 2 26 27
M  V30 27 1 27 28
M  V30 28 1 22 29
M  V30 29 1 29 30
M  V30 30 1 5 31
M  V30 31 2 31 32
M  V30 32 1 32 2
M  V30 33 1 14 10
M  V30 34 1 30 19
M  V30 35 1 28 24
M  V30 36 1 1 33
M  V30 37 1 1 34
M  V30 38 1 1 35
M  V30 39 1 3 36
M  V30 40 1 4 37
M  V30 41 1 9 38
M  V30 42 1 9 39
M  V30 43 1 15 40
M  V30 44 1 16 41
M  V30 45 1 17 42
M  V30 46 1 17 43
M  V30 47 1 17 44
M  V30 48 1 18 45
M  V30 49 1 18 46
M  V30 50 1 18 47
M  V30 51 1 20 48
M  V30 52 1 20 49
M  V30 53 1 21 50
M  V30 54 1 21 51
M  V30 55 1 23 52
M  V30 56 1 23 53
M  V30 57 1 25 54
M  V30 58 1 26 55
M  V30 59 1 27 56
M  V30 60 1 29 57
M  V30 61 1 29 58
M  V30 62 1 30 59
M  V30 63 1 30 60
M  V30 64 1 31 61
M  V30 65 1 32 62
M  V30 END BOND
M  V30 END CTAB
M  END
>  <Dataset>  (713) 
ChEMBL_Kinases

>  <Ligand_Instance>  (713) 
nan

>  <PDB_ID>  (713) 
nan

>  <Standardized_SMILES>  (713) 
Cc1ccc(S(=O)(=O)Cn2nnnc2C(C(C)C)N2CCN(Cc3ccco3)CC2)cc1

>  <Name>  (713) 
nan

>  <Pocket>  (713) 
nan

>  <ATP_Site>  (713) 
nan

>  <Peripheral>  (713) 
nan

>  <Num_H_Atoms_ProtBoundConf>  (713) 
nan

>  <Num_Resolved_Atoms>  (713) 
nan

>  <Num_Not_Resolved_Atoms>  (713) 
nan

$$$$
CHEMBL1531304
     RDKit          3D

  0  0  0  0  0  0  0  0  0  0999 V3000
M  V30 BEGIN CTAB
M  V30 COUNTS 43 46 0 0 0
M  V30 BEGIN ATOM
M  V30 1 C 0.515624 -5.169639 1.872527 0
M  V30 2 C 1.404035 -4.070272 2.464558 0
M  V30 3 N 1.134856 -2.851644 1.705418 0
M  V30 4 N 1.773163 -2.482735 0.627471 0
M  V30 5 C 1.285570 -1.304114 0.161016 0
M  V30 6 N 1.601431 -0.469036 -0.948730 0
M  V30 7 C 2.538690 0.600249 -0.997623 0
M  V30 8 O 3.120909 0.775854 0.097313 0
M  V30 9 C 2.721309 1.345907 -2.244575 0
M  V30 10 C 2.073027 1.140866 -3.441767 0
M  V30 11 C 2.385229 1.957647 -4.518804 0
M  V30 12 C 3.333547 2.962878 -4.391770 0
M  V30 13 C 3.983671 3.169188 -3.192748 0
M  V30 14 C 3.677984 2.360085 -2.116623 0
M  V30 15 C 0.271934 -0.964634 1.055551 0
M  V30 16 C -0.619392 0.081882 1.181507 0
M  V30 17 C -1.529417 0.121485 2.218818 0
M  V30 18 C -2.426954 1.183981 2.337974 0
M  V30 19 C -3.328289 1.196348 3.389105 0
M  V30 20 C -3.353017 0.175988 4.319451 0
M  V30 21 C -2.461329 -0.877571 4.199293 0
M  V30 22 C -2.532428 -1.946788 5.227442 0
M  V30 23 C -1.558706 -0.898948 3.154600 0
M  V30 24 N -0.691845 -1.934267 3.047584 0
M  V30 25 C 0.180763 -1.940617 2.024989 0
M  V30 26 H -0.540984 -4.845024 1.974222 0
M  V30 27 H 0.742357 -5.252356 0.785274 0
M  V30 28 H 0.685859 -6.132665 2.386791 0
M  V30 29 H 1.119162 -3.964067 3.511104 0
M  V30 30 H 2.461104 -4.363503 2.310107 0
M  V30 31 H 1.018427 -0.767692 -1.762294 0
M  V30 32 H 1.355626 0.339127 -3.442802 0
M  V30 33 H 1.838556 1.743565 -5.433554 0
M  V30 34 H 3.503404 3.542761 -5.289796 0
M  V30 35 H 4.715955 3.977522 -3.168562 0
M  V30 36 H 4.230292 2.579719 -1.200162 0
M  V30 37 H -0.572438 0.876014 0.424789 0
M  V30 38 H -2.377842 1.963712 1.591428 0
M  V30 39 H -3.990149 2.076178 3.391906 0
M  V30 40 H -4.099491 0.295213 5.093737 0
M  V30 41 H -3.371645 -2.660045 5.060566 0
M  V30 42 H -2.661854 -1.419429 6.215346 0
M  V30 43 H -1.581738 -2.530504 5.208714 0
M  V30 END ATOM
M  V30 BEGIN BOND
M  V30 1 1 1 2
M  V30 2 1 2 3
M  V30 3 1 3 4
M  V30 4 2 4 5
M  V30 5 1 5 6
M  V30 6 1 6 7
M  V30 7 2 7 8
M  V30 8 1 7 9
M  V30 9 2 9 10
M  V30 10 1 10 11
M  V30 11 2 11 12
M  V30 12 1 12 13
M  V30 13 2 13 14
M  V30 14 1 5 15
M  V30 15 2 15 16
M  V30 16 1 16 17
M  V30 17 2 17 18
M  V30 18 1 18 19
M  V30 19 2 19 20
M  V30 20 1 20 21
M  V30 21 1 21 22
M  V30 22 2 21 23
M  V30 23 1 23 24
M  V30 24 2 24 25
M  V30 25 1 25 3
M  V30 26 1 14 9
M  V30 27 1 25 15
M  V30 28 1 23 17
M  V30 29 1 1 26
M  V30 30 1 1 27
M  V30 31 1 1 28
M  V30 32 1 2 29
M  V30 33 1 2 30
M  V30 34 1 6 31
M  V30 35 1 10 32
M  V30 36 1 11 33
M  V30 37 1 12 34
M  V30 38 1 13 35
M  V30 39 1 14 36
M  V30 40 1 16 37
M  V30 41 1 18 38
M  V30 42 1 19 39
M  V30 43 1 20 40
M  V30 44 1 22 41
M  V30 45 1 22 42
M  V30 46 1 22 43
M  V30 END BOND
M  V30 END CTAB
M  END
>  <Dataset>  (714) 
ChEMBL_Kinases

>  <Ligand_Instance>  (714) 
nan

>  <PDB_ID>  (714) 
nan

>  <Standardized_SMILES>  (714) 
CCn1nc(NC(=O)c2ccccc2)c2cc3cccc(C)c3nc21

>  <Name>  (714) 
nan

>  <Pocket>  (714) 
nan

>  <ATP_Site>  (714) 
nan

>  <Peripheral>  (714) 
nan

>  <Num_H_Atoms_ProtBoundConf>  (714) 
nan

>  <Num_Resolved_Atoms>  (714) 
nan

>  <Num_Not_Resolved_Atoms>  (714) 
nan

$$$$
CHEMBL1531496
     RDKit          3D

  0  0  0  0  0  0  0  0  0  0999 V3000
M  V30 BEGIN CTAB
M  V30 COUNTS 57 59 0 0 0
M  V30 BEGIN ATOM
M  V30 1 C -1.526445 3.294330 4.868274 0
M  V30 2 O -0.741092 2.563360 3.976907 0
M  V30 3 C 0.631427 2.419180 4.083291 0
M  V30 4 O 1.164980 3.014340 5.081352 0
M  V30 5 C 1.615654 1.707300 3.265662 0
M  V30 6 C 2.221623 0.631177 4.178335 0
M  V30 7 C 3.255922 -0.123612 3.337398 0
M  V30 8 S 4.040620 -1.433640 4.318623 0
M  V30 9 C 2.820011 -2.709846 4.731931 0
M  V30 10 N 1.081503 1.020444 2.141365 0
M  V30 11 C 1.400356 1.110613 0.770899 0
M  V30 12 O 2.327211 1.971581 0.618521 0
M  V30 13 C 0.775948 0.346752 -0.300440 0
M  V30 14 C 1.306595 0.649893 -1.562701 0
M  V30 15 C 0.838719 0.022115 -2.697073 0
M  V30 16 C -0.163184 -0.923448 -2.641763 0
M  V30 17 N -0.652057 -1.193281 -1.419844 0
M  V30 18 C -1.696084 -2.149072 -1.182321 0
M  V30 19 C -2.996375 -1.645298 -1.275305 0
M  V30 20 C -4.016264 -2.549356 -1.047467 0
M  V30 21 C -3.812837 -3.890655 -0.740615 0
M  V30 22 C -4.990651 -4.777408 -0.513177 0
M  V30 23 C -2.501282 -4.312472 -0.666872 0
M  V30 24 C -1.426872 -3.471398 -0.881130 0
M  V30 25 C -0.220786 -0.601950 -0.294431 0
M  V30 26 O -0.664044 -0.841711 0.843720 0
M  V30 27 C -0.706861 -1.631114 -3.821937 0
M  V30 28 C 0.375585 -1.716661 -4.907155 0
M  V30 29 C 0.885363 -0.312946 -5.244648 0
M  V30 30 C 1.383502 0.330098 -3.999306 0
M  V30 31 O 2.315093 1.168207 -4.126896 0
M  V30 32 H -2.358268 2.716005 5.304906 0
M  V30 33 H -0.947356 3.679360 5.753449 0
M  V30 34 H -1.986626 4.204115 4.399987 0
M  V30 35 H 2.418647 2.419249 3.007716 0
M  V30 36 H 1.417739 -0.084891 4.486647 0
M  V30 37 H 2.669975 1.082048 5.061581 0
M  V30 38 H 4.030408 0.608156 3.052135 0
M  V30 39 H 2.790811 -0.513316 2.409721 0
M  V30 40 H 1.939007 -2.679232 4.046432 0
M  V30 41 H 3.280766 -3.706754 4.580145 0
M  V30 42 H 2.495018 -2.653002 5.790060 0
M  V30 43 H 0.342325 0.365469 2.470570 0
M  V30 44 H 2.100839 1.380558 -1.723995 0
M  V30 45 H -3.226565 -0.616774 -1.509227 0
M  V30 46 H -5.037202 -2.219678 -1.105416 0
M  V30 47 H -5.831438 -4.196832 -0.032226 0
M  V30 48 H -5.402300 -5.210772 -1.425070 0
M  V30 49 H -4.699306 -5.532278 0.246205 0
M  V30 50 H -2.324706 -5.356656 -0.428477 0
M  V30 51 H -0.403219 -3.810220 -0.821460 0
M  V30 52 H -1.520961 -0.999119 -4.254849 0
M  V30 53 H -1.024221 -2.659673 -3.626269 0
M  V30 54 H -0.019310 -2.203742 -5.796355 0
M  V30 55 H 1.236076 -2.274335 -4.472079 0
M  V30 56 H 0.055694 0.235659 -5.694573 0
M  V30 57 H 1.740909 -0.452618 -5.921664 0
M  V30 END ATOM
M  V30 BEGIN BOND
M  V30 1 1 1 2
M  V30 2 1 2 3
M  V30 3 2 3 4
M  V30 4 1 3 5
M  V30 5 1 5 6
M  V30 6 1 6 7
M  V30 7 1 7 8
M  V30 8 1 8 9
M  V30 9 1 5 10
M  V30 10 1 10 11
M  V30 11 2 11 12
M  V30 12 1 11 13
M  V30 13 2 13 14
M  V30 14 1 14 15
M  V30 15 2 15 16
M  V30 16 1 16 17
M  V30 17 1 17 18
M  V30 18 2 18 19
M  V30 19 1 19 20
M  V30 20 2 20 21
M  V30 21 1 21 22
M  V30 22 1 21 23
M  V30 23 2 23 24
M  V30 24 1 17 25
M  V30 25 2 25 26
M  V30 26 1 16 27
M  V30 27 1 27 28
M  V30 28 1 28 29
M  V30 29 1 29 30
M  V30 30 2 30 31
M  V30 31 1 25 13
M  V30 32 1 30 15
M  V30 33 1 24 18
M  V30 34 1 1 32
M  V30 35 1 1 33
M  V30 36 1 1 34
M  V30 37 1 5 35
M  V30 38 1 6 36
M  V30 39 1 6 37
M  V30 40 1 7 38
M  V30 41 1 7 39
M  V30 42 1 9 40
M  V30 43 1 9 41
M  V30 44 1 9 42
M  V30 45 1 10 43
M  V30 46 1 14 44
M  V30 47 1 19 45
M  V30 48 1 20 46
M  V30 49 1 22 47
M  V30 50 1 22 48
M  V30 51 1 22 49
M  V30 52 1 23 50
M  V30 53 1 24 51
M  V30 54 1 27 52
M  V30 55 1 27 53
M  V30 56 1 28 54
M  V30 57 1 28 55
M  V30 58 1 29 56
M  V30 59 1 29 57
M  V30 END BOND
M  V30 END CTAB
M  END
>  <Dataset>  (715) 
ChEMBL_Kinases

>  <Ligand_Instance>  (715) 
nan

>  <PDB_ID>  (715) 
nan

>  <Standardized_SMILES>  (715) 
COC(=O)C(CCSC)NC(=O)c1cc2c(n(-c3ccc(C)cc3)c1=O)CCCC2=O

>  <Name>  (715) 
nan

>  <Pocket>  (715) 
nan

>  <ATP_Site>  (715) 
nan

>  <Peripheral>  (715) 
nan

>  <Num_H_Atoms_ProtBoundConf>  (715) 
nan

>  <Num_Resolved_Atoms>  (715) 
nan

>  <Num_Not_Resolved_Atoms>  (715) 
nan

$$$$
CHEMBL1531703
     RDKit          3D

  0  0  0  0  0  0  0  0  0  0999 V3000
M  V30 BEGIN CTAB
M  V30 COUNTS 42 44 0 0 0
M  V30 BEGIN ATOM
M  V30 1 C 1.086951 -5.484738 -0.021671 0
M  V30 2 C 0.465197 -4.096801 0.152324 0
M  V30 3 C -0.593967 -4.123029 1.226470 0
M  V30 4 O -0.023553 -3.616893 -1.086368 0
M  V30 5 C 0.600534 -2.538101 -1.698420 0
M  V30 6 O 1.601789 -2.067722 -1.053564 0
M  V30 7 C 0.502576 -1.709867 -2.892050 0
M  V30 8 S -0.183698 -0.066507 -2.654516 0
M  V30 9 C 0.892068 0.884938 -1.558370 0
M  V30 10 N 1.985361 1.567205 -1.954084 0
M  V30 11 N 2.531152 2.167102 -0.909309 0
M  V30 12 C 1.769049 1.863736 0.187485 0
M  V30 13 C 2.028744 2.323298 1.575631 0
M  V30 14 C 3.156791 3.084045 1.779624 0
M  V30 15 N 3.364044 3.479875 3.072081 0
M  V30 16 C 2.477641 3.104036 4.001078 0
M  V30 17 C 1.338136 2.340463 3.824029 0
M  V30 18 N 1.153570 1.954878 2.515192 0
M  V30 19 N 0.745966 1.064179 -0.221859 0
M  V30 20 C -0.259767 0.575924 0.635033 0
M  V30 21 C -1.221252 1.600243 0.737744 0
M  V30 22 C -2.369076 1.453200 1.523970 0
M  V30 23 C -2.598860 0.286134 2.232313 0
M  V30 24 C -1.632719 -0.720178 2.118518 0
M  V30 25 C -0.506566 -0.574822 1.346821 0
M  V30 26 H 0.543937 -6.112446 -0.723886 0
M  V30 27 H 2.182887 -5.370243 -0.265850 0
M  V30 28 H 1.074895 -5.923713 0.995280 0
M  V30 29 H 1.309733 -3.467874 0.507439 0
M  V30 30 H -0.813990 -5.171271 1.553371 0
M  V30 31 H -1.563575 -3.757442 0.789764 0
M  V30 32 H -0.309503 -3.577701 2.149289 0
M  V30 33 H 1.464235 -1.716637 -3.444938 0
M  V30 34 H -0.207080 -2.245180 -3.612621 0
M  V30 35 H 3.797824 3.324734 0.949945 0
M  V30 36 H 2.687076 3.444642 5.029730 0
M  V30 37 H 0.679951 2.083617 4.624924 0
M  V30 38 H -1.257669 2.597351 0.278982 0
M  V30 39 H -3.155823 2.177868 1.663659 0
M  V30 40 H -3.463745 0.110063 2.853136 0
M  V30 41 H -1.702856 -1.677389 2.620801 0
M  V30 42 H 0.288480 -1.261521 1.184587 0
M  V30 END ATOM
M  V30 BEGIN BOND
M  V30 1 1 1 2
M  V30 2 1 2 3
M  V30 3 1 2 4
M  V30 4 1 4 5
M  V30 5 2 5 6
M  V30 6 1 5 7
M  V30 7 1 7 8
M  V30 8 1 8 9
M  V30 9 2 9 10
M  V30 10 1 10 11
M  V30 11 2 11 12
M  V30 12 1 12 13
M  V30 13 2 13 14
M  V30 14 1 14 15
M  V30 15 2 15 16
M  V30 16 1 16 17
M  V30 17 2 17 18
M  V30 18 1 12 19
M  V30 19 1 19 20
M  V30 20 2 20 21
M  V30 21 1 21 22
M  V30 22 2 22 23
M  V30 23 1 23 24
M  V30 24 2 24 25
M  V30 25 1 19 9
M  V30 26 1 25 20
M  V30 27 1 18 13
M  V30 28 1 1 26
M  V30 29 1 1 27
M  V30 30 1 1 28
M  V30 31 1 2 29
M  V30 32 1 3 30
M  V30 33 1 3 31
M  V30 34 1 3 32
M  V30 35 1 7 33
M  V30 36 1 7 34
M  V30 37 1 14 35
M  V30 38 1 16 36
M  V30 39 1 17 37
M  V30 40 1 21 38
M  V30 41 1 22 39
M  V30 42 1 23 40
M  V30 43 1 24 41
M  V30 44 1 25 42
M  V30 END BOND
M  V30 END CTAB
M  END
>  <Dataset>  (716) 
ChEMBL_Kinases

>  <Ligand_Instance>  (716) 
nan

>  <PDB_ID>  (716) 
nan

>  <Standardized_SMILES>  (716) 
CC(C)OC(=O)CSc1nnc(-c2cnccn2)n1-c1ccccc1

>  <Name>  (716) 
nan

>  <Pocket>  (716) 
nan

>  <ATP_Site>  (716) 
nan

>  <Peripheral>  (716) 
nan

>  <Num_H_Atoms_ProtBoundConf>  (716) 
nan

>  <Num_Resolved_Atoms>  (716) 
nan

>  <Num_Not_Resolved_Atoms>  (716) 
nan

$$$$
CHEMBL1531711
     RDKit          3D

  0  0  0  0  0  0  0  0  0  0999 V3000
M  V30 BEGIN CTAB
M  V30 COUNTS 46 48 0 0 0
M  V30 BEGIN ATOM
M  V30 1 C -0.756516 -1.674811 -2.339281 0
M  V30 2 O 0.502472 -1.737850 -1.772901 0
M  V30 3 C 1.525933 -1.348334 -2.581822 0
M  V30 4 C 2.843009 -1.456832 -1.866642 0
M  V30 5 O 2.886838 -0.666673 -0.750413 0
M  V30 6 C 2.182130 -0.681691 0.413159 0
M  V30 7 O 1.308360 -1.553103 0.592852 0
M  V30 8 C 2.479515 0.348345 1.438235 0
M  V30 9 C 3.424027 1.281067 1.230477 0
M  V30 10 C 4.212912 1.335550 -0.015994 0
M  V30 11 N 3.664140 2.254732 2.268063 0
M  V30 12 C 2.964154 2.293737 3.503110 0
M  V30 13 O 3.179220 3.133520 4.384618 0
M  V30 14 N 1.986503 1.273090 3.636429 0
M  V30 15 C 1.647651 0.243254 2.682163 0
M  V30 16 C 0.197093 0.257963 2.353936 0
M  V30 17 C -0.542076 1.389571 2.077352 0
M  V30 18 C -1.814711 0.870951 1.841078 0
M  V30 19 C -1.794648 -0.499503 1.978884 0
M  V30 20 C -2.913988 -1.424581 1.816674 0
M  V30 21 C -4.182554 -0.999184 1.489507 0
M  V30 22 C -5.184129 -1.938287 1.355222 0
M  V30 23 Cl -6.823104 -1.494982 0.942879 0
M  V30 24 C -4.921705 -3.282789 1.545126 0
M  V30 25 C -3.678173 -3.752857 1.870996 0
M  V30 26 C -2.700587 -2.773354 1.995950 0
M  V30 27 Cl -1.069566 -3.310688 2.415640 0
M  V30 28 O -0.565909 -0.799009 2.284837 0
M  V30 29 H -1.046113 -0.662496 -2.665673 0
M  V30 30 H -1.479034 -1.971492 -1.534469 0
M  V30 31 H -0.836646 -2.453377 -3.117757 0
M  V30 32 H 1.510431 -1.990189 -3.506199 0
M  V30 33 H 1.376415 -0.308908 -3.002823 0
M  V30 34 H 3.654611 -1.124260 -2.567500 0
M  V30 35 H 2.974520 -2.548114 -1.646259 0
M  V30 36 H 4.829791 0.450986 -0.198150 0
M  V30 37 H 4.935817 2.186408 0.068774 0
M  V30 38 H 3.596395 1.524323 -0.929965 0
M  V30 39 H 4.405396 2.976988 2.090579 0
M  V30 40 H 1.405365 1.209666 4.519610 0
M  V30 41 H 1.949076 -0.719147 3.142121 0
M  V30 42 H -0.232785 2.414661 2.047339 0
M  V30 43 H -2.701025 1.462647 1.583853 0
M  V30 44 H -4.387549 0.053916 1.340885 0
M  V30 45 H -5.708533 -4.044532 1.441962 0
M  V30 46 H -3.414129 -4.790802 2.031439 0
M  V30 END ATOM
M  V30 BEGIN BOND
M  V30 1 1 1 2
M  V30 2 1 2 3
M  V30 3 1 3 4
M  V30 4 1 4 5
M  V30 5 1 5 6
M  V30 6 2 6 7
M  V30 7 1 6 8
M  V30 8 2 8 9
M  V30 9 1 9 10
M  V30 10 1 9 11
M  V30 11 1 11 12
M  V30 12 2 12 13
M  V30 13 1 12 14
M  V30 14 1 14 15
M  V30 15 1 15 16
M  V30 16 2 16 17
M  V30 17 1 17 18
M  V30 18 2 18 19
M  V30 19 1 19 20
M  V30 20 2 20 21
M  V30 21 1 21 22
M  V30 22 1 22 23
M  V30 23 2 22 24
M  V30 24 1 24 25
M  V30 25 2 25 26
M  V30 26 1 26 27
M  V30 27 1 19 28
M  V30 28 1 15 8
M  V30 29 1 28 16
M  V30 30 1 26 20
M  V30 31 1 1 29
M  V30 32 1 1 30
M  V30 33 1 1 31
M  V30 34 1 3 32
M  V30 35 1 3 33
M  V30 36 1 4 34
M  V30 37 1 4 35
M  V30 38 1 10 36
M  V30 39 1 10 37
M  V30 40 1 10 38
M  V30 41 1 11 39
M  V30 42 1 14 40
M  V30 43 1 15 41
M  V30 44 1 17 42
M  V30 45 1 18 43
M  V30 46 1 21 44
M  V30 47 1 24 45
M  V30 48 1 25 46
M  V30 END BOND
M  V30 END CTAB
M  END
>  <Dataset>  (717) 
ChEMBL_Kinases

>  <Ligand_Instance>  (717) 
nan

>  <PDB_ID>  (717) 
nan

>  <Standardized_SMILES>  (717) 
COCCOC(=O)C1=C(C)NC(=O)NC1c1ccc(-c2cc(Cl)ccc2Cl)o1

>  <Name>  (717) 
nan

>  <Pocket>  (717) 
nan

>  <ATP_Site>  (717) 
nan

>  <Peripheral>  (717) 
nan

>  <Num_H_Atoms_ProtBoundConf>  (717) 
nan

>  <Num_Resolved_Atoms>  (717) 
nan

>  <Num_Not_Resolved_Atoms>  (717) 
nan

$$$$
CHEMBL1531817
     RDKit          3D

  0  0  0  0  0  0  0  0  0  0999 V3000
M  V30 BEGIN CTAB
M  V30 COUNTS 20 21 0 0 0
M  V30 BEGIN ATOM
M  V30 1 N 0.187999 -0.202734 5.287907 0
M  V30 2 C 0.149914 -0.147473 3.830007 0
M  V30 3 N 0.671986 -0.762765 3.042292 0
M  V30 4 C 0.653173 -0.731415 1.728762 0
M  V30 5 C 1.325513 -1.524523 0.818149 0
M  V30 6 C 1.147892 -1.304179 -0.524603 0
M  V30 7 C 0.340691 -0.340651 -1.090183 0
M  V30 8 O 0.164806 -0.122282 -2.445002 0
M  V30 9 C 1.058756 0.802082 -3.077117 0
M  V30 10 F 2.348825 0.340139 -2.930672 0
M  V30 11 F 0.702330 1.092997 -4.358785 0
M  V30 12 F 0.988513 1.983251 -2.328085 0
M  V30 13 C -0.331724 0.452361 -0.151792 0
M  V30 14 C -0.153496 0.231146 1.212073 0
M  V30 15 S -0.813942 1.006657 2.626696 0
M  V30 16 H 1.139479 0.011118 5.633891 0
M  V30 17 H -0.704644 -0.439131 5.772537 0
M  V30 18 H 2.006438 -2.335666 1.053926 0
M  V30 19 H 1.667427 -1.916700 -1.280775 0
M  V30 20 H -0.989842 1.236649 -0.425791 0
M  V30 END ATOM
M  V30 BEGIN BOND
M  V30 1 1 1 2
M  V30 2 2 2 3
M  V30 3 1 3 4
M  V30 4 2 4 5
M  V30 5 1 5 6
M  V30 6 2 6 7
M  V30 7 1 7 8
M  V30 8 1 8 9
M  V30 9 1 9 10
M  V30 10 1 9 11
M  V30 11 1 9 12
M  V30 12 1 7 13
M  V30 13 2 13 14
M  V30 14 1 14 15
M  V30 15 1 15 2
M  V30 16 1 14 4
M  V30 17 1 1 16
M  V30 18 1 1 17
M  V30 19 1 5 18
M  V30 20 1 6 19
M  V30 21 1 13 20
M  V30 END BOND
M  V30 END CTAB
M  END
>  <Dataset>  (718) 
ChEMBL_Kinases

>  <Ligand_Instance>  (718) 
nan

>  <PDB_ID>  (718) 
nan

>  <Standardized_SMILES>  (718) 
Nc1nc2ccc(OC(F)(F)F)cc2s1

>  <Name>  (718) 
nan

>  <Pocket>  (718) 
nan

>  <ATP_Site>  (718) 
nan

>  <Peripheral>  (718) 
nan

>  <Num_H_Atoms_ProtBoundConf>  (718) 
nan

>  <Num_Resolved_Atoms>  (718) 
nan

>  <Num_Not_Resolved_Atoms>  (718) 
nan

$$$$
CHEMBL1531873
     RDKit          3D

  0  0  0  0  0  0  0  0  0  0999 V3000
M  V30 BEGIN CTAB
M  V30 COUNTS 49 52 0 0 0
M  V30 BEGIN ATOM
M  V30 1 O 0.888255 -1.942372 2.303110 0
M  V30 2 C -0.109383 -1.236800 1.927367 0
M  V30 3 C 0.183601 -0.057156 1.111263 0
M  V30 4 C 1.660920 0.124487 0.847041 0
M  V30 5 N 2.442523 0.282230 2.031907 0
M  V30 6 S 4.111172 0.478714 1.553500 0
M  V30 7 O 4.429360 -0.696376 0.676938 0
M  V30 8 O 5.032157 0.532126 2.716123 0
M  V30 9 C 4.235062 1.941947 0.563334 0
M  V30 10 C 4.684347 1.924529 -0.731550 0
M  V30 11 C 4.735946 3.124367 -1.402543 0
M  V30 12 C 4.345346 4.282927 -0.773755 0
M  V30 13 C 3.911798 4.188939 0.523981 0
M  V30 14 N 3.527521 5.518190 1.058953 0
M  V30 15 S 3.046645 4.945871 2.700910 0
M  V30 16 N 3.345018 3.313630 2.546432 0
M  V30 17 C 3.838698 3.054805 1.228815 0
M  V30 18 N -1.493431 -1.503455 2.238030 0
M  V30 19 C -2.568970 -0.648785 1.769332 0
M  V30 20 C -3.762798 -1.584874 1.590883 0
M  V30 21 N -3.343670 -2.896495 1.195271 0
M  V30 22 C -3.391040 -3.510612 -0.062562 0
M  V30 23 C -3.895411 -2.824194 -1.145188 0
M  V30 24 C -3.924755 -3.465814 -2.369715 0
M  V30 25 C -3.449296 -4.768135 -2.465616 0
M  V30 26 C -2.949316 -5.426118 -1.354033 0
M  V30 27 N -2.932612 -4.770983 -0.163152 0
M  V30 28 C -2.811949 -3.570672 2.379332 0
M  V30 29 C -1.798342 -2.670335 3.047794 0
M  V30 30 H -0.322020 -0.050436 0.118607 0
M  V30 31 H -0.161911 0.885546 1.601355 0
M  V30 32 H 1.875546 0.932625 0.150585 0
M  V30 33 H 1.998724 -0.822498 0.333522 0
M  V30 34 H 2.164655 1.147389 2.549329 0
M  V30 35 H 4.959503 0.947631 -1.104342 0
M  V30 36 H 5.099126 3.039706 -2.418622 0
M  V30 37 H 4.448152 5.124040 -1.437726 0
M  V30 38 H -2.794138 0.161117 2.489800 0
M  V30 39 H -2.315896 -0.254449 0.764398 0
M  V30 40 H -4.407590 -1.582756 2.494696 0
M  V30 41 H -4.379961 -1.142892 0.787286 0
M  V30 42 H -4.268671 -1.831420 -1.121226 0
M  V30 43 H -4.285793 -3.066339 -3.300987 0
M  V30 44 H -3.405108 -5.402732 -3.350003 0
M  V30 45 H -2.565010 -6.431212 -1.349937 0
M  V30 46 H -2.340474 -4.538280 2.108684 0
M  V30 47 H -3.627181 -3.761371 3.106054 0
M  V30 48 H -0.880771 -3.260277 3.249273 0
M  V30 49 H -2.185677 -2.340427 4.032652 0
M  V30 END ATOM
M  V30 BEGIN BOND
M  V30 1 2 1 2
M  V30 2 1 2 3
M  V30 3 1 3 4
M  V30 4 1 4 5
M  V30 5 1 5 6
M  V30 6 2 6 7
M  V30 7 2 6 8
M  V30 8 1 6 9
M  V30 9 2 9 10
M  V30 10 1 10 11
M  V30 11 2 11 12
M  V30 12 1 12 13
M  V30 13 2 13 14
M  V30 14 1 14 15
M  V30 15 1 15 16
M  V30 16 2 16 17
M  V30 17 1 2 18
M  V30 18 1 18 19
M  V30 19 1 19 20
M  V30 20 1 20 21
M  V30 21 1 21 22
M  V30 22 2 22 23
M  V30 23 1 23 24
M  V30 24 2 24 25
M  V30 25 1 25 26
M  V30 26 2 26 27
M  V30 27 1 21 28
M  V30 28 1 28 29
M  V30 29 1 17 9
M  V30 30 1 29 18
M  V30 31 1 17 13
M  V30 32 1 27 22
M  V30 33 1 3 30
M  V30 34 1 3 31
M  V30 35 1 4 32
M  V30 36 1 4 33
M  V30 37 1 5 34
M  V30 38 1 10 35
M  V30 39 1 11 36
M  V30 40 1 12 37
M  V30 41 1 19 38
M  V30 42 1 19 39
M  V30 43 1 20 40
M  V30 44 1 20 41
M  V30 45 1 23 42
M  V30 46 1 24 43
M  V30 47 1 25 44
M  V30 48 1 26 45
M  V30 49 1 28 46
M  V30 50 1 28 47
M  V30 51 1 29 48
M  V30 52 1 29 49
M  V30 END BOND
M  V30 END CTAB
M  END
>  <Dataset>  (719) 
ChEMBL_Kinases

>  <Ligand_Instance>  (719) 
nan

>  <PDB_ID>  (719) 
nan

>  <Standardized_SMILES>  (719) 
O=C(CCNS(=O)(=O)c1cccc2nsnc12)N1CCN(c2ccccn2)CC1

>  <Name>  (719) 
nan

>  <Pocket>  (719) 
nan

>  <ATP_Site>  (719) 
nan

>  <Peripheral>  (719) 
nan

>  <Num_H_Atoms_ProtBoundConf>  (719) 
nan

>  <Num_Resolved_Atoms>  (719) 
nan

>  <Num_Not_Resolved_Atoms>  (719) 
nan

$$$$
CHEMBL1531899
     RDKit          3D

  0  0  0  0  0  0  0  0  0  0999 V3000
M  V30 BEGIN CTAB
M  V30 COUNTS 40 42 0 0 0
M  V30 BEGIN ATOM
M  V30 1 C 0.601071 -6.278991 -0.062774 0
M  V30 2 S 1.598637 -5.142066 0.875945 0
M  V30 3 O 2.972641 -5.160767 0.263704 0
M  V30 4 O 1.710332 -5.666171 2.268601 0
M  V30 5 N 0.900498 -3.570778 0.913979 0
M  V30 6 C 0.679216 -2.753460 -0.230148 0
M  V30 7 C 0.342286 -3.173921 -1.515248 0
M  V30 8 C 0.178300 -2.293799 -2.561120 0
M  V30 9 C 0.346483 -0.940087 -2.362373 0
M  V30 10 C 0.684852 -0.443289 -1.091566 0
M  V30 11 C 0.808690 0.988114 -0.865247 0
M  V30 12 N 0.676522 1.935711 -1.802855 0
M  V30 13 C 0.753418 3.251305 -1.499850 0
M  V30 14 C 0.977234 3.644361 -0.189443 0
M  V30 15 C 1.117331 2.673500 0.788870 0
M  V30 16 N 1.332192 2.958183 2.178123 0
M  V30 17 C 0.053464 2.624260 2.761335 0
M  V30 18 C 0.015440 1.254811 3.069138 0
M  V30 19 C -1.128267 0.697026 3.639315 0
M  V30 20 C -2.246693 1.464756 3.917194 0
M  V30 21 F -3.373148 0.950112 4.472717 0
M  V30 22 C -2.163540 2.797690 3.599988 0
M  V30 23 C -1.058355 3.382142 3.037991 0
M  V30 24 N 1.023285 1.380778 0.387920 0
M  V30 25 C 0.830169 -1.388995 -0.109814 0
M  V30 26 H -0.492297 -5.977070 0.030683 0
M  V30 27 H 0.655503 -7.261369 0.455822 0
M  V30 28 H 0.924973 -6.441559 -1.089849 0
M  V30 29 H 0.594319 -3.144974 1.841380 0
M  V30 30 H 0.216976 -4.236689 -1.657098 0
M  V30 31 H -0.086035 -2.748772 -3.513236 0
M  V30 32 H 0.213301 -0.292136 -3.216035 0
M  V30 33 H 0.647543 4.016923 -2.229405 0
M  V30 34 H 1.045706 4.684681 0.144496 0
M  V30 35 H 2.140007 3.321507 2.776703 0
M  V30 36 H 0.776924 0.494618 2.930623 0
M  V30 37 H -1.248642 -0.345462 3.905959 0
M  V30 38 H -3.000915 3.462715 3.795513 0
M  V30 39 H -0.907788 4.418799 2.758936 0
M  V30 40 H 1.091843 -0.990079 0.886954 0
M  V30 END ATOM
M  V30 BEGIN BOND
M  V30 1 1 1 2
M  V30 2 2 2 3
M  V30 3 2 2 4
M  V30 4 1 2 5
M  V30 5 1 5 6
M  V30 6 2 6 7
M  V30 7 1 7 8
M  V30 8 2 8 9
M  V30 9 1 9 10
M  V30 10 1 10 11
M  V30 11 2 11 12
M  V30 12 1 12 13
M  V30 13 2 13 14
M  V30 14 1 14 15
M  V30 15 1 15 16
M  V30 16 1 16 17
M  V30 17 2 17 18
M  V30 18 1 18 19
M  V30 19 2 19 20
M  V30 20 1 20 21
M  V30 21 1 20 22
M  V30 22 2 22 23
M  V30 23 2 15 24
M  V30 24 2 10 25
M  V30 25 1 25 6
M  V30 26 1 24 11
M  V30 27 1 23 17
M  V30 28 1 1 26
M  V30 29 1 1 27
M  V30 30 1 1 28
M  V30 31 1 5 29
M  V30 32 1 7 30
M  V30 33 1 8 31
M  V30 34 1 9 32
M  V30 35 1 13 33
M  V30 36 1 14 34
M  V30 37 1 16 35
M  V30 38 1 18 36
M  V30 39 1 19 37
M  V30 40 1 22 38
M  V30 41 1 23 39
M  V30 42 1 25 40
M  V30 END BOND
M  V30 END CTAB
M  END
>  <Dataset>  (720) 
ChEMBL_Kinases

>  <Ligand_Instance>  (720) 
nan

>  <PDB_ID>  (720) 
nan

>  <Standardized_SMILES>  (720) 
CS(=O)(=O)Nc1cccc(-c2nccc(Nc3ccc(F)cc3)n2)c1

>  <Name>  (720) 
nan

>  <Pocket>  (720) 
nan

>  <ATP_Site>  (720) 
nan

>  <Peripheral>  (720) 
nan

>  <Num_H_Atoms_ProtBoundConf>  (720) 
nan

>  <Num_Resolved_Atoms>  (720) 
nan

>  <Num_Not_Resolved_Atoms>  (720) 
nan

$$$$
CHEMBL1531090
     RDKit          3D

  0  0  0  0  0  0  0  0  0  0999 V3000
M  V30 BEGIN CTAB
M  V30 COUNTS 38 39 0 0 0
M  V30 BEGIN ATOM
M  V30 1 C -2.363641 -2.144728 4.921232 0
M  V30 2 O -2.067043 -1.112747 3.998534 0
M  V30 3 C -0.826630 -1.063990 3.375294 0
M  V30 4 C 0.138041 -2.013116 3.639027 0
M  V30 5 C 1.354043 -1.921605 2.994921 0
M  V30 6 C 1.614567 -0.909865 2.104544 0
M  V30 7 O 2.847440 -0.879640 1.498952 0
M  V30 8 C 3.902486 -1.770187 1.675674 0
M  V30 9 C 0.665886 0.075476 1.805671 0
M  V30 10 N 0.956522 1.113215 0.888370 0
M  V30 11 S -0.167325 2.218357 0.232129 0
M  V30 12 O -0.846188 2.894511 1.404642 0
M  V30 13 O 0.468087 3.292366 -0.566745 0
M  V30 14 C -1.377525 1.311519 -0.698363 0
M  V30 15 C -0.736891 0.557801 -1.797012 0
M  V30 16 C -0.589547 1.165911 -3.039215 0
M  V30 17 C 0.010572 0.484587 -4.099727 0
M  V30 18 C 0.459434 -0.799370 -3.912432 0
M  V30 19 C 0.327003 -1.430770 -2.688529 0
M  V30 20 C -0.269077 -0.728659 -1.667281 0
M  V30 21 C -0.531049 -0.062051 2.475870 0
M  V30 22 H -2.455028 -3.101815 4.391842 0
M  V30 23 H -3.291372 -1.908518 5.477250 0
M  V30 24 H -1.487759 -2.225310 5.617828 0
M  V30 25 H -0.023059 -2.825848 4.331403 0
M  V30 26 H 2.106083 -2.673170 3.209443 0
M  V30 27 H 4.827526 -1.265840 1.279436 0
M  V30 28 H 4.105724 -2.037696 2.716950 0
M  V30 29 H 3.693271 -2.660395 1.028086 0
M  V30 30 H 1.945334 1.220568 0.579205 0
M  V30 31 H -1.873516 0.601760 -0.008452 0
M  V30 32 H -2.168536 1.988822 -1.081813 0
M  V30 33 H -0.944876 2.178390 -3.182510 0
M  V30 34 H 0.132005 0.952951 -5.081944 0
M  V30 35 H 0.929768 -1.324737 -4.754502 0
M  V30 36 H 0.693085 -2.444647 -2.577919 0
M  V30 37 H -0.368370 -1.231738 -0.712062 0
M  V30 38 H -1.314728 0.659073 2.304387 0
M  V30 END ATOM
M  V30 BEGIN BOND
M  V30 1 1 1 2
M  V30 2 1 2 3
M  V30 3 2 3 4
M  V30 4 1 4 5
M  V30 5 2 5 6
M  V30 6 1 6 7
M  V30 7 1 7 8
M  V30 8 1 6 9
M  V30 9 1 9 10
M  V30 10 1 10 11
M  V30 11 2 11 12
M  V30 12 2 11 13
M  V30 13 1 11 14
M  V30 14 1 14 15
M  V30 15 2 15 16
M  V30 16 1 16 17
M  V30 17 2 17 18
M  V30 18 1 18 19
M  V30 19 2 19 20
M  V30 20 2 9 21
M  V30 21 1 21 3
M  V30 22 1 20 15
M  V30 23 1 1 22
M  V30 24 1 1 23
M  V30 25 1 1 24
M  V30 26 1 4 25
M  V30 27 1 5 26
M  V30 28 1 8 27
M  V30 29 1 8 28
M  V30 30 1 8 29
M  V30 31 1 10 30
M  V30 32 1 14 31
M  V30 33 1 14 32
M  V30 34 1 16 33
M  V30 35 1 17 34
M  V30 36 1 18 35
M  V30 37 1 19 36
M  V30 38 1 20 37
M  V30 39 1 21 38
M  V30 END BOND
M  V30 END CTAB
M  END
>  <Dataset>  (721) 
ChEMBL_Kinases

>  <Ligand_Instance>  (721) 
nan

>  <PDB_ID>  (721) 
nan

>  <Standardized_SMILES>  (721) 
COc1ccc(OC)c(NS(=O)(=O)Cc2ccccc2)c1

>  <Name>  (721) 
nan

>  <Pocket>  (721) 
nan

>  <ATP_Site>  (721) 
nan

>  <Peripheral>  (721) 
nan

>  <Num_H_Atoms_ProtBoundConf>  (721) 
nan

>  <Num_Resolved_Atoms>  (721) 
nan

>  <Num_Not_Resolved_Atoms>  (721) 
nan

$$$$
CHEMBL1537489
     RDKit          3D

  0  0  0  0  0  0  0  0  0  0999 V3000
M  V30 BEGIN CTAB
M  V30 COUNTS 61 68 0 0 0
M  V30 BEGIN ATOM
M  V30 1 C 3.948977 -2.610670 3.088497 0
M  V30 2 N 3.152303 -1.374075 3.048181 0
M  V30 3 C 2.849812 -1.151253 1.665161 0 CFG=1
M  V30 4 C 2.062389 -2.280830 1.038514 0
M  V30 5 C 0.671614 -2.335136 1.570223 0 CFG=1
M  V30 6 O 0.277152 -1.302837 2.341087 0
M  V30 7 C 0.671908 -0.016892 1.991205 0 CFG=1
M  V30 8 C 0.562525 0.739254 3.325559 0
M  V30 9 C 2.031289 0.093376 1.404906 0 CFG=1
M  V30 10 O 2.777896 1.152151 1.907376 0
M  V30 11 C 3.149788 1.935000 0.803825 0
M  V30 12 N -0.304266 0.431093 1.022336 0
M  V30 13 C -0.710740 1.686694 0.794604 0
M  V30 14 C -0.368935 2.890093 1.329384 0
M  V30 15 C -0.908348 4.097076 0.949434 0
M  V30 16 C -1.867249 4.130231 -0.042148 0
M  V30 17 C -2.250356 2.936606 -0.619168 0
M  V30 18 C -1.682027 1.755377 -0.205252 0
M  V30 19 C -1.890160 0.477848 -0.623173 0
M  V30 20 C -2.696235 -0.127459 -1.564413 0
M  V30 21 C -2.657032 -1.488516 -1.746049 0
M  V30 22 C -1.821182 -2.246576 -0.997161 0
M  V30 23 C -1.613885 -3.578261 -1.009069 0
M  V30 24 C -2.037891 -4.707076 -1.642358 0
M  V30 25 C -1.594144 -5.987098 -1.400018 0
M  V30 26 C -0.615618 -6.170382 -0.414796 0
M  V30 27 C -0.148609 -5.061597 0.259742 0
M  V30 28 C -0.653489 -3.817180 -0.052180 0
M  V30 29 N -0.305101 -2.650334 0.509198 0
M  V30 30 C -1.029458 -1.647961 -0.071418 0
M  V30 31 C -1.055244 -0.282639 0.126347 0
M  V30 32 C -3.614135 -1.749082 -2.788076 0
M  V30 33 O -4.006873 -2.772015 -3.365418 0
M  V30 34 N -4.232045 -0.556273 -3.238282 0
M  V30 35 C -3.662431 0.556583 -2.462079 0
M  V30 36 H 4.313635 -2.670297 4.152329 0
M  V30 37 H 4.806989 -2.579879 2.405883 0
M  V30 38 H 3.293462 -3.495064 2.974001 0
M  V30 39 H 2.257794 -1.625269 3.538179 0
M  V30 40 H 3.804717 -0.996639 1.096588 0
M  V30 41 H 2.626117 -3.223538 1.065427 0
M  V30 42 H 2.006340 -2.016415 -0.058120 0
M  V30 43 H 0.628429 -3.246431 2.235558 0
M  V30 44 H 1.431263 1.401142 3.502415 0
M  V30 45 H -0.424844 1.178085 3.442654 0
M  V30 46 H 0.640457 0.016509 4.201915 0
M  V30 47 H 1.937447 0.159222 0.287788 0
M  V30 48 H 3.745375 1.262968 0.148327 0
M  V30 49 H 3.727834 2.824671 1.128067 0
M  V30 50 H 2.269831 2.334743 0.252811 0
M  V30 51 H 0.365874 2.933248 2.086638 0
M  V30 52 H -0.637912 5.054416 1.373771 0
M  V30 53 H -2.345576 5.030437 -0.404356 0
M  V30 54 H -2.998764 2.933310 -1.397684 0
M  V30 55 H -2.771824 -4.663356 -2.397267 0
M  V30 56 H -1.949213 -6.867415 -1.919247 0
M  V30 57 H -0.197861 -7.129625 -0.144669 0
M  V30 58 H 0.604247 -5.190230 1.019864 0
M  V30 59 H -4.938289 -0.303214 -3.934118 0
M  V30 60 H -3.163782 1.211839 -3.212643 0
M  V30 61 H -4.489763 1.038926 -1.943202 0
M  V30 END ATOM
M  V30 BEGIN BOND
M  V30 1 1 1 2
M  V30 2 1 2 3
M  V30 3 1 3 4
M  V30 4 1 4 5
M  V30 5 1 5 6
M  V30 6 1 6 7
M  V30 7 1 7 8 CFG=1
M  V30 8 1 7 9
M  V30 9 1 9 10
M  V30 10 1 10 11
M  V30 11 1 7 12
M  V30 12 1 12 13
M  V30 13 2 13 14
M  V30 14 1 14 15
M  V30 15 2 15 16
M  V30 16 1 16 17
M  V30 17 2 17 18
M  V30 18 1 18 19
M  V30 19 2 19 20
M  V30 20 1 20 21
M  V30 21 2 21 22
M  V30 22 1 22 23
M  V30 23 2 23 24
M  V30 24 1 24 25
M  V30 25 2 25 26
M  V30 26 1 26 27
M  V30 27 2 27 28
M  V30 28 1 28 29
M  V30 29 1 29 30
M  V30 30 2 30 31
M  V30 31 1 21 32
M  V30 32 2 32 33
M  V30 33 1 32 34
M  V30 34 1 34 35
M  V30 35 1 9 3
M  V30 36 1 31 12
M  V30 37 1 29 5
M  V30 38 1 18 13
M  V30 39 1 31 19
M  V30 40 1 35 20
M  V30 41 1 30 22
M  V30 42 1 28 23
M  V30 43 1 1 36
M  V30 44 1 1 37
M  V30 45 1 1 38
M  V30 46 1 2 39
M  V30 47 1 3 40 CFG=3
M  V30 48 1 4 41
M  V30 49 1 4 42
M  V30 50 1 5 43 CFG=1
M  V30 51 1 8 44
M  V30 52 1 8 45
M  V30 53 1 8 46
M  V30 54 1 9 47 CFG=3
M  V30 55 1 11 48
M  V30 56 1 11 49
M  V30 57 1 11 50
M  V30 58 1 14 51
M  V30 59 1 15 52
M  V30 60 1 16 53
M  V30 61 1 17 54
M  V30 62 1 24 55
M  V30 63 1 25 56
M  V30 64 1 26 57
M  V30 65 1 27 58
M  V30 66 1 34 59
M  V30 67 1 35 60
M  V30 68 1 35 61
M  V30 END BOND
M  V30 END CTAB
M  END
>  <Dataset>  (722) 
ChEMBL_Kinases

>  <Ligand_Instance>  (722) 
nan

>  <PDB_ID>  (722) 
nan

>  <Standardized_SMILES>  (722) 
CN[C@H]1C[C@H]2O[C@@](C)([C@H]1OC)n1c3ccccc3c3c4c(c5c6ccccc6n2c5c31)C(=O)NC4

>  <Name>  (722) 
nan

>  <Pocket>  (722) 
nan

>  <ATP_Site>  (722) 
nan

>  <Peripheral>  (722) 
nan

>  <Num_H_Atoms_ProtBoundConf>  (722) 
nan

>  <Num_Resolved_Atoms>  (722) 
nan

>  <Num_Not_Resolved_Atoms>  (722) 
nan

$$$$
CHEMBL1537401
     RDKit          3D

  0  0  0  0  0  0  0  0  0  0999 V3000
M  V30 BEGIN CTAB
M  V30 COUNTS 44 47 0 0 0
M  V30 BEGIN ATOM
M  V30 1 O 1.344881 0.911885 0.126956 0
M  V30 2 C 1.176622 -0.289785 0.527253 0
M  V30 3 N 2.327083 -1.094571 0.296559 0
M  V30 4 C 3.410588 -0.370814 -0.332362 0
M  V30 5 C 4.398454 0.303514 0.369347 0
M  V30 6 C 5.368331 0.949006 -0.404142 0
M  V30 7 C 5.324143 0.903582 -1.783428 0
M  V30 8 C 4.316301 0.216044 -2.461663 0
M  V30 9 C 3.349736 -0.427457 -1.709657 0
M  V30 10 O 4.572763 0.373601 -3.825984 0
M  V30 11 C 5.442125 1.499659 -4.003394 0
M  V30 12 O 6.154503 1.452561 -2.768881 0
M  V30 13 C -0.062058 -0.798543 1.157718 0
M  V30 14 C 0.242009 -1.308417 2.542904 0
M  V30 15 C -0.932675 -1.961975 3.204464 0
M  V30 16 N -1.909259 -2.482642 2.341686 0
M  V30 17 S -3.530843 -2.170311 2.688032 0
M  V30 18 O -4.428270 -2.936973 1.726424 0
M  V30 19 O -3.825817 -2.734178 4.068280 0
M  V30 20 C -3.945985 -0.467417 2.676026 0
M  V30 21 C -4.455296 0.527573 3.536524 0
M  V30 22 C -4.607038 1.770796 3.035494 0
M  V30 23 C -4.262432 2.054841 1.687478 0
M  V30 24 S -3.665405 0.408247 1.062971 0
M  V30 25 C -1.567109 -2.828320 1.018936 0
M  V30 26 C -0.826409 -1.751084 0.317921 0
M  V30 27 H 2.308871 -2.114123 0.587011 0
M  V30 28 H 4.352326 0.284461 1.435165 0
M  V30 29 H 6.144628 1.478804 0.137420 0
M  V30 30 H 2.600908 -0.938966 -2.272739 0
M  V30 31 H 4.794813 2.402945 -4.072571 0
M  V30 32 H 6.097668 1.405095 -4.869467 0
M  V30 33 H -0.693114 0.102830 1.315828 0
M  V30 34 H 1.046661 -2.066987 2.450475 0
M  V30 35 H 0.644223 -0.498005 3.183551 0
M  V30 36 H -1.419375 -1.175044 3.841230 0
M  V30 37 H -0.605994 -2.751610 3.942718 0
M  V30 38 H -4.659883 0.136349 4.514899 0
M  V30 39 H -4.995875 2.538119 3.686289 0
M  V30 40 H -4.357467 3.004340 1.236988 0
M  V30 41 H -1.074482 -3.834886 0.927769 0
M  V30 42 H -2.538806 -2.992095 0.462881 0
M  V30 43 H -1.536060 -1.172529 -0.325563 0
M  V30 44 H -0.120101 -2.228341 -0.399760 0
M  V30 END ATOM
M  V30 BEGIN BOND
M  V30 1 2 1 2
M  V30 2 1 2 3
M  V30 3 1 3 4
M  V30 4 2 4 5
M  V30 5 1 5 6
M  V30 6 2 6 7
M  V30 7 1 7 8
M  V30 8 2 8 9
M  V30 9 1 8 10
M  V30 10 1 10 11
M  V30 11 1 11 12
M  V30 12 1 2 13
M  V30 13 1 13 14
M  V30 14 1 14 15
M  V30 15 1 15 16
M  V30 16 1 16 17
M  V30 17 2 17 18
M  V30 18 2 17 19
M  V30 19 1 17 20
M  V30 20 2 20 21
M  V30 21 1 21 22
M  V30 22 2 22 23
M  V30 23 1 23 24
M  V30 24 1 16 25
M  V30 25 1 25 26
M  V30 26 1 9 4
M  V30 27 1 26 13
M  V30 28 1 12 7
M  V30 29 1 24 20
M  V30 30 1 3 27
M  V30 31 1 5 28
M  V30 32 1 6 29
M  V30 33 1 9 30
M  V30 34 1 11 31
M  V30 35 1 11 32
M  V30 36 1 13 33
M  V30 37 1 14 34
M  V30 38 1 14 35
M  V30 39 1 15 36
M  V30 40 1 15 37
M  V30 41 1 21 38
M  V30 42 1 22 39
M  V30 43 1 23 40
M  V30 44 1 25 41
M  V30 45 1 25 42
M  V30 46 1 26 43
M  V30 47 1 26 44
M  V30 END BOND
M  V30 END CTAB
M  END
>  <Dataset>  (723) 
ChEMBL_Kinases

>  <Ligand_Instance>  (723) 
nan

>  <PDB_ID>  (723) 
nan

>  <Standardized_SMILES>  (723) 
O=C(Nc1ccc2c(c1)OCO2)C1CCN(S(=O)(=O)c2cccs2)CC1

>  <Name>  (723) 
nan

>  <Pocket>  (723) 
nan

>  <ATP_Site>  (723) 
nan

>  <Peripheral>  (723) 
nan

>  <Num_H_Atoms_ProtBoundConf>  (723) 
nan

>  <Num_Resolved_Atoms>  (723) 
nan

>  <Num_Not_Resolved_Atoms>  (723) 
nan

$$$$
CHEMBL1537365
     RDKit          3D

  0  0  0  0  0  0  0  0  0  0999 V3000
M  V30 BEGIN CTAB
M  V30 COUNTS 42 43 0 0 0
M  V30 BEGIN ATOM
M  V30 1 C -2.247700 -6.664227 2.556568 0
M  V30 2 O -2.242030 -5.254677 2.489885 0
M  V30 3 C -1.083805 -4.609318 2.129785 0
M  V30 4 O -0.124799 -5.415437 1.893387 0
M  V30 5 C -0.638874 -3.212289 1.939164 0
M  V30 6 C -0.542493 -2.816422 0.478116 0
M  V30 7 N -0.101733 -1.456090 0.297085 0
M  V30 8 C -1.040190 -0.367925 0.230603 0
M  V30 9 O -2.275696 -0.284548 0.285655 0
M  V30 10 C -0.430300 0.962584 0.059616 0
M  V30 11 C 0.065631 1.458476 -1.152329 0
M  V30 12 C 0.617969 2.725243 -1.186356 0
M  V30 13 C 0.701779 3.530011 -0.067296 0
M  V30 14 C 1.302096 4.854098 -0.204519 0
M  V30 15 C 0.196283 2.981413 1.090140 0
M  V30 16 N 0.250042 3.752141 2.286608 0 CHG=1 VAL=4
M  V30 17 O -0.556949 3.638107 3.253914 0
M  V30 18 O 1.000662 4.748903 2.855382 0 CHG=-1 VAL=1
M  V30 19 C -0.372844 1.718698 1.207326 0
M  V30 20 C 1.312169 -1.319655 0.199747 0
M  V30 21 C 2.251514 -1.107059 1.189624 0
M  V30 22 C 3.579056 -1.014021 0.821573 0
M  V30 23 C 3.952996 -1.133005 -0.507381 0
M  V30 24 C 2.999584 -1.344906 -1.475964 0
M  V30 25 N 1.698749 -1.432893 -1.098189 0
M  V30 26 H -3.226746 -7.052944 2.193693 0
M  V30 27 H -1.439361 -7.142434 1.998717 0
M  V30 28 H -2.128382 -6.947154 3.641517 0
M  V30 29 H 0.317027 -3.039744 2.476646 0
M  V30 30 H -1.389807 -2.561803 2.476326 0
M  V30 31 H -1.565816 -3.002547 0.057745 0
M  V30 32 H 0.109584 -3.561688 -0.021995 0
M  V30 33 H -0.024573 0.802792 -1.984364 0
M  V30 34 H 0.997868 3.095527 -2.131782 0
M  V30 35 H 2.182657 4.829408 -0.910655 0
M  V30 36 H 0.554784 5.499626 -0.742890 0
M  V30 37 H 1.597460 5.367277 0.698680 0
M  V30 38 H -0.749233 1.362754 2.164806 0
M  V30 39 H 1.803889 -1.039450 2.176570 0
M  V30 40 H 4.255468 -0.846141 1.639320 0
M  V30 41 H 4.997978 -1.057165 -0.756558 0
M  V30 42 H 3.300976 -1.436061 -2.516211 0
M  V30 END ATOM
M  V30 BEGIN BOND
M  V30 1 1 1 2
M  V30 2 1 2 3
M  V30 3 2 3 4
M  V30 4 1 3 5
M  V30 5 1 5 6
M  V30 6 1 6 7
M  V30 7 1 7 8
M  V30 8 2 8 9
M  V30 9 1 8 10
M  V30 10 2 10 11
M  V30 11 1 11 12
M  V30 12 2 12 13
M  V30 13 1 13 14
M  V30 14 1 13 15
M  V30 15 1 15 16
M  V30 16 2 16 17
M  V30 17 1 16 18
M  V30 18 2 15 19
M  V30 19 1 7 20
M  V30 20 2 20 21
M  V30 21 1 21 22
M  V30 22 2 22 23
M  V30 23 1 23 24
M  V30 24 2 24 25
M  V30 25 1 19 10
M  V30 26 1 25 20
M  V30 27 1 1 26
M  V30 28 1 1 27
M  V30 29 1 1 28
M  V30 30 1 5 29
M  V30 31 1 5 30
M  V30 32 1 6 31
M  V30 33 1 6 32
M  V30 34 1 11 33
M  V30 35 1 12 34
M  V30 36 1 14 35
M  V30 37 1 14 36
M  V30 38 1 14 37
M  V30 39 1 19 38
M  V30 40 1 21 39
M  V30 41 1 22 40
M  V30 42 1 23 41
M  V30 43 1 24 42
M  V30 END BOND
M  V30 END CTAB
M  END
>  <Dataset>  (724) 
ChEMBL_Kinases

>  <Ligand_Instance>  (724) 
nan

>  <PDB_ID>  (724) 
nan

>  <Standardized_SMILES>  (724) 
COC(=O)CCN(C(=O)c1ccc(C)c([N+](=O)[O-])c1)c1ccccn1

>  <Name>  (724) 
nan

>  <Pocket>  (724) 
nan

>  <ATP_Site>  (724) 
nan

>  <Peripheral>  (724) 
nan

>  <Num_H_Atoms_ProtBoundConf>  (724) 
nan

>  <Num_Resolved_Atoms>  (724) 
nan

>  <Num_Not_Resolved_Atoms>  (724) 
nan

$$$$
CHEMBL1537357
     RDKit          3D

  0  0  0  0  0  0  0  0  0  0999 V3000
M  V30 BEGIN CTAB
M  V30 COUNTS 30 32 0 0 0
M  V30 BEGIN ATOM
M  V30 1 C -3.113343 -1.950698 -0.741712 0
M  V30 2 C -1.741886 -1.506858 -0.378888 0
M  V30 3 N -0.850705 -2.446748 -0.001081 0
M  V30 4 C 0.424064 -2.098221 0.343834 0
M  V30 5 S 1.742484 -3.179503 0.863040 0
M  V30 6 C 1.764276 -3.417219 2.655646 0
M  V30 7 C 0.549724 -4.182713 3.143510 0
M  V30 8 O -0.581289 -3.461250 2.793339 0
M  V30 9 C 0.761959 -0.744093 0.289748 0
M  V30 10 O 1.864910 -0.068573 0.545368 0
M  V30 11 C 1.707877 1.217215 0.349548 0
M  V30 12 C 2.640092 2.237523 0.513542 0
M  V30 13 C 2.207803 3.525116 0.234075 0
M  V30 14 C 0.906522 3.804788 -0.191625 0
M  V30 15 C -0.003055 2.762189 -0.346066 0
M  V30 16 C 0.420101 1.477851 -0.069898 0
M  V30 17 C -0.158161 0.222921 -0.099977 0
M  V30 18 N -1.417028 -0.184104 -0.433541 0
M  V30 19 H -3.162639 -3.015519 -0.979563 0
M  V30 20 H -3.465623 -1.293207 -1.559229 0
M  V30 21 H -3.775835 -1.725200 0.128460 0
M  V30 22 H 2.660059 -4.019189 2.912563 0
M  V30 23 H 1.803299 -2.443864 3.203950 0
M  V30 24 H 0.599941 -4.341602 4.250731 0
M  V30 25 H 0.491037 -5.196993 2.688382 0
M  V30 26 H -1.249264 -4.028161 2.326180 0
M  V30 27 H 3.641501 2.004957 0.843725 0
M  V30 28 H 2.952957 4.291114 0.372625 0
M  V30 29 H 0.609438 4.822698 -0.399552 0
M  V30 30 H -1.026340 2.920204 -0.674229 0
M  V30 END ATOM
M  V30 BEGIN BOND
M  V30 1 1 1 2
M  V30 2 2 2 3
M  V30 3 1 3 4
M  V30 4 1 4 5
M  V30 5 1 5 6
M  V30 6 1 6 7
M  V30 7 1 7 8
M  V30 8 2 4 9
M  V30 9 1 9 10
M  V30 10 1 10 11
M  V30 11 2 11 12
M  V30 12 1 12 13
M  V30 13 2 13 14
M  V30 14 1 14 15
M  V30 15 2 15 16
M  V30 16 1 16 17
M  V30 17 2 17 18
M  V30 18 1 18 2
M  V30 19 1 17 9
M  V30 20 1 16 11
M  V30 21 1 1 19
M  V30 22 1 1 20
M  V30 23 1 1 21
M  V30 24 1 6 22
M  V30 25 1 6 23
M  V30 26 1 7 24
M  V30 27 1 7 25
M  V30 28 1 8 26
M  V30 29 1 12 27
M  V30 30 1 13 28
M  V30 31 1 14 29
M  V30 32 1 15 30
M  V30 END BOND
M  V30 END CTAB
M  END
>  <Dataset>  (725) 
ChEMBL_Kinases

>  <Ligand_Instance>  (725) 
nan

>  <PDB_ID>  (725) 
nan

>  <Standardized_SMILES>  (725) 
Cc1nc(SCCO)c2oc3ccccc3c2n1

>  <Name>  (725) 
nan

>  <Pocket>  (725) 
nan

>  <ATP_Site>  (725) 
nan

>  <Peripheral>  (725) 
nan

>  <Num_H_Atoms_ProtBoundConf>  (725) 
nan

>  <Num_Resolved_Atoms>  (725) 
nan

>  <Num_Not_Resolved_Atoms>  (725) 
nan

$$$$
CHEMBL1537258
     RDKit          3D

  0  0  0  0  0  0  0  0  0  0999 V3000
M  V30 BEGIN CTAB
M  V30 COUNTS 26 27 0 0 0
M  V30 BEGIN ATOM
M  V30 1 C -1.889299 -1.746440 4.442014 0
M  V30 2 C -1.310680 -1.827997 3.074419 0
M  V30 3 C -0.616011 -2.881269 2.517224 0
M  V30 4 C -0.116012 -2.852721 1.232251 0
M  V30 5 C -0.304421 -1.732751 0.452201 0
M  V30 6 N 0.144899 -1.606915 -0.913787 0
M  V30 7 C 0.715917 -0.232126 -1.168089 0
M  V30 8 N 0.723402 0.899285 -1.317748 0
M  V30 9 C 1.789299 1.638924 -1.590624 0
M  V30 10 C 1.699616 3.112763 -1.751762 0
M  V30 11 C 3.041413 0.952191 -1.706800 0
M  V30 12 S 2.526715 -0.837353 -1.384604 0
M  V30 13 C -1.007106 -0.640779 0.990268 0
M  V30 14 C -1.514081 -0.674595 2.294816 0
M  V30 15 H -2.946865 -2.093299 4.474185 0
M  V30 16 H -1.889237 -0.676997 4.807799 0
M  V30 17 H -1.257468 -2.300258 5.170504 0
M  V30 18 H -0.489904 -3.753389 3.174172 0
M  V30 19 H 0.419535 -3.699726 0.830008 0
M  V30 20 H 0.056972 -2.406342 -1.619814 0
M  V30 21 H 2.691522 3.591227 -1.519584 0
M  V30 22 H 1.007824 3.570537 -0.984377 0
M  V30 23 H 1.462269 3.437366 -2.784454 0
M  V30 24 H 4.026015 1.537809 -1.944275 0
M  V30 25 H -1.142521 0.240594 0.343956 0
M  V30 26 H -2.045832 0.245334 2.600245 0
M  V30 END ATOM
M  V30 BEGIN BOND
M  V30 1 1 1 2
M  V30 2 2 2 3
M  V30 3 1 3 4
M  V30 4 2 4 5
M  V30 5 1 5 6
M  V30 6 1 6 7
M  V30 7 2 7 8
M  V30 8 1 8 9
M  V30 9 1 9 10
M  V30 10 2 9 11
M  V30 11 1 11 12
M  V30 12 1 5 13
M  V30 13 2 13 14
M  V30 14 1 14 2
M  V30 15 1 12 7
M  V30 16 1 1 15
M  V30 17 1 1 16
M  V30 18 1 1 17
M  V30 19 1 3 18
M  V30 20 1 4 19
M  V30 21 1 6 20
M  V30 22 1 10 21
M  V30 23 1 10 22
M  V30 24 1 10 23
M  V30 25 1 11 24
M  V30 26 1 13 25
M  V30 27 1 14 26
M  V30 END BOND
M  V30 END CTAB
M  END
>  <Dataset>  (726) 
ChEMBL_Kinases

>  <Ligand_Instance>  (726) 
nan

>  <PDB_ID>  (726) 
nan

>  <Standardized_SMILES>  (726) 
Cc1ccc(Nc2nc(C)cs2)cc1

>  <Name>  (726) 
nan

>  <Pocket>  (726) 
nan

>  <ATP_Site>  (726) 
nan

>  <Peripheral>  (726) 
nan

>  <Num_H_Atoms_ProtBoundConf>  (726) 
nan

>  <Num_Resolved_Atoms>  (726) 
nan

>  <Num_Not_Resolved_Atoms>  (726) 
nan

$$$$
CHEMBL1537214
     RDKit          3D

  0  0  0  0  0  0  0  0  0  0999 V3000
M  V30 BEGIN CTAB
M  V30 COUNTS 28 29 0 0 0
M  V30 BEGIN ATOM
M  V30 1 C -2.560459 -1.894116 1.741911 0
M  V30 2 C -1.552366 -1.029886 2.466581 0
M  V30 3 N -0.414788 -0.793592 1.602904 0
M  V30 4 C 0.642546 -1.646058 1.630714 0
M  V30 5 O 0.592987 -2.625080 2.419560 0
M  V30 6 C 1.777153 -1.554781 0.880434 0
M  V30 7 C 2.855647 -2.519185 0.982373 0
M  V30 8 C 4.072678 -2.373865 0.140665 0
M  V30 9 O 2.747453 -3.478858 1.791467 0
M  V30 10 N 1.874602 -0.515203 0.015922 0
M  V30 11 C 0.854783 0.360494 -0.052500 0
M  V30 12 C 0.944499 1.434044 -0.940348 0
M  V30 13 C -0.091407 2.327864 -1.014876 0
M  V30 14 C -1.213736 2.182207 -0.230043 0
M  V30 15 C -1.302510 1.122361 0.646638 0
M  V30 16 C -0.265390 0.216906 0.729653 0
M  V30 17 H -3.564481 -1.653740 2.092835 0
M  V30 18 H -2.490355 -1.711730 0.656216 0
M  V30 19 H -2.286544 -2.951834 1.926407 0
M  V30 20 H -1.977470 -0.102638 2.890346 0
M  V30 21 H -1.158170 -1.588351 3.351882 0
M  V30 22 H 4.029999 -1.407707 -0.399682 0
M  V30 23 H 5.005238 -2.489619 0.722157 0
M  V30 24 H 4.064018 -3.171453 -0.636039 0
M  V30 25 H 1.824532 1.540712 -1.549920 0
M  V30 26 H 0.001154 3.150989 -1.709816 0
M  V30 27 H -2.024289 2.883252 -0.289724 0
M  V30 28 H -2.179718 1.035881 1.236895 0
M  V30 END ATOM
M  V30 BEGIN BOND
M  V30 1 1 1 2
M  V30 2 1 2 3
M  V30 3 1 3 4
M  V30 4 2 4 5
M  V30 5 1 4 6
M  V30 6 1 6 7
M  V30 7 1 7 8
M  V30 8 2 7 9
M  V30 9 2 6 10
M  V30 10 1 10 11
M  V30 11 2 11 12
M  V30 12 1 12 13
M  V30 13 2 13 14
M  V30 14 1 14 15
M  V30 15 2 15 16
M  V30 16 1 16 3
M  V30 17 1 16 11
M  V30 18 1 1 17
M  V30 19 1 1 18
M  V30 20 1 1 19
M  V30 21 1 2 20
M  V30 22 1 2 21
M  V30 23 1 8 22
M  V30 24 1 8 23
M  V30 25 1 8 24
M  V30 26 1 12 25
M  V30 27 1 13 26
M  V30 28 1 14 27
M  V30 29 1 15 28
M  V30 END BOND
M  V30 END CTAB
M  END
>  <Dataset>  (727) 
ChEMBL_Kinases

>  <Ligand_Instance>  (727) 
nan

>  <PDB_ID>  (727) 
nan

>  <Standardized_SMILES>  (727) 
CCn1c(=O)c(C(C)=O)nc2ccccc21

>  <Name>  (727) 
nan

>  <Pocket>  (727) 
nan

>  <ATP_Site>  (727) 
nan

>  <Peripheral>  (727) 
nan

>  <Num_H_Atoms_ProtBoundConf>  (727) 
nan

>  <Num_Resolved_Atoms>  (727) 
nan

>  <Num_Not_Resolved_Atoms>  (727) 
nan

$$$$
CHEMBL1537195
     RDKit          3D

  0  0  0  0  0  0  0  0  0  0999 V3000
M  V30 BEGIN CTAB
M  V30 COUNTS 29 30 0 0 0
M  V30 BEGIN ATOM
M  V30 1 C -2.996589 -1.628394 1.443694 0
M  V30 2 C -1.889657 -0.635877 1.496608 0
M  V30 3 N -0.724795 -1.194187 1.315682 0
M  V30 4 C 0.495423 -0.667942 1.290659 0
M  V30 5 S 2.149367 -1.178473 1.073964 0
M  V30 6 C 2.526901 -2.848322 0.721295 0
M  V30 7 C 2.257567 -3.255619 -0.692525 0
M  V30 8 C 0.854057 -3.180170 -1.096754 0
M  V30 9 O -0.382110 -2.992114 -0.973108 0
M  V30 10 O 0.801548 -3.517888 -2.452551 0
M  V30 11 C 0.435492 0.715310 1.500256 0
M  V30 12 C 1.512752 1.600931 1.539916 0
M  V30 13 C 1.465960 2.950708 1.743321 0
M  V30 14 C 0.229949 3.503375 1.929372 0
M  V30 15 C -0.914001 2.737539 1.913068 0
M  V30 16 C -0.763343 1.385214 1.700446 0
M  V30 17 N -1.905392 0.686165 1.693438 0
M  V30 18 H -2.923965 -2.193147 0.477378 0
M  V30 19 H -2.935577 -2.351739 2.273233 0
M  V30 20 H -3.973032 -1.140418 1.433842 0
M  V30 21 H 3.641150 -3.053522 0.881593 0
M  V30 22 H 2.060601 -3.589186 1.440977 0
M  V30 23 H 2.842176 -2.556443 -1.381511 0
M  V30 24 H 2.641070 -4.298297 -0.889123 0
M  V30 25 H 0.047985 -3.782940 -3.028728 0
M  V30 26 H 2.504706 1.154937 1.390153 0
M  V30 27 H 2.374787 3.517145 1.749989 0
M  V30 28 H 0.151872 4.564739 2.092810 0
M  V30 29 H -1.862002 3.196217 2.061302 0
M  V30 END ATOM
M  V30 BEGIN BOND
M  V30 1 1 1 2
M  V30 2 2 2 3
M  V30 3 1 3 4
M  V30 4 1 4 5
M  V30 5 1 5 6
M  V30 6 1 6 7
M  V30 7 1 7 8
M  V30 8 2 8 9
M  V30 9 1 8 10
M  V30 10 2 4 11
M  V30 11 1 11 12
M  V30 12 2 12 13
M  V30 13 1 13 14
M  V30 14 2 14 15
M  V30 15 1 15 16
M  V30 16 2 16 17
M  V30 17 1 17 2
M  V30 18 1 16 11
M  V30 19 1 1 18
M  V30 20 1 1 19
M  V30 21 1 1 20
M  V30 22 1 6 21
M  V30 23 1 6 22
M  V30 24 1 7 23
M  V30 25 1 7 24
M  V30 26 1 10 25
M  V30 27 1 12 26
M  V30 28 1 13 27
M  V30 29 1 14 28
M  V30 30 1 15 29
M  V30 END BOND
M  V30 END CTAB
M  END
>  <Dataset>  (728) 
ChEMBL_Kinases

>  <Ligand_Instance>  (728) 
nan

>  <PDB_ID>  (728) 
nan

>  <Standardized_SMILES>  (728) 
Cc1nc(SCCC(=O)O)c2ccccc2n1

>  <Name>  (728) 
nan

>  <Pocket>  (728) 
nan

>  <ATP_Site>  (728) 
nan

>  <Peripheral>  (728) 
nan

>  <Num_H_Atoms_ProtBoundConf>  (728) 
nan

>  <Num_Resolved_Atoms>  (728) 
nan

>  <Num_Not_Resolved_Atoms>  (728) 
nan

$$$$
CHEMBL1537130
     RDKit          3D

  0  0  0  0  0  0  0  0  0  0999 V3000
M  V30 BEGIN CTAB
M  V30 COUNTS 36 38 0 0 0
M  V30 BEGIN ATOM
M  V30 1 C 1.471227 -3.998663 3.078634 0
M  V30 2 C 0.547010 -3.865525 1.884782 0
M  V30 3 C -0.804615 -4.351281 2.274044 0
M  V30 4 C 0.571353 -2.453416 1.383392 0
M  V30 5 C -0.304968 -2.180119 0.196042 0
M  V30 6 N -0.133159 -0.762376 -0.124886 0
M  V30 7 C 0.826799 -0.327564 -0.990521 0
M  V30 8 O 1.581803 -1.198029 -1.521081 0
M  V30 9 C 0.929658 1.026106 -1.245261 0
M  V30 10 C 1.905609 1.456120 -2.123866 0
M  V30 11 C 2.005875 2.809823 -2.376445 0
M  V30 12 C 1.180636 3.754622 -1.795696 0
M  V30 13 C 0.211661 3.304024 -0.920441 0
M  V30 14 C 0.106655 1.959990 -0.665057 0
M  V30 15 N -0.813020 1.501366 0.169472 0
M  V30 16 C -1.754572 2.124242 0.888470 0
M  V30 17 S -2.201527 3.837263 1.054115 0
M  V30 18 N -2.456180 1.222843 1.593472 0
M  V30 19 N -1.938367 0.020541 1.304599 0
M  V30 20 C -0.916260 0.186646 0.419703 0
M  V30 21 H 2.408157 -4.531667 2.813383 0
M  V30 22 H 0.964553 -4.489164 3.937752 0
M  V30 23 H 1.766406 -2.988774 3.418391 0
M  V30 24 H 0.951304 -4.550240 1.091978 0
M  V30 25 H -0.693620 -5.080540 3.103733 0
M  V30 26 H -1.484532 -3.555115 2.642137 0
M  V30 27 H -1.242762 -4.941855 1.433031 0
M  V30 28 H 0.298924 -1.792574 2.232273 0
M  V30 29 H 1.616514 -2.200496 1.117306 0
M  V30 30 H -1.347672 -2.447937 0.334056 0
M  V30 31 H 0.063068 -2.760052 -0.674178 0
M  V30 32 H 2.583691 0.754733 -2.610342 0
M  V30 33 H 2.779569 3.132957 -3.070769 0
M  V30 34 H 1.331032 4.803399 -2.052870 0
M  V30 35 H -0.390608 4.082242 -0.507589 0
M  V30 36 H -1.405977 4.371598 2.103221 0
M  V30 END ATOM
M  V30 BEGIN BOND
M  V30 1 1 1 2
M  V30 2 1 2 3
M  V30 3 1 2 4
M  V30 4 1 4 5
M  V30 5 1 5 6
M  V30 6 1 6 7
M  V30 7 2 7 8
M  V30 8 1 7 9
M  V30 9 2 9 10
M  V30 10 1 10 11
M  V30 11 2 11 12
M  V30 12 1 12 13
M  V30 13 2 13 14
M  V30 14 1 14 15
M  V30 15 1 15 16
M  V30 16 1 16 17
M  V30 17 2 16 18
M  V30 18 1 18 19
M  V30 19 2 19 20
M  V30 20 1 20 6
M  V30 21 1 14 9
M  V30 22 1 20 15
M  V30 23 1 1 21
M  V30 24 1 1 22
M  V30 25 1 1 23
M  V30 26 1 2 24
M  V30 27 1 3 25
M  V30 28 1 3 26
M  V30 29 1 3 27
M  V30 30 1 4 28
M  V30 31 1 4 29
M  V30 32 1 5 30
M  V30 33 1 5 31
M  V30 34 1 10 32
M  V30 35 1 11 33
M  V30 36 1 12 34
M  V30 37 1 13 35
M  V30 38 1 17 36
M  V30 END BOND
M  V30 END CTAB
M  END
>  <Dataset>  (729) 
ChEMBL_Kinases

>  <Ligand_Instance>  (729) 
nan

>  <PDB_ID>  (729) 
nan

>  <Standardized_SMILES>  (729) 
CC(C)CCn1c(=O)c2ccccc2n2c(S)nnc12

>  <Name>  (729) 
nan

>  <Pocket>  (729) 
nan

>  <ATP_Site>  (729) 
nan

>  <Peripheral>  (729) 
nan

>  <Num_H_Atoms_ProtBoundConf>  (729) 
nan

>  <Num_Resolved_Atoms>  (729) 
nan

>  <Num_Not_Resolved_Atoms>  (729) 
nan

$$$$
CHEMBL1537053
     RDKit          3D

  0  0  0  0  0  0  0  0  0  0999 V3000
M  V30 BEGIN CTAB
M  V30 COUNTS 64 66 0 0 0
M  V30 BEGIN ATOM
M  V30 1 C 5.601457 0.466526 7.306773 0
M  V30 2 O 4.482924 1.073386 6.700178 0
M  V30 3 C 4.233182 0.904390 5.354186 0
M  V30 4 C 4.949038 0.186617 4.422405 0
M  V30 5 C 4.555187 0.121670 3.106865 0
M  V30 6 C 3.434664 0.757856 2.627483 0
M  V30 7 C 2.926633 0.757624 1.272061 0
M  V30 8 N 3.049918 1.654123 0.276299 0
M  V30 9 N 2.380464 1.140066 -0.741012 0
M  V30 10 N 1.853171 -0.045020 -0.391321 0
M  V30 11 C 1.074895 -0.772503 -1.375352 0
M  V30 12 C -0.350966 -0.369966 -1.263663 0
M  V30 13 O -0.622025 0.638078 -1.945791 0
M  V30 14 N -1.295568 -1.090994 -0.444275 0
M  V30 15 C -2.643186 -0.633644 -0.357554 0
M  V30 16 C -3.500597 -1.219089 -1.408616 0
M  V30 17 O -4.700535 -0.796068 -1.265659 0
M  V30 18 N -3.235022 -2.110782 -2.478276 0
M  V30 19 C -4.245856 -2.549928 -3.382030 0
M  V30 20 C -4.942189 -1.505401 -4.170841 0
M  V30 21 C -4.096833 -0.677518 -5.070299 0
M  V30 22 C -3.367176 -1.464106 -6.119942 0
M  V30 23 C -3.194394 0.240985 -4.297515 0
M  V30 24 C -1.014089 -2.245657 0.344840 0
M  V30 25 C -1.030896 -3.601625 0.134368 0
M  V30 26 C -0.694086 -4.464225 1.151918 0
M  V30 27 C -0.331291 -4.049119 2.401461 0
M  V30 28 C -0.306307 -2.676390 2.640133 0
M  V30 29 C -0.645448 -1.795585 1.617023 0
M  V30 30 N 2.190316 -0.291531 0.866453 0
M  V30 31 C 2.700743 1.490431 3.567917 0
M  V30 32 C 3.093625 1.558869 4.895066 0
M  V30 33 O 2.296780 2.310390 5.741202 0
M  V30 34 C 1.147123 2.976362 5.301708 0
M  V30 35 H 5.904765 -0.452867 6.794402 0
M  V30 36 H 5.300336 0.183270 8.357692 0
M  V30 37 H 6.477585 1.167045 7.384974 0
M  V30 38 H 5.816869 -0.307331 4.784041 0
M  V30 39 H 5.115810 -0.439160 2.383790 0
M  V30 40 H 1.461190 -0.633628 -2.381656 0
M  V30 41 H 1.083515 -1.866130 -1.097714 0
M  V30 42 H -2.725870 0.484539 -0.487575 0
M  V30 43 H -3.110390 -0.847372 0.626623 0
M  V30 44 H -2.227577 -2.374709 -2.500968 0
M  V30 45 H -4.989817 -3.160221 -2.827140 0
M  V30 46 H -3.793490 -3.284508 -4.113525 0
M  V30 47 H -5.797019 -1.965633 -4.731155 0
M  V30 48 H -5.450904 -0.783658 -3.473813 0
M  V30 49 H -4.800658 -0.006085 -5.629757 0
M  V30 50 H -2.268190 -1.343688 -5.897153 0
M  V30 51 H -3.684343 -2.503562 -6.199042 0
M  V30 52 H -3.472607 -1.033582 -7.142578 0
M  V30 53 H -2.784364 1.064731 -4.941950 0
M  V30 54 H -2.322646 -0.273894 -3.883344 0
M  V30 55 H -3.759041 0.758814 -3.503101 0
M  V30 56 H -1.327825 -3.818332 -0.878873 0
M  V30 57 H -0.739904 -5.504030 0.882146 0
M  V30 58 H -0.090603 -4.832546 3.110059 0
M  V30 59 H -0.012011 -2.417324 3.645043 0
M  V30 60 H -0.563894 -0.771782 2.004356 0
M  V30 61 H 1.792727 2.023123 3.244972 0
M  V30 62 H 0.550321 3.339540 6.181368 0
M  V30 63 H 0.460026 2.279783 4.766348 0
M  V30 64 H 1.414822 3.815591 4.641047 0
M  V30 END ATOM
M  V30 BEGIN BOND
M  V30 1 1 1 2
M  V30 2 1 2 3
M  V30 3 2 3 4
M  V30 4 1 4 5
M  V30 5 2 5 6
M  V30 6 1 6 7
M  V30 7 1 7 8
M  V30 8 2 8 9
M  V30 9 1 9 10
M  V30 10 1 10 11
M  V30 11 1 11 12
M  V30 12 2 12 13
M  V30 13 1 12 14
M  V30 14 1 14 15
M  V30 15 1 15 16
M  V30 16 2 16 17
M  V30 17 1 16 18
M  V30 18 1 18 19
M  V30 19 1 19 20
M  V30 20 1 20 21
M  V30 21 1 21 22
M  V30 22 1 21 23
M  V30 23 1 14 24
M  V30 24 2 24 25
M  V30 25 1 25 26
M  V30 26 2 26 27
M  V30 27 1 27 28
M  V30 28 2 28 29
M  V30 29 1 10 30
M  V30 30 1 6 31
M  V30 31 2 31 32
M  V30 32 1 32 33
M  V30 33 1 33 34
M  V30 34 1 32 3
M  V30 35 2 30 7
M  V30 36 1 29 24
M  V30 37 1 1 35
M  V30 38 1 1 36
M  V30 39 1 1 37
M  V30 40 1 4 38
M  V30 41 1 5 39
M  V30 42 1 11 40
M  V30 43 1 11 41
M  V30 44 1 15 42
M  V30 45 1 15 43
M  V30 46 1 18 44
M  V30 47 1 19 45
M  V30 48 1 19 46
M  V30 49 1 20 47
M  V30 50 1 20 48
M  V30 51 1 21 49
M  V30 52 1 22 50
M  V30 53 1 22 51
M  V30 54 1 22 52
M  V30 55 1 23 53
M  V30 56 1 23 54
M  V30 57 1 23 55
M  V30 58 1 25 56
M  V30 59 1 26 57
M  V30 60 1 27 58
M  V30 61 1 28 59
M  V30 62 1 29 60
M  V30 63 1 31 61
M  V30 64 1 34 62
M  V30 65 1 34 63
M  V30 66 1 34 64
M  V30 END BOND
M  V30 END CTAB
M  END
>  <Dataset>  (730) 
ChEMBL_Kinases

>  <Ligand_Instance>  (730) 
nan

>  <PDB_ID>  (730) 
nan

>  <Standardized_SMILES>  (730) 
COc1ccc(-c2nnn(CC(=O)N(CC(=O)NCCC(C)C)c3ccccc3)n2)cc1OC

>  <Name>  (730) 
nan

>  <Pocket>  (730) 
nan

>  <ATP_Site>  (730) 
nan

>  <Peripheral>  (730) 
nan

>  <Num_H_Atoms_ProtBoundConf>  (730) 
nan

>  <Num_Resolved_Atoms>  (730) 
nan

>  <Num_Not_Resolved_Atoms>  (730) 
nan

$$$$
CHEMBL1537042
     RDKit          3D

  0  0  0  0  0  0  0  0  0  0999 V3000
M  V30 BEGIN CTAB
M  V30 COUNTS 43 45 0 0 0
M  V30 BEGIN ATOM
M  V30 1 C -2.525360 -4.384433 0.522072 0
M  V30 2 N -1.700269 -3.512040 -0.236718 0
M  V30 3 C -0.864013 -4.131394 -1.192809 0
M  V30 4 C -1.260758 -2.327839 0.395240 0
M  V30 5 C -0.352589 -1.513454 -0.537423 0
M  V30 6 N 0.088861 -0.299372 0.129258 0
M  V30 7 C 0.926608 0.460296 -0.719637 0
M  V30 8 O 1.160998 0.013222 -1.860056 0
M  V30 9 C 1.537298 1.733392 -0.353837 0
M  V30 10 C 2.331557 2.351920 -1.296481 0
M  V30 11 C 2.952258 3.576256 -1.020014 0
M  V30 12 C 2.780884 4.188862 0.203467 0
M  V30 13 N 3.207478 5.325403 0.796937 0
M  V30 14 C 2.716059 5.430913 2.047685 0
M  V30 15 N 1.949970 4.318825 2.252054 0
M  V30 16 C 1.983185 3.558868 1.138173 0
M  V30 17 C 1.370622 2.351883 0.867105 0
M  V30 18 C -0.682882 -2.469208 1.738377 0
M  V30 19 C 0.236401 -3.416645 2.138926 0
M  V30 20 C 0.743588 -3.498860 3.420210 0
M  V30 21 C 0.332318 -2.600231 4.383726 0
M  V30 22 C -0.584454 -1.618662 4.072627 0
M  V30 23 C -1.048410 -1.596269 2.773474 0
M  V30 24 H -2.040683 -4.521655 1.513554 0
M  V30 25 H -3.550775 -3.927378 0.612708 0
M  V30 26 H -2.561356 -5.369561 -0.015715 0
M  V30 27 H -1.507360 -4.887140 -1.737459 0
M  V30 28 H -0.575222 -3.422735 -2.020750 0
M  V30 29 H -0.013227 -4.710688 -0.827822 0
M  V30 30 H -2.176286 -1.663236 0.493989 0
M  V30 31 H -0.927926 -1.222993 -1.429300 0
M  V30 32 H 0.496788 -2.131795 -0.866799 0
M  V30 33 H -0.091236 0.096515 1.077342 0
M  V30 34 H 2.530224 1.952968 -2.289249 0
M  V30 35 H 3.585313 4.103548 -1.724434 0
M  V30 36 H 3.842256 6.018662 0.315559 0
M  V30 37 H 2.888918 6.234635 2.757393 0
M  V30 38 H 0.751989 1.875379 1.608481 0
M  V30 39 H 0.571910 -4.125821 1.409358 0
M  V30 40 H 1.466332 -4.266448 3.680497 0
M  V30 41 H 0.717373 -2.650626 5.385398 0
M  V30 42 H -0.952687 -0.883516 4.768119 0
M  V30 43 H -1.778728 -0.818930 2.515564 0
M  V30 END ATOM
M  V30 BEGIN BOND
M  V30 1 1 1 2
M  V30 2 1 2 3
M  V30 3 1 2 4
M  V30 4 1 4 5
M  V30 5 1 5 6
M  V30 6 1 6 7
M  V30 7 2 7 8
M  V30 8 1 7 9
M  V30 9 2 9 10
M  V30 10 1 10 11
M  V30 11 2 11 12
M  V30 12 1 12 13
M  V30 13 1 13 14
M  V30 14 2 14 15
M  V30 15 1 15 16
M  V30 16 2 16 17
M  V30 17 1 4 18
M  V30 18 2 18 19
M  V30 19 1 19 20
M  V30 20 2 20 21
M  V30 21 1 21 22
M  V30 22 2 22 23
M  V30 23 1 17 9
M  V30 24 1 23 18
M  V30 25 1 16 12
M  V30 26 1 1 24
M  V30 27 1 1 25
M  V30 28 1 1 26
M  V30 29 1 3 27
M  V30 30 1 3 28
M  V30 31 1 3 29
M  V30 32 1 4 30
M  V30 33 1 5 31
M  V30 34 1 5 32
M  V30 35 1 6 33
M  V30 36 1 10 34
M  V30 37 1 11 35
M  V30 38 1 13 36
M  V30 39 1 14 37
M  V30 40 1 17 38
M  V30 41 1 19 39
M  V30 42 1 20 40
M  V30 43 1 21 41
M  V30 44 1 22 42
M  V30 45 1 23 43
M  V30 END BOND
M  V30 END CTAB
M  END
>  <Dataset>  (731) 
ChEMBL_Kinases

>  <Ligand_Instance>  (731) 
nan

>  <PDB_ID>  (731) 
nan

>  <Standardized_SMILES>  (731) 
CN(C)C(CNC(=O)c1ccc2[nH]cnc2c1)c1ccccc1

>  <Name>  (731) 
nan

>  <Pocket>  (731) 
nan

>  <ATP_Site>  (731) 
nan

>  <Peripheral>  (731) 
nan

>  <Num_H_Atoms_ProtBoundConf>  (731) 
nan

>  <Num_Resolved_Atoms>  (731) 
nan

>  <Num_Not_Resolved_Atoms>  (731) 
nan

$$$$
CHEMBL1536896
     RDKit          3D

  0  0  0  0  0  0  0  0  0  0999 V3000
M  V30 BEGIN CTAB
M  V30 COUNTS 59 62 0 0 0
M  V30 BEGIN ATOM
M  V30 1 C 8.145659 1.751996 3.176181 0
M  V30 2 C 7.462102 0.430946 3.009038 0
M  V30 3 O 6.159493 0.531309 2.511225 0
M  V30 4 C 5.336218 -0.564954 2.272856 0
M  V30 5 O 6.127025 -1.436416 2.627241 0
M  V30 6 C 3.984260 -0.362698 1.750539 0
M  V30 7 S 3.307797 1.233169 1.390349 0
M  V30 8 C 1.715269 0.620558 0.833966 0
M  V30 9 N 0.607793 1.261154 0.378097 0
M  V30 10 C -0.493123 0.561322 0.014887 0
M  V30 11 C -1.567759 1.282700 -0.432986 0
M  V30 12 S -1.566488 3.062386 -0.552401 0
M  V30 13 C -2.155604 3.841026 0.975803 0
M  V30 14 C -1.204953 3.595259 2.136450 0
M  V30 15 C -1.811874 4.285749 3.312039 0
M  V30 16 O -2.867804 4.937919 3.354572 0
M  V30 17 O -1.051530 4.145430 4.482187 0
M  V30 18 C -2.667300 0.495680 -0.788899 0
M  V30 19 C -2.636650 -0.900532 -0.684224 0
M  V30 20 C -3.852174 -1.588657 -1.072611 0
M  V30 21 O -4.889363 -0.882833 -0.839353 0
M  V30 22 C -4.141458 -2.883090 -1.659183 0
M  V30 23 C -3.210945 -3.792030 -2.108861 0
M  V30 24 C -3.500836 -5.005987 -2.675563 0
M  V30 25 O -2.561498 -5.916281 -3.125794 0
M  V30 26 C -1.175907 -5.703188 -3.055371 0
M  V30 27 C -4.843362 -5.360608 -2.813913 0
M  V30 28 C -5.790568 -4.464834 -2.370548 0
M  V30 29 C -5.466090 -3.230578 -1.794774 0
M  V30 30 O -6.567309 -2.457358 -1.406354 0
M  V30 31 C -1.475760 -1.468021 -0.213954 0
M  V30 32 N -0.385045 -0.769625 0.144697 0
M  V30 33 C 0.691620 -1.432193 0.590233 0
M  V30 34 O 0.612771 -2.694459 0.646266 0
M  V30 35 C 1.831569 -0.744722 0.968650 0
M  V30 36 C 3.002165 -1.233801 1.440110 0
M  V30 37 C 3.306816 -2.700737 1.648186 0
M  V30 38 H 9.250151 1.678155 3.152365 0
M  V30 39 H 7.841400 2.178919 4.151407 0
M  V30 40 H 7.846138 2.494961 2.399836 0
M  V30 41 H 7.517674 -0.110585 3.982035 0
M  V30 42 H 8.038131 -0.148817 2.243718 0
M  V30 43 H -3.177729 3.534309 1.208084 0
M  V30 44 H -2.162422 4.933314 0.780337 0
M  V30 45 H -1.066064 2.517063 2.295503 0
M  V30 46 H -0.220706 4.052105 1.964222 0
M  V30 47 H -1.487769 4.242582 5.410181 0
M  V30 48 H -3.536714 1.051128 -1.149572 0
M  V30 49 H -2.173184 -3.579026 -2.044386 0
M  V30 50 H -0.665048 -6.560543 -3.547451 0
M  V30 51 H -0.974013 -4.771370 -3.645870 0
M  V30 52 H -0.788495 -5.652654 -2.020452 0
M  V30 53 H -5.097939 -6.308889 -3.256081 0
M  V30 54 H -6.823195 -4.763393 -2.488158 0
M  V30 55 H -6.805168 -2.425270 -0.418277 0
M  V30 56 H -1.461748 -2.524110 -0.122682 0
M  V30 57 H 4.403479 -2.903970 1.475774 0
M  V30 58 H 2.795470 -3.346730 0.915588 0
M  V30 59 H 3.009463 -3.045113 2.654648 0
M  V30 END ATOM
M  V30 BEGIN BOND
M  V30 1 1 1 2
M  V30 2 1 2 3
M  V30 3 1 3 4
M  V30 4 2 4 5
M  V30 5 1 4 6
M  V30 6 1 6 7
M  V30 7 1 7 8
M  V30 8 1 8 9
M  V30 9 2 9 10
M  V30 10 1 10 11
M  V30 11 1 11 12
M  V30 12 1 12 13
M  V30 13 1 13 14
M  V30 14 1 14 15
M  V30 15 2 15 16
M  V30 16 1 15 17
M  V30 17 2 11 18
M  V30 18 1 18 19
M  V30 19 1 19 20
M  V30 20 2 20 21
M  V30 21 1 20 22
M  V30 22 2 22 23
M  V30 23 1 23 24
M  V30 24 1 24 25
M  V30 25 1 25 26
M  V30 26 2 24 27
M  V30 27 1 27 28
M  V30 28 2 28 29
M  V30 29 1 29 30
M  V30 30 2 19 31
M  V30 31 1 31 32
M  V30 32 1 32 33
M  V30 33 2 33 34
M  V30 34 1 33 35
M  V30 35 1 35 36
M  V30 36 1 36 37
M  V30 37 2 36 6
M  V30 38 2 35 8
M  V30 39 1 32 10
M  V30 40 1 29 22
M  V30 41 1 1 38
M  V30 42 1 1 39
M  V30 43 1 1 40
M  V30 44 1 2 41
M  V30 45 1 2 42
M  V30 46 1 13 43
M  V30 47 1 13 44
M  V30 48 1 14 45
M  V30 49 1 14 46
M  V30 50 1 17 47
M  V30 51 1 18 48
M  V30 52 1 23 49
M  V30 53 1 26 50
M  V30 54 1 26 51
M  V30 55 1 26 52
M  V30 56 1 27 53
M  V30 57 1 28 54
M  V30 58 1 30 55
M  V30 59 1 31 56
M  V30 60 1 37 57
M  V30 61 1 37 58
M  V30 62 1 37 59
M  V30 END BOND
M  V30 END CTAB
M  END
>  <Dataset>  (732) 
ChEMBL_Kinases

>  <Ligand_Instance>  (732) 
nan

>  <PDB_ID>  (732) 
nan

>  <Standardized_SMILES>  (732) 
CCOC(=O)c1sc2nc3c(SCCC(=O)O)cc(C(=O)c4cc(OC)ccc4O)cn3c(=O)c2c1C

>  <Name>  (732) 
nan

>  <Pocket>  (732) 
nan

>  <ATP_Site>  (732) 
nan

>  <Peripheral>  (732) 
nan

>  <Num_H_Atoms_ProtBoundConf>  (732) 
nan

>  <Num_Resolved_Atoms>  (732) 
nan

>  <Num_Not_Resolved_Atoms>  (732) 
nan

$$$$
CHEMBL1536852
     RDKit          3D

  0  0  0  0  0  0  0  0  0  0999 V3000
M  V30 BEGIN CTAB
M  V30 COUNTS 34 36 0 0 0
M  V30 BEGIN ATOM
M  V30 1 C 0.161615 -1.662423 4.145910 0
M  V30 2 N 0.465016 -1.566468 2.722045 0
M  V30 3 C 0.565176 -2.801390 2.147857 0
M  V30 4 O 0.420315 -3.878544 2.738872 0
M  V30 5 C 0.854474 -2.807257 0.788502 0
M  V30 6 C 1.002115 -3.981749 0.112144 0
M  V30 7 C 1.317223 -4.018158 -1.240052 0
M  V30 8 C 1.482118 -2.795261 -1.901727 0
M  V30 9 C 1.318557 -1.648540 -1.161530 0
M  V30 10 C 1.004999 -1.590979 0.178629 0
M  V30 11 N 0.911890 -0.362837 0.710228 0
M  V30 12 C 1.005698 0.920646 0.125067 0
M  V30 13 C -0.337661 1.461440 -0.172890 0
M  V30 14 C -0.836808 2.455635 0.691936 0
M  V30 15 C -2.047584 3.110421 0.625867 0
M  V30 16 C -2.886935 2.756879 -0.415300 0
M  V30 17 C -2.489244 1.805386 -1.301425 0
M  V30 18 C -1.262229 1.210060 -1.150470 0
M  V30 19 F -0.921598 0.284863 -2.067096 0
M  V30 20 C 0.631474 -0.422232 2.031499 0
M  V30 21 O 0.484622 0.547681 2.810684 0
M  V30 22 H 0.758716 -2.457059 4.613189 0
M  V30 23 H -0.911429 -1.933453 4.241523 0
M  V30 24 H 0.400533 -0.721511 4.681920 0
M  V30 25 H 0.863390 -4.898887 0.673736 0
M  V30 26 H 1.422431 -4.979661 -1.727483 0
M  V30 27 H 1.726455 -2.815246 -2.944651 0
M  V30 28 H 1.473348 -0.753045 -1.740684 0
M  V30 29 H 1.547098 0.989753 -0.843212 0
M  V30 30 H 1.472959 1.596902 0.881989 0
M  V30 31 H -0.250444 2.820526 1.549809 0
M  V30 32 H -2.381811 3.853465 1.301185 0
M  V30 33 H -3.841470 3.216856 -0.536445 0
M  V30 34 H -3.124615 1.520702 -2.111385 0
M  V30 END ATOM
M  V30 BEGIN BOND
M  V30 1 1 1 2
M  V30 2 1 2 3
M  V30 3 2 3 4
M  V30 4 1 3 5
M  V30 5 2 5 6
M  V30 6 1 6 7
M  V30 7 2 7 8
M  V30 8 1 8 9
M  V30 9 2 9 10
M  V30 10 1 10 11
M  V30 11 1 11 12
M  V30 12 1 12 13
M  V30 13 2 13 14
M  V30 14 1 14 15
M  V30 15 2 15 16
M  V30 16 1 16 17
M  V30 17 2 17 18
M  V30 18 1 18 19
M  V30 19 1 11 20
M  V30 20 2 20 21
M  V30 21 1 20 2
M  V30 22 1 10 5
M  V30 23 1 18 13
M  V30 24 1 1 22
M  V30 25 1 1 23
M  V30 26 1 1 24
M  V30 27 1 6 25
M  V30 28 1 7 26
M  V30 29 1 8 27
M  V30 30 1 9 28
M  V30 31 1 12 29
M  V30 32 1 12 30
M  V30 33 1 14 31
M  V30 34 1 15 32
M  V30 35 1 16 33
M  V30 36 1 17 34
M  V30 END BOND
M  V30 END CTAB
M  END
>  <Dataset>  (733) 
ChEMBL_Kinases

>  <Ligand_Instance>  (733) 
nan

>  <PDB_ID>  (733) 
nan

>  <Standardized_SMILES>  (733) 
Cn1c(=O)c2ccccc2n(Cc2ccccc2F)c1=O

>  <Name>  (733) 
nan

>  <Pocket>  (733) 
nan

>  <ATP_Site>  (733) 
nan

>  <Peripheral>  (733) 
nan

>  <Num_H_Atoms_ProtBoundConf>  (733) 
nan

>  <Num_Resolved_Atoms>  (733) 
nan

>  <Num_Not_Resolved_Atoms>  (733) 
nan

$$$$
CHEMBL1536771
     RDKit          3D

  0  0  0  0  0  0  0  0  0  0999 V3000
M  V30 BEGIN CTAB
M  V30 COUNTS 29 29 0 0 0
M  V30 BEGIN ATOM
M  V30 1 C 0.804852 0.273201 2.763225 0
M  V30 2 C 1.173206 -0.054309 1.353397 0
M  V30 3 N 1.060278 -1.372688 0.889539 0
M  V30 4 C -0.017510 -1.592992 -0.038968 0
M  V30 5 C -1.377017 -1.270663 0.547382 0
M  V30 6 C -1.572408 -2.435470 1.496204 0
M  V30 7 C -1.029622 -3.606708 0.741695 0
M  V30 8 C -0.183451 -3.060923 -0.378507 0
M  V30 9 C 1.596773 0.931137 0.592438 0
M  V30 10 C 1.966557 0.671370 -0.779250 0
M  V30 11 N 2.278043 0.474924 -1.897206 0
M  V30 12 C 1.735501 2.321663 1.017584 0
M  V30 13 N 2.191150 3.401056 0.211182 0
M  V30 14 O 1.472822 2.773209 2.160680 0
M  V30 15 H 0.567851 -0.651977 3.317655 0
M  V30 16 H 1.695298 0.733738 3.280869 0
M  V30 17 H 0.007593 1.017999 2.783340 0
M  V30 18 H 1.745609 -2.094469 1.236035 0
M  V30 19 H 0.087395 -1.002448 -0.970295 0
M  V30 20 H -2.112620 -1.329974 -0.277178 0
M  V30 21 H -1.395791 -0.286170 1.054003 0
M  V30 22 H -2.653897 -2.577245 1.706774 0
M  V30 23 H -0.975490 -2.247723 2.404452 0
M  V30 24 H -0.435157 -4.249507 1.410604 0
M  V30 25 H -1.869273 -4.185822 0.280267 0
M  V30 26 H -0.748606 -3.073372 -1.338494 0
M  V30 27 H 0.795297 -3.565650 -0.457172 0
M  V30 28 H 1.555087 4.083761 -0.291120 0
M  V30 29 H 1.360429 3.923652 -0.170442 0
M  V30 END ATOM
M  V30 BEGIN BOND
M  V30 1 1 1 2
M  V30 2 1 2 3
M  V30 3 1 3 4
M  V30 4 1 4 5
M  V30 5 1 5 6
M  V30 6 1 6 7
M  V30 7 1 7 8
M  V30 8 2 2 9
M  V30 9 1 9 10
M  V30 10 3 10 11
M  V30 11 1 9 12
M  V30 12 1 12 13
M  V30 13 2 12 14
M  V30 14 1 8 4
M  V30 15 1 1 15
M  V30 16 1 1 16
M  V30 17 1 1 17
M  V30 18 1 3 18
M  V30 19 1 4 19
M  V30 20 1 5 20
M  V30 21 1 5 21
M  V30 22 1 6 22
M  V30 23 1 6 23
M  V30 24 1 7 24
M  V30 25 1 7 25
M  V30 26 1 8 26
M  V30 27 1 8 27
M  V30 28 1 13 28
M  V30 29 1 13 29
M  V30 END BOND
M  V30 END CTAB
M  END
>  <Dataset>  (734) 
ChEMBL_Kinases

>  <Ligand_Instance>  (734) 
nan

>  <PDB_ID>  (734) 
nan

>  <Standardized_SMILES>  (734) 
C/C(NC1CCCC1)=C(/C#N)C(N)=O

>  <Name>  (734) 
nan

>  <Pocket>  (734) 
nan

>  <ATP_Site>  (734) 
nan

>  <Peripheral>  (734) 
nan

>  <Num_H_Atoms_ProtBoundConf>  (734) 
nan

>  <Num_Resolved_Atoms>  (734) 
nan

>  <Num_Not_Resolved_Atoms>  (734) 
nan

$$$$
CHEMBL1536681
     RDKit          3D

  0  0  0  0  0  0  0  0  0  0999 V3000
M  V30 BEGIN CTAB
M  V30 COUNTS 26 28 0 0 0
M  V30 BEGIN ATOM
M  V30 1 C -1.027046 -1.152088 4.525633 0
M  V30 2 C 0.318602 -1.372351 4.352375 0
M  V30 3 C 0.915732 -1.199189 3.097627 0
M  V30 4 C 0.197671 -0.804335 1.984311 0
M  V30 5 C 0.839903 -0.636095 0.707109 0
M  V30 6 N 2.179501 -0.876583 0.592825 0
M  V30 7 N 2.561239 -0.663423 -0.656387 0
M  V30 8 C 1.500537 -0.281877 -1.391192 0
M  V30 9 C 0.395939 -0.261743 -0.527101 0
M  V30 10 C -0.778783 0.144127 -1.267768 0
M  V30 11 C -0.164323 1.040198 -2.353601 0
M  V30 12 C 1.008633 0.129929 -2.746396 0
M  V30 13 C -1.145125 -0.598209 2.216460 0
M  V30 14 C -1.764419 -0.757700 3.430481 0
M  V30 15 H -1.429152 -1.301368 5.512703 0
M  V30 16 H 0.919498 -1.682666 5.196591 0
M  V30 17 H 1.984888 -1.398267 3.064620 0
M  V30 18 H 2.939540 -1.178484 1.242627 0
M  V30 19 H -1.601951 0.614287 -0.763068 0
M  V30 20 H -1.230203 -0.700223 -1.865880 0
M  V30 21 H 0.254869 1.963385 -1.908777 0
M  V30 22 H -0.856984 1.208265 -3.182926 0
M  V30 23 H 0.590334 -0.758153 -3.219015 0
M  V30 24 H 1.774388 0.665326 -3.322449 0
M  V30 25 H -1.781495 -0.294475 1.426751 0
M  V30 26 H -2.825833 -0.585216 3.572590 0
M  V30 END ATOM
M  V30 BEGIN BOND
M  V30 1 2 1 2
M  V30 2 1 2 3
M  V30 3 2 3 4
M  V30 4 1 4 5
M  V30 5 1 5 6
M  V30 6 1 6 7
M  V30 7 2 7 8
M  V30 8 1 8 9
M  V30 9 1 9 10
M  V30 10 1 10 11
M  V30 11 1 11 12
M  V30 12 1 4 13
M  V30 13 2 13 14
M  V30 14 1 14 1
M  V30 15 2 9 5
M  V30 16 1 12 8
M  V30 17 1 1 15
M  V30 18 1 2 16
M  V30 19 1 3 17
M  V30 20 1 6 18
M  V30 21 1 10 19
M  V30 22 1 10 20
M  V30 23 1 11 21
M  V30 24 1 11 22
M  V30 25 1 12 23
M  V30 26 1 12 24
M  V30 27 1 13 25
M  V30 28 1 14 26
M  V30 END BOND
M  V30 END CTAB
M  END
>  <Dataset>  (735) 
ChEMBL_Kinases

>  <Ligand_Instance>  (735) 
nan

>  <PDB_ID>  (735) 
nan

>  <Standardized_SMILES>  (735) 
c1ccc(-c2[nH]nc3c2CCC3)cc1

>  <Name>  (735) 
nan

>  <Pocket>  (735) 
nan

>  <ATP_Site>  (735) 
nan

>  <Peripheral>  (735) 
nan

>  <Num_H_Atoms_ProtBoundConf>  (735) 
nan

>  <Num_Resolved_Atoms>  (735) 
nan

>  <Num_Not_Resolved_Atoms>  (735) 
nan

$$$$
CHEMBL1536545
     RDKit          3D

  0  0  0  0  0  0  0  0  0  0999 V3000
M  V30 BEGIN CTAB
M  V30 COUNTS 48 51 0 0 0
M  V30 BEGIN ATOM
M  V30 1 C 3.694512 -5.393746 0.617264 0
M  V30 2 C 2.847766 -4.937810 -0.544454 0
M  V30 3 C 2.354277 -6.205726 -1.226037 0
M  V30 4 C 3.614254 -4.062348 -1.473749 0
M  V30 5 C 4.151621 -2.797781 -0.864500 0
M  V30 6 N 3.113841 -1.957438 -0.343691 0
M  V30 7 C 2.610701 -1.972310 0.900155 0
M  V30 8 N 1.650649 -1.186147 1.363613 0
M  V30 9 C 1.052046 -0.248854 0.604267 0
M  V30 10 C 1.529976 -0.194315 -0.671940 0
M  V30 11 S 0.664332 1.038188 -1.481821 0
M  V30 12 C -0.389650 1.482189 0.009574 0
M  V30 13 N -1.359573 2.417390 0.147311 0
M  V30 14 C -2.007371 2.589150 1.301065 0
M  V30 15 C -1.588183 1.738518 2.288305 0
M  V30 16 C -0.610031 0.780024 2.185406 0
M  V30 17 C 0.059459 0.601712 0.994896 0
M  V30 18 C -2.271578 1.867814 3.627409 0
M  V30 19 S -4.045139 1.853106 3.244306 0
M  V30 20 C -4.330569 3.173757 2.034668 0
M  V30 21 C -4.871484 4.372791 2.800355 0
M  V30 22 C -5.359742 2.746274 1.007552 0
M  V30 23 C -3.042106 3.610671 1.393239 0
M  V30 24 C 2.539606 -1.032395 -1.132826 0
M  V30 25 O 2.901400 -0.897863 -2.317533 0
M  V30 26 H 4.308352 -6.276141 0.273300 0
M  V30 27 H 4.357839 -4.612410 0.999366 0
M  V30 28 H 2.987855 -5.718438 1.423162 0
M  V30 29 H 1.971583 -4.406210 -0.102775 0
M  V30 30 H 1.933788 -6.005285 -2.230112 0
M  V30 31 H 3.213993 -6.898660 -1.306628 0
M  V30 32 H 1.578479 -6.690850 -0.602760 0
M  V30 33 H 4.380658 -4.626355 -2.021784 0
M  V30 34 H 2.880379 -3.732341 -2.268246 0
M  V30 35 H 4.651493 -2.223569 -1.681484 0
M  V30 36 H 4.906147 -3.009586 -0.089563 0
M  V30 37 H 3.041125 -2.709306 1.595896 0
M  V30 38 H -0.370655 0.168193 3.044772 0
M  V30 39 H -2.048771 2.873640 4.071253 0
M  V30 40 H -2.052522 1.044369 4.304842 0
M  V30 41 H -4.435244 4.460191 3.819140 0
M  V30 42 H -4.705869 5.315899 2.250452 0
M  V30 43 H -5.976081 4.218811 2.914886 0
M  V30 44 H -6.347780 3.183344 1.279661 0
M  V30 45 H -5.062312 2.987660 -0.032315 0
M  V30 46 H -5.486143 1.630167 1.047268 0
M  V30 47 H -2.583578 4.481648 1.947852 0
M  V30 48 H -3.307727 3.993167 0.395710 0
M  V30 END ATOM
M  V30 BEGIN BOND
M  V30 1 1 1 2
M  V30 2 1 2 3
M  V30 3 1 2 4
M  V30 4 1 4 5
M  V30 5 1 5 6
M  V30 6 1 6 7
M  V30 7 2 7 8
M  V30 8 1 8 9
M  V30 9 2 9 10
M  V30 10 1 10 11
M  V30 11 1 11 12
M  V30 12 2 12 13
M  V30 13 1 13 14
M  V30 14 2 14 15
M  V30 15 1 15 16
M  V30 16 2 16 17
M  V30 17 1 15 18
M  V30 18 1 18 19
M  V30 19 1 19 20
M  V30 20 1 20 21
M  V30 21 1 20 22
M  V30 22 1 20 23
M  V30 23 1 10 24
M  V30 24 2 24 25
M  V30 25 1 24 6
M  V30 26 1 17 9
M  V30 27 1 17 12
M  V30 28 1 23 14
M  V30 29 1 1 26
M  V30 30 1 1 27
M  V30 31 1 1 28
M  V30 32 1 2 29
M  V30 33 1 3 30
M  V30 34 1 3 31
M  V30 35 1 3 32
M  V30 36 1 4 33
M  V30 37 1 4 34
M  V30 38 1 5 35
M  V30 39 1 5 36
M  V30 40 1 7 37
M  V30 41 1 16 38
M  V30 42 1 18 39
M  V30 43 1 18 40
M  V30 44 1 21 41
M  V30 45 1 21 42
M  V30 46 1 21 43
M  V30 47 1 22 44
M  V30 48 1 22 45
M  V30 49 1 22 46
M  V30 50 1 23 47
M  V30 51 1 23 48
M  V30 END BOND
M  V30 END CTAB
M  END
>  <Dataset>  (736) 
ChEMBL_Kinases

>  <Ligand_Instance>  (736) 
nan

>  <PDB_ID>  (736) 
nan

>  <Standardized_SMILES>  (736) 
CC(C)CCn1cnc2c(sc3nc4c(cc32)CSC(C)(C)C4)c1=O

>  <Name>  (736) 
nan

>  <Pocket>  (736) 
nan

>  <ATP_Site>  (736) 
nan

>  <Peripheral>  (736) 
nan

>  <Num_H_Atoms_ProtBoundConf>  (736) 
nan

>  <Num_Resolved_Atoms>  (736) 
nan

>  <Num_Not_Resolved_Atoms>  (736) 
nan

$$$$
CHEMBL1533422
     RDKit          3D

  0  0  0  0  0  0  0  0  0  0999 V3000
M  V30 BEGIN CTAB
M  V30 COUNTS 49 51 0 0 0
M  V30 BEGIN ATOM
M  V30 1 C -0.787321 -0.830972 3.898807 0
M  V30 2 C 0.100764 -1.585053 2.954786 0
M  V30 3 N 0.471661 -0.733426 1.831539 0
M  V30 4 C 1.418290 -1.440499 0.971589 0
M  V30 5 C 2.075621 -0.561553 0.018156 0
M  V30 6 O 2.829370 -1.200976 -0.758657 0
M  V30 7 N 1.877668 0.839583 -0.007926 0
M  V30 8 C 2.255681 2.023524 -0.689872 0
M  V30 9 C 1.590533 2.541862 -1.784834 0
M  V30 10 C 1.974623 3.695170 -2.436406 0
M  V30 11 C 3.089263 4.321319 -1.922100 0
M  V30 12 C 3.833089 3.904640 -0.841260 0
M  V30 13 C 3.380971 2.732022 -0.238296 0
M  V30 14 S 4.259769 2.070947 1.184619 0
M  V30 15 C 3.622657 2.717701 2.744696 0
M  V30 16 C -0.735766 -0.428959 1.052448 0
M  V30 17 C -1.558524 -1.624831 0.773347 0
M  V30 18 N -2.488921 -1.836895 1.733203 0
M  V30 19 C -3.359107 -2.862234 1.702973 0
M  V30 20 O -4.312004 -3.052834 2.715732 0
M  V30 21 C -3.286859 -3.731621 0.634634 0
M  V30 22 C -4.177892 -4.809688 0.570630 0
M  V30 23 C -4.094382 -5.682008 -0.517102 0
M  V30 24 C -3.131180 -5.449561 -1.496249 0
M  V30 25 C -2.249993 -4.384608 -1.434283 0
M  V30 26 C -2.327000 -3.520881 -0.364688 0
M  V30 27 N -1.491704 -2.461254 -0.251015 0
M  V30 28 H -0.211557 -0.484565 4.813513 0
M  V30 29 H -1.298741 0.041203 3.480789 0
M  V30 30 H -1.505263 -1.576973 4.337536 0
M  V30 31 H -0.293390 -2.552554 2.650004 0
M  V30 32 H 1.062068 -1.795019 3.488268 0
M  V30 33 H 2.086549 -2.013818 1.624116 0
M  V30 34 H 0.820428 -2.184856 0.404419 0
M  V30 35 H 1.278797 1.364020 0.664281 0
M  V30 36 H 0.717951 1.961716 -2.107979 0
M  V30 37 H 1.420958 4.061498 -3.289154 0
M  V30 38 H 3.401564 5.228712 -2.423715 0
M  V30 39 H 4.701565 4.430001 -0.471528 0
M  V30 40 H 4.352668 3.459098 3.127497 0
M  V30 41 H 2.636990 3.236596 2.625162 0
M  V30 42 H 3.557538 1.905896 3.494117 0
M  V30 43 H -1.272683 0.371303 1.546632 0
M  V30 44 H -0.369338 -0.045007 0.065964 0
M  V30 45 H -4.929995 -2.278995 2.911061 0
M  V30 46 H -4.922679 -4.979811 1.337733 0
M  V30 47 H -4.802577 -6.495442 -0.518109 0
M  V30 48 H -3.107762 -6.164101 -2.329249 0
M  V30 49 H -1.509499 -4.245266 -2.230230 0
M  V30 END ATOM
M  V30 BEGIN BOND
M  V30 1 1 1 2
M  V30 2 1 2 3
M  V30 3 1 3 4
M  V30 4 1 4 5
M  V30 5 2 5 6
M  V30 6 1 5 7
M  V30 7 1 7 8
M  V30 8 2 8 9
M  V30 9 1 9 10
M  V30 10 2 10 11
M  V30 11 1 11 12
M  V30 12 2 12 13
M  V30 13 1 13 14
M  V30 14 1 14 15
M  V30 15 1 3 16
M  V30 16 1 16 17
M  V30 17 2 17 18
M  V30 18 1 18 19
M  V30 19 1 19 20
M  V30 20 2 19 21
M  V30 21 1 21 22
M  V30 22 2 22 23
M  V30 23 1 23 24
M  V30 24 2 24 25
M  V30 25 1 25 26
M  V30 26 2 26 27
M  V30 27 1 13 8
M  V30 28 1 27 17
M  V30 29 1 26 21
M  V30 30 1 1 28
M  V30 31 1 1 29
M  V30 32 1 1 30
M  V30 33 1 2 31
M  V30 34 1 2 32
M  V30 35 1 4 33
M  V30 36 1 4 34
M  V30 37 1 7 35
M  V30 38 1 9 36
M  V30 39 1 10 37
M  V30 40 1 11 38
M  V30 41 1 12 39
M  V30 42 1 15 40
M  V30 43 1 15 41
M  V30 44 1 15 42
M  V30 45 1 16 43
M  V30 46 1 16 44
M  V30 47 1 20 45
M  V30 48 1 22 46
M  V30 49 1 23 47
M  V30 50 1 24 48
M  V30 51 1 25 49
M  V30 END BOND
M  V30 END CTAB
M  END
>  <Dataset>  (737) 
ChEMBL_Kinases

>  <Ligand_Instance>  (737) 
nan

>  <PDB_ID>  (737) 
nan

>  <Standardized_SMILES>  (737) 
CCN(CC(=O)Nc1ccccc1SC)Cc1nc(O)c2ccccc2n1

>  <Name>  (737) 
nan

>  <Pocket>  (737) 
nan

>  <ATP_Site>  (737) 
nan

>  <Peripheral>  (737) 
nan

>  <Num_H_Atoms_ProtBoundConf>  (737) 
nan

>  <Num_Resolved_Atoms>  (737) 
nan

>  <Num_Not_Resolved_Atoms>  (737) 
nan

$$$$
CHEMBL1533452
     RDKit          3D

  0  0  0  0  0  0  0  0  0  0999 V3000
M  V30 BEGIN CTAB
M  V30 COUNTS 43 47 0 0 0
M  V30 BEGIN ATOM
M  V30 1 C -1.301631 -4.810135 5.150563 0
M  V30 2 C -1.133772 -3.623375 4.308976 0
M  V30 3 S -2.297579 -2.249453 4.235428 0
M  V30 4 C -1.370809 -1.317143 3.047308 0
M  V30 5 N -1.645758 -0.130262 2.500858 0
M  V30 6 C -0.809367 0.411286 1.614807 0
M  V30 7 C -1.104552 1.634162 1.062022 0
M  V30 8 C -2.248572 2.327147 1.393737 0
M  V30 9 C -2.522753 3.552681 0.825336 0
M  V30 10 C -1.619254 4.063119 -0.083500 0
M  V30 11 C -0.490426 3.336584 -0.384671 0
M  V30 12 C -0.178946 2.110345 0.159552 0
M  V30 13 C 0.953994 1.391574 -0.149513 0
M  V30 14 N 1.898217 1.916316 -1.077203 0
M  V30 15 C 3.119091 1.251941 -1.486450 0
M  V30 16 C 2.884121 -0.015368 -2.224110 0
M  V30 17 C 2.771406 -1.349534 -1.932772 0
M  V30 18 C 2.543512 -2.086693 -3.075149 0
M  V30 19 C 2.526507 -1.126781 -4.058389 0
M  V30 20 O 2.722504 0.041835 -3.548357 0
M  V30 21 N 1.144538 0.211786 0.445836 0
M  V30 22 N 0.284575 -0.313250 1.335314 0
M  V30 23 C 0.609957 -1.507420 1.853042 0
M  V30 24 O 1.675863 -2.068494 1.493058 0
M  V30 25 C -0.243150 -2.081349 2.769766 0
M  V30 26 C -0.127664 -3.279067 3.429829 0
M  V30 27 C 1.011559 -4.236789 3.259095 0
M  V30 28 H -0.337920 -4.964571 5.712056 0
M  V30 29 H -2.063709 -4.580896 5.916440 0
M  V30 30 H -1.475971 -5.742619 4.586010 0
M  V30 31 H -2.890405 1.825636 2.124304 0
M  V30 32 H -3.446232 4.012082 1.154260 0
M  V30 33 H -1.854182 5.019817 -0.513422 0
M  V30 34 H 0.155233 3.810048 -1.101034 0
M  V30 35 H 1.747889 2.838232 -1.522375 0
M  V30 36 H 3.762034 1.061019 -0.572854 0
M  V30 37 H 3.721677 1.948060 -2.091781 0
M  V30 38 H 2.870266 -1.654041 -0.909297 0
M  V30 39 H 2.417716 -3.155401 -3.120194 0
M  V30 40 H 2.367784 -1.333243 -5.126058 0
M  V30 41 H 1.887801 -3.984558 3.872345 0
M  V30 42 H 1.385224 -4.251067 2.191597 0
M  V30 43 H 0.676146 -5.281543 3.424386 0
M  V30 END ATOM
M  V30 BEGIN BOND
M  V30 1 1 1 2
M  V30 2 1 2 3
M  V30 3 1 3 4
M  V30 4 1 4 5
M  V30 5 2 5 6
M  V30 6 1 6 7
M  V30 7 2 7 8
M  V30 8 1 8 9
M  V30 9 2 9 10
M  V30 10 1 10 11
M  V30 11 2 11 12
M  V30 12 1 12 13
M  V30 13 1 13 14
M  V30 14 1 14 15
M  V30 15 1 15 16
M  V30 16 2 16 17
M  V30 17 1 17 18
M  V30 18 2 18 19
M  V30 19 1 19 20
M  V30 20 2 13 21
M  V30 21 1 21 22
M  V30 22 1 22 23
M  V30 23 2 23 24
M  V30 24 1 23 25
M  V30 25 1 25 26
M  V30 26 1 26 27
M  V30 27 2 26 2
M  V30 28 2 25 4
M  V30 29 1 22 6
M  V30 30 1 12 7
M  V30 31 1 20 16
M  V30 32 1 1 28
M  V30 33 1 1 29
M  V30 34 1 1 30
M  V30 35 1 8 31
M  V30 36 1 9 32
M  V30 37 1 10 33
M  V30 38 1 11 34
M  V30 39 1 14 35
M  V30 40 1 15 36
M  V30 41 1 15 37
M  V30 42 1 17 38
M  V30 43 1 18 39
M  V30 44 1 19 40
M  V30 45 1 27 41
M  V30 46 1 27 42
M  V30 47 1 27 43
M  V30 END BOND
M  V30 END CTAB
M  END
>  <Dataset>  (738) 
ChEMBL_Kinases

>  <Ligand_Instance>  (738) 
nan

>  <PDB_ID>  (738) 
nan

>  <Standardized_SMILES>  (738) 
Cc1sc2nc3c4ccccc4c(NCc4ccco4)nn3c(=O)c2c1C

>  <Name>  (738) 
nan

>  <Pocket>  (738) 
nan

>  <ATP_Site>  (738) 
nan

>  <Peripheral>  (738) 
nan

>  <Num_H_Atoms_ProtBoundConf>  (738) 
nan

>  <Num_Resolved_Atoms>  (738) 
nan

>  <Num_Not_Resolved_Atoms>  (738) 
nan

$$$$
CHEMBL1533572
     RDKit          3D

  0  0  0  0  0  0  0  0  0  0999 V3000
M  V30 BEGIN CTAB
M  V30 COUNTS 35 37 0 0 0
M  V30 BEGIN ATOM
M  V30 1 C -0.003647 -3.502838 2.945082 0
M  V30 2 N -0.152364 -2.978959 1.601387 0
M  V30 3 C -0.077765 -4.092275 0.652576 0
M  V30 4 C -0.341703 -1.595377 1.257887 0
M  V30 5 N 0.611993 -1.068784 0.463041 0
M  V30 6 C 0.558980 0.223903 0.061902 0
M  V30 7 C 1.556111 0.860503 -0.798120 0
M  V30 8 C 2.606304 0.065782 -1.210339 0
M  V30 9 C 3.613642 0.556720 -2.027896 0
M  V30 10 C 3.509394 1.886417 -2.408320 0
M  V30 11 C 2.464885 2.699338 -2.005913 0
M  V30 12 C 2.337812 4.075969 -2.387375 0
M  V30 13 N 2.246630 5.190580 -2.698819 0
M  V30 14 C 1.458584 2.184877 -1.181105 0
M  V30 15 N -0.483761 0.982100 0.481592 0
M  V30 16 C -1.453384 0.517969 1.265706 0
M  V30 17 C -2.528148 1.258490 1.712088 0
M  V30 18 C -3.490603 0.678605 2.530563 0
M  V30 19 C -3.412086 -0.641967 2.924589 0
M  V30 20 C -2.335486 -1.391507 2.480054 0
M  V30 21 C -1.393992 -0.799666 1.671122 0
M  V30 22 H -0.015529 -2.694454 3.709295 0
M  V30 23 H 0.977082 -4.053275 3.026420 0
M  V30 24 H -0.778257 -4.254681 3.198837 0
M  V30 25 H -0.886863 -4.809576 0.936170 0
M  V30 26 H -0.276863 -3.731033 -0.397325 0
M  V30 27 H 0.929236 -4.520264 0.735906 0
M  V30 28 H 2.685885 -0.972697 -0.912044 0
M  V30 29 H 4.459734 -0.014006 -2.383419 0
M  V30 30 H 4.246863 2.330171 -3.035263 0
M  V30 31 H 0.599607 2.720755 -0.805495 0
M  V30 32 H -2.586056 2.298333 1.399286 0
M  V30 33 H -4.334886 1.263422 2.880175 0
M  V30 34 H -4.143749 -1.121925 3.559983 0
M  V30 35 H -2.273436 -2.422103 2.787062 0
M  V30 END ATOM
M  V30 BEGIN BOND
M  V30 1 1 1 2
M  V30 2 1 2 3
M  V30 3 1 2 4
M  V30 4 2 4 5
M  V30 5 1 5 6
M  V30 6 1 6 7
M  V30 7 2 7 8
M  V30 8 1 8 9
M  V30 9 2 9 10
M  V30 10 1 10 11
M  V30 11 1 11 12
M  V30 12 3 12 13
M  V30 13 2 11 14
M  V30 14 2 6 15
M  V30 15 1 15 16
M  V30 16 2 16 17
M  V30 17 1 17 18
M  V30 18 2 18 19
M  V30 19 1 19 20
M  V30 20 2 20 21
M  V30 21 1 21 4
M  V30 22 1 14 7
M  V30 23 1 21 16
M  V30 24 1 1 22
M  V30 25 1 1 23
M  V30 26 1 1 24
M  V30 27 1 3 25
M  V30 28 1 3 26
M  V30 29 1 3 27
M  V30 30 1 8 28
M  V30 31 1 9 29
M  V30 32 1 10 30
M  V30 33 1 14 31
M  V30 34 1 17 32
M  V30 35 1 18 33
M  V30 36 1 19 34
M  V30 37 1 20 35
M  V30 END BOND
M  V30 END CTAB
M  END
>  <Dataset>  (739) 
ChEMBL_Kinases

>  <Ligand_Instance>  (739) 
nan

>  <PDB_ID>  (739) 
nan

>  <Standardized_SMILES>  (739) 
CN(C)c1nc(-c2cccc(C#N)c2)nc2ccccc12

>  <Name>  (739) 
nan

>  <Pocket>  (739) 
nan

>  <ATP_Site>  (739) 
nan

>  <Peripheral>  (739) 
nan

>  <Num_H_Atoms_ProtBoundConf>  (739) 
nan

>  <Num_Resolved_Atoms>  (739) 
nan

>  <Num_Not_Resolved_Atoms>  (739) 
nan

$$$$
CHEMBL1533728
     RDKit          3D

  0  0  0  0  0  0  0  0  0  0999 V3000
M  V30 BEGIN CTAB
M  V30 COUNTS 43 46 0 0 0
M  V30 BEGIN ATOM
M  V30 1 O 2.309193 -1.060662 1.295981 0
M  V30 2 C 1.442548 -1.099363 0.354060 0
M  V30 3 N 1.866117 -1.671881 -0.863059 0
M  V30 4 C 3.229818 -2.052839 -0.653252 0
M  V30 5 C 3.692171 -3.239219 -0.160601 0
M  V30 6 C 5.077911 -3.390476 -0.041054 0
M  V30 7 C 5.875002 -2.336511 -0.427708 0
M  V30 8 C 5.434277 -1.131424 -0.927234 0
M  V30 9 C 4.039658 -0.978264 -1.047271 0
M  V30 10 C 0.179163 -0.501745 0.829576 0
M  V30 11 C 0.184917 0.895543 0.938722 0
M  V30 12 N -1.037697 1.320635 1.381665 0
M  V30 13 C -1.384827 2.697452 1.612598 0
M  V30 14 C -1.639417 3.448951 0.479346 0
M  V30 15 C -1.978775 4.783697 0.513396 0
M  V30 16 C -2.065566 5.388886 1.749208 0
M  V30 17 C -1.815579 4.657608 2.902334 0
M  V30 18 C -1.473869 3.308865 2.847479 0
M  V30 19 N -1.782220 0.229711 1.543519 0
M  V30 20 C -1.088163 -0.874921 1.223239 0
M  V30 21 C -1.429036 -2.280139 1.234196 0
M  V30 22 C -2.104020 -2.704998 2.358786 0
M  V30 23 C -2.539801 -3.987458 2.621470 0
M  V30 24 C -2.266202 -4.943691 1.649029 0
M  V30 25 C -1.589649 -4.550566 0.507719 0
M  V30 26 C -1.180024 -3.251553 0.303025 0
M  V30 27 H 1.079165 -1.653402 -1.562058 0
M  V30 28 H 2.953947 -3.965378 0.097062 0
M  V30 29 H 5.442308 -4.325094 0.347606 0
M  V30 30 H 6.959830 -2.440648 -0.340667 0
M  V30 31 H 6.110083 -0.333415 -1.215792 0
M  V30 32 H 3.743432 -0.020581 -1.445459 0
M  V30 33 H 0.976346 1.627750 0.730800 0
M  V30 34 H -1.581382 3.011701 -0.527489 0
M  V30 35 H -2.173029 5.338201 -0.422906 0
M  V30 36 H -2.328331 6.443546 1.829829 0
M  V30 37 H -1.875475 5.120977 3.895789 0
M  V30 38 H -1.265020 2.681613 3.699863 0
M  V30 39 H -2.378293 -2.037033 3.190603 0
M  V30 40 H -3.066018 -4.307269 3.497337 0
M  V30 41 H -2.561132 -5.997321 1.739364 0
M  V30 42 H -1.359777 -5.281331 -0.275193 0
M  V30 43 H -0.657617 -2.917338 -0.575069 0
M  V30 END ATOM
M  V30 BEGIN BOND
M  V30 1 2 1 2
M  V30 2 1 2 3
M  V30 3 1 3 4
M  V30 4 2 4 5
M  V30 5 1 5 6
M  V30 6 2 6 7
M  V30 7 1 7 8
M  V30 8 2 8 9
M  V30 9 1 2 10
M  V30 10 2 10 11
M  V30 11 1 11 12
M  V30 12 1 12 13
M  V30 13 2 13 14
M  V30 14 1 14 15
M  V30 15 2 15 16
M  V30 16 1 16 17
M  V30 17 2 17 18
M  V30 18 1 12 19
M  V30 19 2 19 20
M  V30 20 1 20 21
M  V30 21 2 21 22
M  V30 22 1 22 23
M  V30 23 2 23 24
M  V30 24 1 24 25
M  V30 25 2 25 26
M  V30 26 1 9 4
M  V30 27 1 20 10
M  V30 28 1 26 21
M  V30 29 1 18 13
M  V30 30 1 3 27
M  V30 31 1 5 28
M  V30 32 1 6 29
M  V30 33 1 7 30
M  V30 34 1 8 31
M  V30 35 1 9 32
M  V30 36 1 11 33
M  V30 37 1 14 34
M  V30 38 1 15 35
M  V30 39 1 16 36
M  V30 40 1 17 37
M  V30 41 1 18 38
M  V30 42 1 22 39
M  V30 43 1 23 40
M  V30 44 1 24 41
M  V30 45 1 25 42
M  V30 46 1 26 43
M  V30 END BOND
M  V30 END CTAB
M  END
>  <Dataset>  (740) 
ChEMBL_Kinases

>  <Ligand_Instance>  (740) 
nan

>  <PDB_ID>  (740) 
nan

>  <Standardized_SMILES>  (740) 
O=C(Nc1ccccc1)c1cn(-c2ccccc2)nc1-c1ccccc1

>  <Name>  (740) 
nan

>  <Pocket>  (740) 
nan

>  <ATP_Site>  (740) 
nan

>  <Peripheral>  (740) 
nan

>  <Num_H_Atoms_ProtBoundConf>  (740) 
nan

>  <Num_Resolved_Atoms>  (740) 
nan

>  <Num_Not_Resolved_Atoms>  (740) 
nan

$$$$
CHEMBL1533770
     RDKit          3D

  0  0  0  0  0  0  0  0  0  0999 V3000
M  V30 BEGIN CTAB
M  V30 COUNTS 51 56 0 0 0
M  V30 BEGIN ATOM
M  V30 1 C -2.048747 -3.235936 6.012015 0
M  V30 2 C -0.854532 -2.882628 5.216245 0
M  V30 3 C 0.430579 -3.127083 5.666457 0
M  V30 4 C 1.596499 -2.826312 4.981924 0
M  V30 5 C 1.422513 -2.228317 3.739411 0
M  V30 6 C 0.157529 -1.968153 3.255387 0
M  V30 7 N 0.135194 -1.352463 1.968708 0
M  V30 8 C 0.735068 -0.190123 1.582724 0
M  V30 9 N 1.499983 0.546452 2.562482 0
M  V30 10 C 0.468233 0.068088 0.223875 0
M  V30 11 C 0.981169 1.230306 -0.438669 0
M  V30 12 N 1.751189 2.145696 0.204040 0
M  V30 13 C 2.133072 3.148869 -0.561499 0
M  V30 14 C 2.905081 4.263957 -0.306750 0
M  V30 15 C 3.101959 5.123143 -1.376657 0
M  V30 16 C 2.563892 4.898997 -2.646082 0
M  V30 17 C 1.789069 3.750673 -2.844171 0
M  V30 18 C 1.576702 2.870566 -1.782239 0
M  V30 19 N 0.880321 1.696782 -1.680496 0
M  V30 20 C 0.165959 1.084671 -2.744805 0
M  V30 21 C -0.304076 -0.994306 -0.136149 0
M  V30 22 N -0.856051 -1.297730 -1.293572 0
M  V30 23 C -1.586476 -2.415355 -1.411360 0
M  V30 24 C -2.154243 -2.707205 -2.641894 0
M  V30 25 C -2.926175 -3.836229 -2.869280 0
M  V30 26 C -3.140773 -4.719012 -1.809287 0
M  V30 27 C -2.576611 -4.431934 -0.580802 0
M  V30 28 C -1.810988 -3.300252 -0.378736 0
M  V30 29 N -1.247656 -2.990062 0.801478 0
M  V30 30 C -0.516395 -1.868116 0.913398 0
M  V30 31 C -0.972634 -2.287174 3.976390 0
M  V30 32 H -2.775957 -3.826111 5.384541 0
M  V30 33 H -1.746117 -3.926178 6.837844 0
M  V30 34 H -2.585470 -2.375308 6.435894 0
M  V30 35 H 0.555549 -3.600771 6.651304 0
M  V30 36 H 2.553453 -3.062705 5.430886 0
M  V30 37 H 2.343457 -1.994399 3.206350 0
M  V30 38 H 0.836986 1.177252 3.097590 0
M  V30 39 H 2.485526 0.612197 2.861460 0
M  V30 40 H 3.318424 4.436880 0.666971 0
M  V30 41 H 3.706842 6.009743 -1.202543 0
M  V30 42 H 2.730027 5.580229 -3.462438 0
M  V30 43 H 1.346678 3.524417 -3.805008 0
M  V30 44 H 0.289600 1.752717 -3.661192 0
M  V30 45 H -0.943748 1.086488 -2.647638 0
M  V30 46 H 0.594859 0.134285 -3.129322 0
M  V30 47 H -1.997142 -2.033337 -3.472406 0
M  V30 48 H -3.361481 -4.042215 -3.847820 0
M  V30 49 H -3.741644 -5.587210 -2.007280 0
M  V30 50 H -2.734887 -5.107412 0.249127 0
M  V30 51 H -1.925907 -2.055081 3.536251 0
M  V30 END ATOM
M  V30 BEGIN BOND
M  V30 1 1 1 2
M  V30 2 2 2 3
M  V30 3 1 3 4
M  V30 4 2 4 5
M  V30 5 1 5 6
M  V30 6 1 6 7
M  V30 7 1 7 8
M  V30 8 1 8 9
M  V30 9 2 8 10
M  V30 10 1 10 11
M  V30 11 2 11 12
M  V30 12 1 12 13
M  V30 13 2 13 14
M  V30 14 1 14 15
M  V30 15 2 15 16
M  V30 16 1 16 17
M  V30 17 2 17 18
M  V30 18 1 18 19
M  V30 19 1 19 20
M  V30 20 1 10 21
M  V30 21 2 21 22
M  V30 22 1 22 23
M  V30 23 2 23 24
M  V30 24 1 24 25
M  V30 25 2 25 26
M  V30 26 1 26 27
M  V30 27 2 27 28
M  V30 28 1 28 29
M  V30 29 2 29 30
M  V30 30 2 6 31
M  V30 31 1 31 2
M  V30 32 1 30 7
M  V30 33 1 19 11
M  V30 34 1 30 21
M  V30 35 1 18 13
M  V30 36 1 28 23
M  V30 37 1 1 32
M  V30 38 1 1 33
M  V30 39 1 1 34
M  V30 40 1 3 35
M  V30 41 1 4 36
M  V30 42 1 5 37
M  V30 43 1 9 38
M  V30 44 1 9 39
M  V30 45 1 14 40
M  V30 46 1 15 41
M  V30 47 1 16 42
M  V30 48 1 17 43
M  V30 49 1 20 44
M  V30 50 1 20 45
M  V30 51 1 20 46
M  V30 52 1 24 47
M  V30 53 1 25 48
M  V30 54 1 26 49
M  V30 55 1 27 50
M  V30 56 1 31 51
M  V30 END BOND
M  V30 END CTAB
M  END
>  <Dataset>  (741) 
ChEMBL_Kinases

>  <Ligand_Instance>  (741) 
nan

>  <PDB_ID>  (741) 
nan

>  <Standardized_SMILES>  (741) 
Cc1cccc(-n2c(N)c(-c3nc4ccccc4n3C)c3nc4ccccc4nc32)c1

>  <Name>  (741) 
nan

>  <Pocket>  (741) 
nan

>  <ATP_Site>  (741) 
nan

>  <Peripheral>  (741) 
nan

>  <Num_H_Atoms_ProtBoundConf>  (741) 
nan

>  <Num_Resolved_Atoms>  (741) 
nan

>  <Num_Not_Resolved_Atoms>  (741) 
nan

$$$$
CHEMBL1533853
     RDKit          3D

  0  0  0  0  0  0  0  0  0  0999 V3000
M  V30 BEGIN CTAB
M  V30 COUNTS 40 42 0 0 0
M  V30 BEGIN ATOM
M  V30 1 C 1.284807 -4.974771 -0.109604 0
M  V30 2 N 1.910613 -3.915333 0.688180 0
M  V30 3 C 2.802627 -4.202933 1.788075 0
M  V30 4 C 1.633305 -2.557057 0.372605 0
M  V30 5 C 2.193208 -1.523236 1.098805 0
M  V30 6 C 1.928569 -0.206747 0.793846 0
M  V30 7 C 1.097679 0.156296 -0.242763 0
M  V30 8 C 0.747012 1.499742 -0.638342 0
M  V30 9 C 0.831835 1.838078 -1.981081 0
M  V30 10 N 0.514062 3.086909 -2.380315 0
M  V30 11 C 0.114590 4.041153 -1.553704 0
M  V30 12 N 0.015425 3.759541 -0.225716 0
M  V30 13 C 0.323270 2.524181 0.215363 0
M  V30 14 N 0.242261 2.135462 1.592244 0
M  V30 15 C -0.995163 1.504940 1.988955 0
M  V30 16 C -1.213726 1.061534 3.277578 0
M  V30 17 C -2.377175 0.450804 3.693228 0
M  V30 18 C -3.396913 0.266435 2.767856 0
M  V30 19 F -4.570513 -0.332041 3.113158 0
M  V30 20 C -3.190103 0.701765 1.493429 0
M  V30 21 C -2.029598 1.306624 1.092746 0
M  V30 22 C 0.508448 -0.864757 -1.004781 0
M  V30 23 C 0.800499 -2.191762 -0.666281 0
M  V30 24 H 0.198083 -5.038172 0.094691 0
M  V30 25 H 1.810970 -5.929948 0.011887 0
M  V30 26 H 1.383446 -4.680113 -1.183703 0
M  V30 27 H 2.886752 -5.316263 1.865539 0
M  V30 28 H 3.816173 -3.797273 1.611720 0
M  V30 29 H 2.323730 -3.859142 2.710747 0
M  V30 30 H 2.850975 -1.781436 1.918574 0
M  V30 31 H 2.372360 0.598682 1.364998 0
M  V30 32 H 1.147539 1.132416 -2.763298 0
M  V30 33 H -0.142419 5.044001 -1.873943 0
M  V30 34 H 0.958156 2.249610 2.346422 0
M  V30 35 H -0.407348 1.209531 3.996666 0
M  V30 36 H -2.501428 0.113604 4.734322 0
M  V30 37 H -3.970410 0.578286 0.730901 0
M  V30 38 H -1.876554 1.651022 0.069683 0
M  V30 39 H -0.147974 -0.644062 -1.824956 0
M  V30 40 H 0.326410 -2.944019 -1.277900 0
M  V30 END ATOM
M  V30 BEGIN BOND
M  V30 1 1 1 2
M  V30 2 1 2 3
M  V30 3 1 2 4
M  V30 4 2 4 5
M  V30 5 1 5 6
M  V30 6 2 6 7
M  V30 7 1 7 8
M  V30 8 2 8 9
M  V30 9 1 9 10
M  V30 10 2 10 11
M  V30 11 1 11 12
M  V30 12 2 12 13
M  V30 13 1 13 14
M  V30 14 1 14 15
M  V30 15 2 15 16
M  V30 16 1 16 17
M  V30 17 2 17 18
M  V30 18 1 18 19
M  V30 19 1 18 20
M  V30 20 2 20 21
M  V30 21 1 7 22
M  V30 22 2 22 23
M  V30 23 1 23 4
M  V30 24 1 13 8
M  V30 25 1 21 15
M  V30 26 1 1 24
M  V30 27 1 1 25
M  V30 28 1 1 26
M  V30 29 1 3 27
M  V30 30 1 3 28
M  V30 31 1 3 29
M  V30 32 1 5 30
M  V30 33 1 6 31
M  V30 34 1 9 32
M  V30 35 1 11 33
M  V30 36 1 14 34
M  V30 37 1 16 35
M  V30 38 1 17 36
M  V30 39 1 20 37
M  V30 40 1 21 38
M  V30 41 1 22 39
M  V30 42 1 23 40
M  V30 END BOND
M  V30 END CTAB
M  END
>  <Dataset>  (742) 
ChEMBL_Kinases

>  <Ligand_Instance>  (742) 
nan

>  <PDB_ID>  (742) 
nan

>  <Standardized_SMILES>  (742) 
CN(C)c1ccc(-c2cncnc2Nc2ccc(F)cc2)cc1

>  <Name>  (742) 
nan

>  <Pocket>  (742) 
nan

>  <ATP_Site>  (742) 
nan

>  <Peripheral>  (742) 
nan

>  <Num_H_Atoms_ProtBoundConf>  (742) 
nan

>  <Num_Resolved_Atoms>  (742) 
nan

>  <Num_Not_Resolved_Atoms>  (742) 
nan

$$$$
CHEMBL1533998
     RDKit          3D

  0  0  0  0  0  0  0  0  0  0999 V3000
M  V30 BEGIN CTAB
M  V30 COUNTS 43 45 0 0 0
M  V30 BEGIN ATOM
M  V30 1 C -2.330513 -4.893425 1.722159 0
M  V30 2 C -1.094222 -4.286946 1.161318 0
M  V30 3 C 0.112652 -4.944929 1.212824 0
M  V30 4 C 1.198765 -4.302067 0.667358 0
M  V30 5 C 1.153472 -3.050728 0.077617 0
M  V30 6 C -0.076334 -2.426298 0.047205 0
M  V30 7 N -0.222781 -1.160115 -0.527519 0
M  V30 8 C -0.845814 -1.059998 -1.700221 0
M  V30 9 O -1.422380 -1.999872 -2.536982 0
M  V30 10 N -0.878765 0.235660 -2.072783 0
M  V30 11 C -0.267178 0.938227 -1.114368 0
M  V30 12 C 0.028277 2.265787 -0.889177 0
M  V30 13 C -0.403467 3.209256 -1.912166 0
M  V30 14 N -0.224866 4.600383 -1.917945 0
M  V30 15 O -1.009842 2.770128 -2.924100 0
M  V30 16 N 0.677421 2.660602 0.212544 0
M  V30 17 C 1.076136 1.764261 1.163318 0
M  V30 18 C 1.781619 2.271313 2.341925 0
M  V30 19 C 2.177618 1.213826 3.326411 0
M  V30 20 C 0.983194 0.479614 3.847733 0
M  V30 21 C 3.269346 0.310630 2.806343 0
M  V30 22 N 0.812160 0.436805 0.996135 0
M  V30 23 C 0.162678 0.061834 -0.110980 0
M  V30 24 C -1.202212 -3.043405 0.589016 0
M  V30 25 H -2.630423 -4.242607 2.581079 0
M  V30 26 H -3.127507 -4.999952 0.959282 0
M  V30 27 H -2.072775 -5.905512 2.125481 0
M  V30 28 H 0.203994 -5.926520 1.663242 0
M  V30 29 H 2.157112 -4.831852 0.711759 0
M  V30 30 H 2.054922 -2.610569 -0.330363 0
M  V30 31 H -0.785947 -2.432665 -3.223010 0
M  V30 32 H -0.808554 5.371510 -1.506767 0
M  V30 33 H 0.627479 4.988280 -2.406695 0
M  V30 34 H 1.070093 2.942268 2.883512 0
M  V30 35 H 2.651361 2.928954 2.112970 0
M  V30 36 H 2.610998 1.762865 4.200296 0
M  V30 37 H 0.771664 0.675838 4.922559 0
M  V30 38 H 1.091572 -0.628927 3.782780 0
M  V30 39 H 0.061454 0.807458 3.308303 0
M  V30 40 H 3.611464 0.645518 1.804444 0
M  V30 41 H 2.981000 -0.773860 2.828415 0
M  V30 42 H 4.195571 0.340434 3.452041 0
M  V30 43 H -2.143478 -2.540585 0.553799 0
M  V30 END ATOM
M  V30 BEGIN BOND
M  V30 1 1 1 2
M  V30 2 2 2 3
M  V30 3 1 3 4
M  V30 4 2 4 5
M  V30 5 1 5 6
M  V30 6 1 6 7
M  V30 7 1 7 8
M  V30 8 1 8 9
M  V30 9 2 8 10
M  V30 10 1 10 11
M  V30 11 2 11 12
M  V30 12 1 12 13
M  V30 13 1 13 14
M  V30 14 2 13 15
M  V30 15 1 12 16
M  V30 16 2 16 17
M  V30 17 1 17 18
M  V30 18 1 18 19
M  V30 19 1 19 20
M  V30 20 1 19 21
M  V30 21 1 17 22
M  V30 22 2 22 23
M  V30 23 2 6 24
M  V30 24 1 24 2
M  V30 25 1 23 7
M  V30 26 1 23 11
M  V30 27 1 1 25
M  V30 28 1 1 26
M  V30 29 1 1 27
M  V30 30 1 3 28
M  V30 31 1 4 29
M  V30 32 1 5 30
M  V30 33 1 9 31
M  V30 34 1 14 32
M  V30 35 1 14 33
M  V30 36 1 18 34
M  V30 37 1 18 35
M  V30 38 1 19 36
M  V30 39 1 20 37
M  V30 40 1 20 38
M  V30 41 1 20 39
M  V30 42 1 21 40
M  V30 43 1 21 41
M  V30 44 1 21 42
M  V30 45 1 24 43
M  V30 END BOND
M  V30 END CTAB
M  END
>  <Dataset>  (743) 
ChEMBL_Kinases

>  <Ligand_Instance>  (743) 
nan

>  <PDB_ID>  (743) 
nan

>  <Standardized_SMILES>  (743) 
Cc1cccc(-n2c(O)nc3c(C(N)=O)nc(CC(C)C)nc32)c1

>  <Name>  (743) 
nan

>  <Pocket>  (743) 
nan

>  <ATP_Site>  (743) 
nan

>  <Peripheral>  (743) 
nan

>  <Num_H_Atoms_ProtBoundConf>  (743) 
nan

>  <Num_Resolved_Atoms>  (743) 
nan

>  <Num_Not_Resolved_Atoms>  (743) 
nan

$$$$
CHEMBL1534019
     RDKit          3D

  0  0  0  0  0  0  0  0  0  0999 V3000
M  V30 BEGIN CTAB
M  V30 COUNTS 42 44 0 0 0
M  V30 BEGIN ATOM
M  V30 1 C 0.934179 -6.920768 1.874966 0
M  V30 2 O 2.116723 -6.400747 1.284782 0
M  V30 3 C 2.122085 -5.198040 0.593179 0
M  V30 4 C 0.956063 -4.470819 0.463441 0
M  V30 5 C 0.950177 -3.286464 -0.214853 0
M  V30 6 C 2.125855 -2.791143 -0.789159 0
M  V30 7 C 2.223672 -1.525461 -1.539700 0
M  V30 8 O 3.258295 -1.066199 -2.058508 0
M  V30 9 O 1.051536 -0.832862 -1.648055 0
M  V30 10 C 0.828623 0.383640 -2.291233 0
M  V30 11 C 1.670821 1.507579 -1.705997 0
M  V30 12 N 1.398756 1.720878 -0.324256 0
M  V30 13 C 0.173566 2.093073 0.277713 0
M  V30 14 O -0.740286 2.237581 -0.578479 0
M  V30 15 C -0.096818 2.305513 1.688236 0
M  V30 16 C 0.705891 2.215147 2.802356 0
M  V30 17 Cl 2.394536 1.787150 2.813146 0
M  V30 18 N 0.021940 2.503286 3.924129 0
M  V30 19 C -1.244896 2.781800 3.498840 0
M  V30 20 C -2.307915 3.133718 4.301451 0
M  V30 21 C -3.523642 3.381853 3.705502 0
M  V30 22 C -3.633569 3.270300 2.337332 0
M  V30 23 C -2.509415 2.911945 1.623942 0
M  V30 24 N -1.302123 2.660245 2.163907 0
M  V30 25 C 3.259548 -3.570108 -0.621747 0
M  V30 26 C 3.319678 -4.773619 0.054160 0
M  V30 27 H 0.505025 -6.271336 2.650914 0
M  V30 28 H 1.185262 -7.914418 2.305180 0
M  V30 29 H 0.145604 -7.096654 1.098011 0
M  V30 30 H 0.016919 -4.787312 0.876761 0
M  V30 31 H 0.071967 -2.667349 -0.353544 0
M  V30 32 H 0.973892 0.319585 -3.398036 0
M  V30 33 H -0.232187 0.662163 -2.163869 0
M  V30 34 H 1.516734 2.439668 -2.300780 0
M  V30 35 H 2.722929 1.199373 -1.849601 0
M  V30 36 H 2.211620 1.586078 0.345482 0
M  V30 37 H -2.218920 3.219502 5.364671 0
M  V30 38 H -4.368679 3.659095 4.318855 0
M  V30 39 H -4.588253 3.464997 1.867784 0
M  V30 40 H -2.668103 2.844470 0.566645 0
M  V30 41 H 4.182498 -3.195124 -1.064644 0
M  V30 42 H 4.255304 -5.312764 0.132790 0
M  V30 END ATOM
M  V30 BEGIN BOND
M  V30 1 1 1 2
M  V30 2 1 2 3
M  V30 3 2 3 4
M  V30 4 1 4 5
M  V30 5 2 5 6
M  V30 6 1 6 7
M  V30 7 2 7 8
M  V30 8 1 7 9
M  V30 9 1 9 10
M  V30 10 1 10 11
M  V30 11 1 11 12
M  V30 12 1 12 13
M  V30 13 2 13 14
M  V30 14 1 13 15
M  V30 15 2 15 16
M  V30 16 1 16 17
M  V30 17 1 16 18
M  V30 18 2 18 19
M  V30 19 1 19 20
M  V30 20 2 20 21
M  V30 21 1 21 22
M  V30 22 2 22 23
M  V30 23 1 23 24
M  V30 24 1 6 25
M  V30 25 2 25 26
M  V30 26 1 26 3
M  V30 27 1 24 15
M  V30 28 1 24 19
M  V30 29 1 1 27
M  V30 30 1 1 28
M  V30 31 1 1 29
M  V30 32 1 4 30
M  V30 33 1 5 31
M  V30 34 1 10 32
M  V30 35 1 10 33
M  V30 36 1 11 34
M  V30 37 1 11 35
M  V30 38 1 12 36
M  V30 39 1 20 37
M  V30 40 1 21 38
M  V30 41 1 22 39
M  V30 42 1 23 40
M  V30 43 1 25 41
M  V30 44 1 26 42
M  V30 END BOND
M  V30 END CTAB
M  END
>  <Dataset>  (744) 
ChEMBL_Kinases

>  <Ligand_Instance>  (744) 
nan

>  <PDB_ID>  (744) 
nan

>  <Standardized_SMILES>  (744) 
COc1ccc(C(=O)OCCNC(=O)c2c(Cl)nc3ccccn23)cc1

>  <Name>  (744) 
nan

>  <Pocket>  (744) 
nan

>  <ATP_Site>  (744) 
nan

>  <Peripheral>  (744) 
nan

>  <Num_H_Atoms_ProtBoundConf>  (744) 
nan

>  <Num_Resolved_Atoms>  (744) 
nan

>  <Num_Not_Resolved_Atoms>  (744) 
nan

$$$$
CHEMBL1536048
     RDKit          3D

  0  0  0  0  0  0  0  0  0  0999 V3000
M  V30 BEGIN CTAB
M  V30 COUNTS 32 34 0 0 0
M  V30 BEGIN ATOM
M  V30 1 O -1.127536 -1.827124 1.501605 0
M  V30 2 C -1.043329 -2.945931 0.875514 0
M  V30 3 C -0.661281 -4.046014 1.767788 0
M  V30 4 C 0.807829 -4.073354 2.012417 0
M  V30 5 C 1.647495 -3.060541 2.363890 0
M  V30 6 C 2.961788 -3.336530 2.551015 0
M  V30 7 C 3.378422 -4.706389 2.361855 0
M  V30 8 S 1.750816 -5.544215 1.898811 0
M  V30 9 N -1.337113 -2.824635 -0.488125 0
M  V30 10 C -1.691703 -1.417881 -0.848779 0
M  V30 11 N -1.127529 -0.482397 -0.542242 0
M  V30 12 C -1.364405 0.783741 -0.812483 0
M  V30 13 C -0.599236 1.908512 -0.323142 0
M  V30 14 C 0.466274 1.741206 0.532162 0
M  V30 15 C 1.329954 2.633057 1.101780 0
M  V30 16 C 1.041975 3.941513 0.719889 0
M  V30 17 C -0.013236 4.256885 -0.144404 0
M  V30 18 C -0.822291 3.245269 -0.657653 0
M  V30 19 C -2.520866 0.994187 -1.626750 0
M  V30 20 S -3.121272 -0.788360 -1.884818 0
M  V30 21 H -1.098628 -3.856073 2.813550 0
M  V30 22 H -1.020159 -5.046384 1.490669 0
M  V30 23 H 1.256051 -2.059332 2.490508 0
M  V30 24 H 3.734116 -2.608194 2.838112 0
M  V30 25 H 4.464475 -5.031935 2.503356 0
M  V30 26 H -1.247262 -3.702886 -1.015661 0
M  V30 27 H 0.664953 0.692221 0.812149 0
M  V30 28 H 2.146866 2.390434 1.759232 0
M  V30 29 H 1.654565 4.771132 1.097414 0
M  V30 30 H -0.234803 5.289535 -0.440315 0
M  V30 31 H -1.671208 3.412317 -1.335913 0
M  V30 32 H -2.905835 1.953867 -1.964058 0
M  V30 END ATOM
M  V30 BEGIN BOND
M  V30 1 2 1 2
M  V30 2 1 2 3
M  V30 3 1 3 4
M  V30 4 2 4 5
M  V30 5 1 5 6
M  V30 6 2 6 7
M  V30 7 1 7 8
M  V30 8 1 2 9
M  V30 9 1 9 10
M  V30 10 2 10 11
M  V30 11 1 11 12
M  V30 12 1 12 13
M  V30 13 2 13 14
M  V30 14 1 14 15
M  V30 15 2 15 16
M  V30 16 1 16 17
M  V30 17 2 17 18
M  V30 18 2 12 19
M  V30 19 1 19 20
M  V30 20 1 8 4
M  V30 21 1 20 10
M  V30 22 1 18 13
M  V30 23 1 3 21
M  V30 24 1 3 22
M  V30 25 1 5 23
M  V30 26 1 6 24
M  V30 27 1 7 25
M  V30 28 1 9 26
M  V30 29 1 14 27
M  V30 30 1 15 28
M  V30 31 1 16 29
M  V30 32 1 17 30
M  V30 33 1 18 31
M  V30 34 1 19 32
M  V30 END BOND
M  V30 END CTAB
M  END
>  <Dataset>  (745) 
ChEMBL_Kinases

>  <Ligand_Instance>  (745) 
nan

>  <PDB_ID>  (745) 
nan

>  <Standardized_SMILES>  (745) 
O=C(Cc1cccs1)Nc1nc(-c2ccccc2)cs1

>  <Name>  (745) 
nan

>  <Pocket>  (745) 
nan

>  <ATP_Site>  (745) 
nan

>  <Peripheral>  (745) 
nan

>  <Num_H_Atoms_ProtBoundConf>  (745) 
nan

>  <Num_Resolved_Atoms>  (745) 
nan

>  <Num_Not_Resolved_Atoms>  (745) 
nan

$$$$
CHEMBL1534536
     RDKit          3D

  0  0  0  0  0  0  0  0  0  0999 V3000
M  V30 BEGIN CTAB
M  V30 COUNTS 63 67 0 0 0
M  V30 BEGIN ATOM
M  V30 1 C 3.041496 0.446515 7.795826 0
M  V30 2 O 2.938424 1.555184 6.928203 0
M  V30 3 C 3.013542 1.380968 5.554942 0
M  V30 4 C 3.186501 0.176204 4.917155 0
M  V30 5 C 3.255344 0.058455 3.525808 0
M  V30 6 C 3.146713 1.201162 2.731345 0
M  V30 7 N 3.212032 1.053243 1.312318 0
M  V30 8 C 3.462759 2.162855 0.415891 0
M  V30 9 C 2.482974 2.233577 -0.726005 0
M  V30 10 N 1.492479 1.196210 -0.538683 0
M  V30 11 C 0.156442 1.639322 -0.398128 0
M  V30 12 O 0.191695 2.882418 -0.481732 0
M  V30 13 C -1.156431 1.052824 -0.195105 0
M  V30 14 C -1.884639 1.579309 0.856032 0
M  V30 15 C -3.150014 1.076120 1.116994 0
M  V30 16 C -3.627657 0.060350 0.303261 0
M  V30 17 C -2.945418 -0.498237 -0.754274 0
M  V30 18 N -3.492681 -1.531991 -1.542296 0
M  V30 19 C -4.780137 -2.117528 -1.378245 0
M  V30 20 O -5.824839 -1.558824 -0.922332 0
M  V30 21 C -4.631757 -3.540850 -1.861696 0
M  V30 22 C -3.794284 -4.246050 -0.825464 0
M  V30 23 C -2.425921 -4.571473 -1.282882 0
M  V30 24 C -1.985862 -4.704193 -2.549729 0
M  V30 25 C -3.051669 -4.484807 -3.565385 0
M  V30 26 C -2.421888 -4.167335 -4.898243 0
M  V30 27 C -3.848707 -3.284921 -3.134789 0
M  V30 28 C -2.912259 -2.215744 -2.645233 0
M  V30 29 O -1.790071 -1.999238 -3.171675 0
M  V30 30 C -1.700561 0.056878 -0.943505 0
M  V30 31 C 2.118568 -0.094648 -0.541251 0
M  V30 32 C 3.024498 -0.219058 0.650439 0
M  V30 33 C 2.975144 2.389480 3.389665 0
M  V30 34 C 2.903380 2.532315 4.766889 0
M  V30 35 H 2.632181 0.750653 8.798469 0
M  V30 36 H 2.474694 -0.413116 7.412722 0
M  V30 37 H 4.130601 0.232021 7.913505 0
M  V30 38 H 3.269877 -0.697407 5.565915 0
M  V30 39 H 3.396632 -0.954780 3.190009 0
M  V30 40 H 3.459902 3.150752 0.934118 0
M  V30 41 H 4.484853 2.011746 -0.018497 0
M  V30 42 H 2.045389 3.246951 -0.820538 0
M  V30 43 H 2.999791 1.993865 -1.699291 0
M  V30 44 H -1.510536 2.368826 1.487173 0
M  V30 45 H -3.704524 1.489971 1.932534 0
M  V30 46 H -4.615348 -0.266766 0.580896 0
M  V30 47 H -5.587244 -4.043621 -2.005834 0
M  V30 48 H -3.739030 -3.689075 0.120395 0
M  V30 49 H -4.282896 -5.222311 -0.579317 0
M  V30 50 H -1.664276 -4.728460 -0.503119 0
M  V30 51 H -0.947122 -4.945773 -2.733613 0
M  V30 52 H -3.719284 -5.349268 -3.691572 0
M  V30 53 H -2.794829 -4.847984 -5.719278 0
M  V30 54 H -1.312374 -4.204063 -4.877501 0
M  V30 55 H -2.670203 -3.151469 -5.257999 0
M  V30 56 H -4.521905 -2.940347 -3.917064 0
M  V30 57 H -1.073930 -0.304815 -1.745981 0
M  V30 58 H 1.366012 -0.925157 -0.576391 0
M  V30 59 H 2.756063 -0.173744 -1.460667 0
M  V30 60 H 2.627168 -0.977468 1.369422 0
M  V30 61 H 4.016560 -0.620103 0.346548 0
M  V30 62 H 2.883333 3.293606 2.840413 0
M  V30 63 H 2.767784 3.486276 5.226720 0
M  V30 END ATOM
M  V30 BEGIN BOND
M  V30 1 1 1 2
M  V30 2 1 2 3
M  V30 3 2 3 4
M  V30 4 1 4 5
M  V30 5 2 5 6
M  V30 6 1 6 7
M  V30 7 1 7 8
M  V30 8 1 8 9
M  V30 9 1 9 10
M  V30 10 1 10 11
M  V30 11 2 11 12
M  V30 12 1 11 13
M  V30 13 2 13 14
M  V30 14 1 14 15
M  V30 15 2 15 16
M  V30 16 1 16 17
M  V30 17 1 17 18
M  V30 18 1 18 19
M  V30 19 2 19 20
M  V30 20 1 19 21
M  V30 21 1 21 22
M  V30 22 1 22 23
M  V30 23 2 23 24
M  V30 24 1 24 25
M  V30 25 1 25 26
M  V30 26 1 25 27
M  V30 27 1 27 28
M  V30 28 2 28 29
M  V30 29 2 17 30
M  V30 30 1 10 31
M  V30 31 1 31 32
M  V30 32 1 6 33
M  V30 33 2 33 34
M  V30 34 1 34 3
M  V30 35 1 32 7
M  V30 36 1 30 13
M  V30 37 1 28 18
M  V30 38 1 27 21
M  V30 39 1 1 35
M  V30 40 1 1 36
M  V30 41 1 1 37
M  V30 42 1 4 38
M  V30 43 1 5 39
M  V30 44 1 8 40
M  V30 45 1 8 41
M  V30 46 1 9 42
M  V30 47 1 9 43
M  V30 48 1 14 44
M  V30 49 1 15 45
M  V30 50 1 16 46
M  V30 51 1 21 47
M  V30 52 1 22 48
M  V30 53 1 22 49
M  V30 54 1 23 50
M  V30 55 1 24 51
M  V30 56 1 25 52
M  V30 57 1 26 53
M  V30 58 1 26 54
M  V30 59 1 26 55
M  V30 60 1 27 56
M  V30 61 1 30 57
M  V30 62 1 31 58
M  V30 63 1 31 59
M  V30 64 1 32 60
M  V30 65 1 32 61
M  V30 66 1 33 62
M  V30 67 1 34 63
M  V30 END BOND
M  V30 END CTAB
M  END
>  <Dataset>  (746) 
ChEMBL_Kinases

>  <Ligand_Instance>  (746) 
nan

>  <PDB_ID>  (746) 
nan

>  <Standardized_SMILES>  (746) 
COc1ccc(N2CCN(C(=O)c3cccc(N4C(=O)C5CC=CC(C)C5C4=O)c3)CC2)cc1

>  <Name>  (746) 
nan

>  <Pocket>  (746) 
nan

>  <ATP_Site>  (746) 
nan

>  <Peripheral>  (746) 
nan

>  <Num_H_Atoms_ProtBoundConf>  (746) 
nan

>  <Num_Resolved_Atoms>  (746) 
nan

>  <Num_Not_Resolved_Atoms>  (746) 
nan

$$$$
CHEMBL1534591
     RDKit          3D

  0  0  0  0  0  0  0  0  0  0999 V3000
M  V30 BEGIN CTAB
M  V30 COUNTS 47 49 0 0 0
M  V30 BEGIN ATOM
M  V30 1 C 5.228649 -2.400102 -1.729519 0
M  V30 2 O 4.580371 -1.160565 -1.486015 0
M  V30 3 C 3.567728 -0.780922 -2.358516 0
M  V30 4 C 3.193581 -1.582824 -3.439817 0
M  V30 5 C 2.192052 -1.223589 -4.316159 0
M  V30 6 C 1.546413 -0.008991 -4.089339 0
M  V30 7 C 1.930986 0.766452 -3.017172 0
M  V30 8 C 2.936909 0.424537 -2.121711 0
M  V30 9 C 3.254960 1.341568 -1.019435 0
M  V30 10 N 2.749112 0.871491 0.227253 0
M  V30 11 C 1.369019 0.633192 0.475385 0
M  V30 12 C 0.897488 0.183378 1.684303 0
M  V30 13 C -0.425159 -0.064374 1.979540 0
M  V30 14 C -0.888481 -0.542462 3.278008 0
M  V30 15 C -0.069884 -0.800913 4.356287 0
M  V30 16 C -0.591008 -1.251771 5.551622 0
M  V30 17 C -1.953954 -1.441043 5.651065 0
M  V30 18 C -2.840900 -1.197669 4.595075 0
M  V30 19 N -4.245452 -1.398897 4.712630 0
M  V30 20 S -5.526867 -0.365512 4.184394 0
M  V30 21 C -5.484399 -0.138351 2.408669 0
M  V30 22 O -5.496531 0.957465 4.888335 0
M  V30 23 O -6.804641 -1.072827 4.529141 0
M  V30 24 C -2.232654 -0.750791 3.442166 0
M  V30 25 N -1.274714 0.171234 0.963625 0
M  V30 26 C -0.870781 0.611532 -0.240238 0
M  V30 27 N 0.435263 0.835579 -0.468324 0
M  V30 28 H 5.959526 -2.661197 -0.960655 0
M  V30 29 H 4.481203 -3.242110 -1.783816 0
M  V30 30 H 5.740261 -2.407816 -2.710529 0
M  V30 31 H 3.704378 -2.529453 -3.607632 0
M  V30 32 H 1.926597 -1.855978 -5.134267 0
M  V30 33 H 0.780020 0.235774 -4.784461 0
M  V30 34 H 1.340465 1.691321 -2.963138 0
M  V30 35 H 2.887565 2.359000 -1.272424 0
M  V30 36 H 4.368124 1.460966 -0.950409 0
M  V30 37 H 3.401843 0.681469 1.025055 0
M  V30 38 H 1.658787 0.019375 2.452665 0
M  V30 39 H 0.993665 -0.643858 4.250031 0
M  V30 40 H 0.019384 -1.465250 6.418473 0
M  V30 41 H -2.370812 -1.794241 6.584842 0
M  V30 42 H -4.404306 -2.331230 5.200924 0
M  V30 43 H -4.876293 0.758727 2.201486 0
M  V30 44 H -5.132349 -1.062305 1.906728 0
M  V30 45 H -6.526842 0.008138 2.006828 0
M  V30 46 H -2.900212 -0.556954 2.613859 0
M  V30 47 H -1.638024 0.776524 -1.013217 0
M  V30 END ATOM
M  V30 BEGIN BOND
M  V30 1 1 1 2
M  V30 2 1 2 3
M  V30 3 2 3 4
M  V30 4 1 4 5
M  V30 5 2 5 6
M  V30 6 1 6 7
M  V30 7 2 7 8
M  V30 8 1 8 9
M  V30 9 1 9 10
M  V30 10 1 10 11
M  V30 11 2 11 12
M  V30 12 1 12 13
M  V30 13 1 13 14
M  V30 14 2 14 15
M  V30 15 1 15 16
M  V30 16 2 16 17
M  V30 17 1 17 18
M  V30 18 1 18 19
M  V30 19 1 19 20
M  V30 20 1 20 21
M  V30 21 2 20 22
M  V30 22 2 20 23
M  V30 23 2 18 24
M  V30 24 2 13 25
M  V30 25 1 25 26
M  V30 26 2 26 27
M  V30 27 1 8 3
M  V30 28 1 27 11
M  V30 29 1 24 14
M  V30 30 1 1 28
M  V30 31 1 1 29
M  V30 32 1 1 30
M  V30 33 1 4 31
M  V30 34 1 5 32
M  V30 35 1 6 33
M  V30 36 1 7 34
M  V30 37 1 9 35
M  V30 38 1 9 36
M  V30 39 1 10 37
M  V30 40 1 12 38
M  V30 41 1 15 39
M  V30 42 1 16 40
M  V30 43 1 17 41
M  V30 44 1 19 42
M  V30 45 1 21 43
M  V30 46 1 21 44
M  V30 47 1 21 45
M  V30 48 1 24 46
M  V30 49 1 26 47
M  V30 END BOND
M  V30 END CTAB
M  END
>  <Dataset>  (747) 
ChEMBL_Kinases

>  <Ligand_Instance>  (747) 
nan

>  <PDB_ID>  (747) 
nan

>  <Standardized_SMILES>  (747) 
COc1ccccc1CNc1cc(-c2cccc(NS(C)(=O)=O)c2)ncn1

>  <Name>  (747) 
nan

>  <Pocket>  (747) 
nan

>  <ATP_Site>  (747) 
nan

>  <Peripheral>  (747) 
nan

>  <Num_H_Atoms_ProtBoundConf>  (747) 
nan

>  <Num_Resolved_Atoms>  (747) 
nan

>  <Num_Not_Resolved_Atoms>  (747) 
nan

$$$$
CHEMBL1535030
     RDKit          3D

  0  0  0  0  0  0  0  0  0  0999 V3000
M  V30 BEGIN CTAB
M  V30 COUNTS 38 39 0 0 0
M  V30 BEGIN ATOM
M  V30 1 C -0.325804 -2.666143 2.058837 0
M  V30 2 C 0.831715 -2.654322 1.114204 0
M  V30 3 C 1.494630 -4.015222 1.125347 0
M  V30 4 C 2.589438 -4.037111 0.075571 0
M  V30 5 C 2.005860 -3.897029 -1.314970 0
M  V30 6 C 0.572383 -3.386671 -1.247827 0
M  V30 7 N 0.462445 -2.344742 -0.248815 0
M  V30 8 C 0.007644 -1.050842 -0.576309 0
M  V30 9 O -0.319273 -0.759542 -1.755971 0
M  V30 10 C -0.095501 -0.015875 0.445731 0
M  V30 11 C -0.519002 1.203060 0.162341 0
M  V30 12 C -0.647472 2.285805 1.130036 0
M  V30 13 C -0.333395 2.140489 2.464180 0
M  V30 14 C -0.481755 3.213867 3.320654 0
M  V30 15 C -0.937924 4.440975 2.886442 0
M  V30 16 C -1.254658 4.594984 1.552179 0
M  V30 17 C -1.102164 3.515476 0.706861 0
M  V30 18 N -1.461572 3.808489 -0.632375 0 CHG=1 VAL=4
M  V30 19 O -2.275456 4.654530 -0.982916 0
M  V30 20 O -1.164109 3.402539 -1.909041 0 CHG=-1 VAL=1
M  V30 21 H -0.007119 -2.153778 3.000485 0
M  V30 22 H -0.569956 -3.704545 2.354141 0
M  V30 23 H -1.239872 -2.192478 1.634259 0
M  V30 24 H 1.620395 -1.928155 1.455603 0
M  V30 25 H 1.975106 -4.214655 2.108658 0
M  V30 26 H 0.775367 -4.826154 0.928918 0
M  V30 27 H 3.205006 -4.953634 0.168570 0
M  V30 28 H 3.261780 -3.177755 0.253687 0
M  V30 29 H 2.624151 -3.214786 -1.915391 0
M  V30 30 H 1.948121 -4.911382 -1.765595 0
M  V30 31 H -0.063696 -4.249725 -0.976111 0
M  V30 32 H 0.338292 -2.945845 -2.225020 0
M  V30 33 H 0.181230 -0.248942 1.463351 0
M  V30 34 H -0.773660 1.356363 -0.863346 0
M  V30 35 H 0.024983 1.209953 2.854733 0
M  V30 36 H -0.224578 3.065398 4.369347 0
M  V30 37 H -1.044665 5.276193 3.595747 0
M  V30 38 H -1.602193 5.560077 1.265987 0
M  V30 END ATOM
M  V30 BEGIN BOND
M  V30 1 1 1 2
M  V30 2 1 2 3
M  V30 3 1 3 4
M  V30 4 1 4 5
M  V30 5 1 5 6
M  V30 6 1 6 7
M  V30 7 1 7 8
M  V30 8 2 8 9
M  V30 9 1 8 10
M  V30 10 2 10 11
M  V30 11 1 11 12
M  V30 12 2 12 13
M  V30 13 1 13 14
M  V30 14 2 14 15
M  V30 15 1 15 16
M  V30 16 2 16 17
M  V30 17 1 17 18
M  V30 18 2 18 19
M  V30 19 1 18 20
M  V30 20 1 7 2
M  V30 21 1 17 12
M  V30 22 1 1 21
M  V30 23 1 1 22
M  V30 24 1 1 23
M  V30 25 1 2 24
M  V30 26 1 3 25
M  V30 27 1 3 26
M  V30 28 1 4 27
M  V30 29 1 4 28
M  V30 30 1 5 29
M  V30 31 1 5 30
M  V30 32 1 6 31
M  V30 33 1 6 32
M  V30 34 1 10 33
M  V30 35 1 11 34
M  V30 36 1 13 35
M  V30 37 1 14 36
M  V30 38 1 15 37
M  V30 39 1 16 38
M  V30 END BOND
M  V30 END CTAB
M  END
>  <Dataset>  (748) 
ChEMBL_Kinases

>  <Ligand_Instance>  (748) 
nan

>  <PDB_ID>  (748) 
nan

>  <Standardized_SMILES>  (748) 
CC1CCCCN1C(=O)/C=C/c1ccccc1[N+](=O)[O-]

>  <Name>  (748) 
nan

>  <Pocket>  (748) 
nan

>  <ATP_Site>  (748) 
nan

>  <Peripheral>  (748) 
nan

>  <Num_H_Atoms_ProtBoundConf>  (748) 
nan

>  <Num_Resolved_Atoms>  (748) 
nan

>  <Num_Not_Resolved_Atoms>  (748) 
nan

$$$$
CHEMBL1535123
     RDKit          3D

  0  0  0  0  0  0  0  0  0  0999 V3000
M  V30 BEGIN CTAB
M  V30 COUNTS 48 51 0 0 0
M  V30 BEGIN ATOM
M  V30 1 C -2.736306 -0.544021 5.343174 0
M  V30 2 C -3.164131 -0.858144 4.125146 0
M  V30 3 C -2.184628 -1.498939 3.186990 0
M  V30 4 N -0.916737 -1.652752 3.824205 0
M  V30 5 C 0.013780 -0.684537 3.752101 0
M  V30 6 S 0.040062 0.934648 2.955569 0
M  V30 7 C 0.673158 0.665875 1.290057 0
M  V30 8 C 0.763603 1.897593 0.485522 0
M  V30 9 O 0.456270 3.089630 0.821786 0
M  V30 10 N 1.259456 1.725744 -0.837885 0
M  V30 11 C 1.372307 2.918051 -1.688233 0
M  V30 12 C 1.903166 2.507349 -3.006950 0
M  V30 13 C 3.250374 2.455975 -3.334048 0
M  V30 14 C 3.656703 2.055274 -4.606566 0
M  V30 15 C 2.716031 1.705736 -5.552657 0
M  V30 16 C 1.398781 1.761155 -5.216983 0
M  V30 17 C 0.941691 2.155444 -3.957587 0
M  V30 18 O 0.678031 1.368339 -6.322775 0
M  V30 19 C 1.537812 0.951503 -7.363901 0
M  V30 20 O 2.811595 1.278397 -6.867015 0
M  V30 21 N 1.100356 -1.109025 4.444128 0
M  V30 22 N 0.835490 -2.320643 4.931885 0
M  V30 23 C -0.427319 -2.674666 4.550570 0
M  V30 24 C -1.138156 -3.912647 4.854331 0
M  V30 25 C -2.174937 -4.177953 5.726371 0
M  V30 26 C -2.653975 -5.461996 5.805934 0
M  V30 27 C -2.118449 -6.474149 5.035555 0
M  V30 28 N -1.108084 -6.222266 4.183864 0
M  V30 29 C -0.610332 -4.954873 4.082590 0
M  V30 30 H -1.706588 -0.763892 5.600433 0
M  V30 31 H -3.396673 -0.078897 6.066472 0
M  V30 32 H -4.182534 -0.663557 3.808143 0
M  V30 33 H -2.132725 -0.947108 2.226431 0
M  V30 34 H -2.589671 -2.504291 2.950919 0
M  V30 35 H 1.653634 0.120718 1.375645 0
M  V30 36 H -0.061402 -0.008596 0.769843 0
M  V30 37 H 1.543213 0.775215 -1.215162 0
M  V30 38 H 0.374325 3.404860 -1.808004 0
M  V30 39 H 2.069925 3.623682 -1.184737 0
M  V30 40 H 3.948106 2.732936 -2.578551 0
M  V30 41 H 4.718198 2.020152 -4.847974 0
M  V30 42 H -0.122992 2.171946 -3.772293 0
M  V30 43 H 1.423541 -0.167658 -7.455430 0
M  V30 44 H 1.297227 1.450747 -8.331439 0
M  V30 45 H -2.474806 -3.286562 6.248183 0
M  V30 46 H -3.463397 -5.590672 6.508551 0
M  V30 47 H -2.522793 -7.465432 5.128501 0
M  V30 48 H 0.193823 -4.914906 3.360013 0
M  V30 END ATOM
M  V30 BEGIN BOND
M  V30 1 2 1 2
M  V30 2 1 2 3
M  V30 3 1 3 4
M  V30 4 1 4 5
M  V30 5 1 5 6
M  V30 6 1 6 7
M  V30 7 1 7 8
M  V30 8 2 8 9
M  V30 9 1 8 10
M  V30 10 1 10 11
M  V30 11 1 11 12
M  V30 12 2 12 13
M  V30 13 1 13 14
M  V30 14 2 14 15
M  V30 15 1 15 16
M  V30 16 2 16 17
M  V30 17 1 16 18
M  V30 18 1 18 19
M  V30 19 1 19 20
M  V30 20 2 5 21
M  V30 21 1 21 22
M  V30 22 2 22 23
M  V30 23 1 23 24
M  V30 24 2 24 25
M  V30 25 1 25 26
M  V30 26 2 26 27
M  V30 27 1 27 28
M  V30 28 2 28 29
M  V30 29 1 23 4
M  V30 30 1 29 24
M  V30 31 1 17 12
M  V30 32 1 20 15
M  V30 33 1 1 30
M  V30 34 1 1 31
M  V30 35 1 2 32
M  V30 36 1 3 33
M  V30 37 1 3 34
M  V30 38 1 7 35
M  V30 39 1 7 36
M  V30 40 1 10 37
M  V30 41 1 11 38
M  V30 42 1 11 39
M  V30 43 1 13 40
M  V30 44 1 14 41
M  V30 45 1 17 42
M  V30 46 1 19 43
M  V30 47 1 19 44
M  V30 48 1 25 45
M  V30 49 1 26 46
M  V30 50 1 27 47
M  V30 51 1 29 48
M  V30 END BOND
M  V30 END CTAB
M  END
>  <Dataset>  (749) 
ChEMBL_Kinases

>  <Ligand_Instance>  (749) 
nan

>  <PDB_ID>  (749) 
nan

>  <Standardized_SMILES>  (749) 
C=CCn1c(SCC(=O)NCc2ccc3c(c2)OCO3)nnc1-c1cccnc1

>  <Name>  (749) 
nan

>  <Pocket>  (749) 
nan

>  <ATP_Site>  (749) 
nan

>  <Peripheral>  (749) 
nan

>  <Num_H_Atoms_ProtBoundConf>  (749) 
nan

>  <Num_Resolved_Atoms>  (749) 
nan

>  <Num_Not_Resolved_Atoms>  (749) 
nan

$$$$
CHEMBL1535402
     RDKit          3D

  0  0  0  0  0  0  0  0  0  0999 V3000
M  V30 BEGIN CTAB
M  V30 COUNTS 42 45 0 0 0
M  V30 BEGIN ATOM
M  V30 1 C -0.539763 -3.920075 0.097024 0
M  V30 2 N 0.220093 -2.727362 -0.074488 0
M  V30 3 C 1.003432 -2.689944 -1.265525 0
M  V30 4 C 2.330127 -1.948851 -1.148608 0
M  V30 5 C 2.060029 -0.466945 -0.964419 0
M  V30 6 C 2.644677 0.300276 -1.951023 0
M  V30 7 C 2.509820 1.669790 -2.001291 0
M  V30 8 Cl 3.234276 2.678077 -3.232743 0
M  V30 9 C 1.750213 2.232271 -1.000835 0
M  V30 10 O 1.518615 3.596769 -0.910817 0
M  V30 11 C 1.149892 1.511236 -0.000097 0
M  V30 12 C 1.287461 0.144673 0.048973 0
M  V30 13 C 0.666141 -0.739640 1.087967 0 CFG=1
M  V30 14 C 0.270912 -0.117277 2.325301 0
M  V30 15 C 0.969161 0.899706 2.934131 0
M  V30 16 C 0.594581 1.488518 4.121926 0
M  V30 17 C -0.541713 1.065762 4.778039 0
M  V30 18 C -1.266663 0.058812 4.214522 0
M  V30 19 C -0.849214 -0.488933 3.035909 0
M  V30 20 C -1.666257 -1.610200 2.509037 0
M  V30 21 C -1.674829 -1.490988 1.009149 0
M  V30 22 C -0.390211 -1.500409 0.320604 0 CFG=2
M  V30 23 H -0.129569 -4.647869 -0.665214 0
M  V30 24 H -0.373954 -4.439993 1.063459 0
M  V30 25 H -1.605100 -3.871930 -0.117350 0
M  V30 26 H 0.427097 -2.248956 -2.104086 0
M  V30 27 H 1.270912 -3.739047 -1.515277 0
M  V30 28 H 2.851418 -2.062966 -2.095538 0
M  V30 29 H 2.876246 -2.299942 -0.250683 0
M  V30 30 H 3.242948 -0.160556 -2.736778 0
M  V30 31 H 1.052649 4.122359 -1.650533 0
M  V30 32 H 0.526655 1.894075 0.788261 0
M  V30 33 H 1.506610 -1.476113 1.379286 0
M  V30 34 H 1.882402 1.310040 2.541137 0
M  V30 35 H 1.143964 2.290815 4.602343 0
M  V30 36 H -0.842614 1.522874 5.709860 0
M  V30 37 H -2.161872 -0.275249 4.730891 0
M  V30 38 H -2.715691 -1.542629 2.859035 0
M  V30 39 H -1.201601 -2.551964 2.860812 0
M  V30 40 H -2.465489 -2.133962 0.547862 0
M  V30 41 H -2.113317 -0.452478 0.837662 0
M  V30 42 H -0.587581 -0.974322 -0.686174 0
M  V30 END ATOM
M  V30 BEGIN BOND
M  V30 1 1 1 2
M  V30 2 1 2 3
M  V30 3 1 3 4
M  V30 4 1 4 5
M  V30 5 2 5 6
M  V30 6 1 6 7
M  V30 7 1 7 8
M  V30 8 2 7 9
M  V30 9 1 9 10
M  V30 10 1 9 11
M  V30 11 2 11 12
M  V30 12 1 12 13
M  V30 13 1 13 14
M  V30 14 2 14 15
M  V30 15 1 15 16
M  V30 16 2 16 17
M  V30 17 1 17 18
M  V30 18 2 18 19
M  V30 19 1 19 20
M  V30 20 1 20 21
M  V30 21 1 21 22
M  V30 22 1 22 2
M  V30 23 1 12 5
M  V30 24 1 22 13
M  V30 25 1 19 14
M  V30 26 1 1 23
M  V30 27 1 1 24
M  V30 28 1 1 25
M  V30 29 1 3 26
M  V30 30 1 3 27
M  V30 31 1 4 28
M  V30 32 1 4 29
M  V30 33 1 6 30
M  V30 34 1 10 31
M  V30 35 1 11 32
M  V30 36 1 13 33 CFG=1
M  V30 37 1 15 34
M  V30 38 1 16 35
M  V30 39 1 17 36
M  V30 40 1 18 37
M  V30 41 1 20 38
M  V30 42 1 20 39
M  V30 43 1 21 40
M  V30 44 1 21 41
M  V30 45 1 22 42 CFG=3
M  V30 END BOND
M  V30 END CTAB
M  END
>  <Dataset>  (750) 
ChEMBL_Kinases

>  <Ligand_Instance>  (750) 
nan

>  <PDB_ID>  (750) 
nan

>  <Standardized_SMILES>  (750) 
CN1CCc2cc(Cl)c(O)cc2[C@H]2c3ccccc3CC[C@@H]21

>  <Name>  (750) 
nan

>  <Pocket>  (750) 
nan

>  <ATP_Site>  (750) 
nan

>  <Peripheral>  (750) 
nan

>  <Num_H_Atoms_ProtBoundConf>  (750) 
nan

>  <Num_Resolved_Atoms>  (750) 
nan

>  <Num_Not_Resolved_Atoms>  (750) 
nan

$$$$
CHEMBL1535514
     RDKit          3D

  0  0  0  0  0  0  0  0  0  0999 V3000
M  V30 BEGIN CTAB
M  V30 COUNTS 21 21 0 0 0
M  V30 BEGIN ATOM
M  V30 1 C -0.356707 0.997988 4.622723 0
M  V30 2 S 1.433941 0.814856 4.387806 0
M  V30 3 C 1.751840 -0.213145 2.957693 0
M  V30 4 S 1.918795 -1.973174 2.956080 0
M  V30 5 N 2.204344 -2.055065 1.141091 0
M  V30 6 C 2.139690 -0.757866 0.764839 0
M  V30 7 S 2.415126 -0.786654 -1.001190 0
M  V30 8 C 0.859539 -0.972181 -1.913994 0
M  V30 9 C -0.040468 0.176664 -1.784601 0
M  V30 10 N -1.278624 0.087347 -2.474493 0
M  V30 11 O -0.154659 1.292449 -1.263713 0
M  V30 12 C 1.908918 0.223484 1.664764 0
M  V30 13 C 1.841288 1.603651 1.271987 0
M  V30 14 N 1.803849 2.731449 0.947441 0
M  V30 15 H -0.553615 1.962653 5.166737 0
M  V30 16 H -0.826280 1.030188 3.621299 0
M  V30 17 H -0.709163 0.139702 5.242733 0
M  V30 18 H 0.323299 -1.857032 -1.462440 0
M  V30 19 H 1.068493 -1.250799 -2.957267 0
M  V30 20 H -2.293389 0.016627 -2.196108 0
M  V30 21 H -1.408378 0.074022 -3.522830 0
M  V30 END ATOM
M  V30 BEGIN BOND
M  V30 1 1 1 2
M  V30 2 1 2 3
M  V30 3 1 3 4
M  V30 4 1 4 5
M  V30 5 2 5 6
M  V30 6 1 6 7
M  V30 7 1 7 8
M  V30 8 1 8 9
M  V30 9 1 9 10
M  V30 10 2 9 11
M  V30 11 1 6 12
M  V30 12 1 12 13
M  V30 13 3 13 14
M  V30 14 2 12 3
M  V30 15 1 1 15
M  V30 16 1 1 16
M  V30 17 1 1 17
M  V30 18 1 8 18
M  V30 19 1 8 19
M  V30 20 1 10 20
M  V30 21 1 10 21
M  V30 END BOND
M  V30 END CTAB
M  END
>  <Dataset>  (751) 
ChEMBL_Kinases

>  <Ligand_Instance>  (751) 
nan

>  <PDB_ID>  (751) 
nan

>  <Standardized_SMILES>  (751) 
CSc1snc(SCC(N)=O)c1C#N

>  <Name>  (751) 
nan

>  <Pocket>  (751) 
nan

>  <ATP_Site>  (751) 
nan

>  <Peripheral>  (751) 
nan

>  <Num_H_Atoms_ProtBoundConf>  (751) 
nan

>  <Num_Resolved_Atoms>  (751) 
nan

>  <Num_Not_Resolved_Atoms>  (751) 
nan

$$$$
CHEMBL1535517
     RDKit          3D

  0  0  0  0  0  0  0  0  0  0999 V3000
M  V30 BEGIN CTAB
M  V30 COUNTS 39 41 0 0 0
M  V30 BEGIN ATOM
M  V30 1 C -1.054798 -1.184293 1.714213 0
M  V30 2 N -0.347108 -1.632206 2.876377 0
M  V30 3 C 0.979692 -1.681549 2.753857 0
M  V30 4 S 2.412443 -1.413414 1.766518 0
M  V30 5 C 2.023336 -0.731725 0.160275 0
M  V30 6 C 1.508677 0.673780 0.371735 0
M  V30 7 O 1.349829 1.289930 1.418833 0
M  V30 8 C 1.123431 1.474995 -0.830973 0
M  V30 9 C 1.770782 0.931968 -2.083132 0
M  V30 10 C 0.755430 0.034002 -2.740151 0
M  V30 11 C 1.996860 2.126553 -3.016423 0
M  V30 12 C 3.107943 0.315436 -1.869346 0
M  V30 13 C 3.238421 -0.547665 -0.691229 0
M  V30 14 O 4.342295 -0.998968 -0.575277 0
M  V30 15 N 1.438982 -2.139399 3.957854 0
M  V30 16 N 0.380742 -2.349430 4.761440 0
M  V30 17 C -0.748267 -2.036689 4.100310 0
M  V30 18 C -2.170811 -2.057763 4.441303 0
M  V30 19 C -2.961586 -3.080350 4.935160 0
M  V30 20 C -4.253725 -2.556118 5.081623 0
M  V30 21 C -4.173963 -1.236004 4.665476 0
M  V30 22 O -2.937145 -1.000505 4.303453 0
M  V30 23 H -0.980768 -0.106362 1.569946 0
M  V30 24 H -2.133513 -1.517109 1.789248 0
M  V30 25 H -0.702279 -1.707970 0.802944 0
M  V30 26 H 1.273953 -1.356497 -0.351209 0
M  V30 27 H 0.017229 1.441842 -0.892487 0
M  V30 28 H 1.368352 2.556492 -0.699262 0
M  V30 29 H -0.138790 -0.166737 -2.081181 0
M  V30 30 H 0.290165 0.526775 -3.641723 0
M  V30 31 H 1.159935 -0.955621 -2.973646 0
M  V30 32 H 1.486613 1.966407 -3.998765 0
M  V30 33 H 1.572124 3.057707 -2.617334 0
M  V30 34 H 3.050979 2.311269 -3.233292 0
M  V30 35 H 3.882728 1.131285 -1.874495 0
M  V30 36 H 3.327698 -0.289155 -2.797036 0
M  V30 37 H -2.562961 -4.059073 5.135620 0
M  V30 38 H -5.090701 -3.132495 5.452232 0
M  V30 39 H -5.015261 -0.542151 4.654657 0
M  V30 END ATOM
M  V30 BEGIN BOND
M  V30 1 1 1 2
M  V30 2 1 2 3
M  V30 3 1 3 4
M  V30 4 1 4 5
M  V30 5 1 5 6
M  V30 6 2 6 7
M  V30 7 1 6 8
M  V30 8 1 8 9
M  V30 9 1 9 10
M  V30 10 1 9 11
M  V30 11 1 9 12
M  V30 12 1 12 13
M  V30 13 2 13 14
M  V30 14 2 3 15
M  V30 15 1 15 16
M  V30 16 2 16 17
M  V30 17 1 17 18
M  V30 18 2 18 19
M  V30 19 1 19 20
M  V30 20 2 20 21
M  V30 21 1 21 22
M  V30 22 1 17 2
M  V30 23 1 22 18
M  V30 24 1 13 5
M  V30 25 1 1 23
M  V30 26 1 1 24
M  V30 27 1 1 25
M  V30 28 1 5 26
M  V30 29 1 8 27
M  V30 30 1 8 28
M  V30 31 1 10 29
M  V30 32 1 10 30
M  V30 33 1 10 31
M  V30 34 1 11 32
M  V30 35 1 11 33
M  V30 36 1 11 34
M  V30 37 1 12 35
M  V30 38 1 12 36
M  V30 39 1 19 37
M  V30 40 1 20 38
M  V30 41 1 21 39
M  V30 END BOND
M  V30 END CTAB
M  END
>  <Dataset>  (752) 
ChEMBL_Kinases

>  <Ligand_Instance>  (752) 
nan

>  <PDB_ID>  (752) 
nan

>  <Standardized_SMILES>  (752) 
Cn1c(SC2C(=O)CC(C)(C)CC2=O)nnc1-c1ccco1

>  <Name>  (752) 
nan

>  <Pocket>  (752) 
nan

>  <ATP_Site>  (752) 
nan

>  <Peripheral>  (752) 
nan

>  <Num_H_Atoms_ProtBoundConf>  (752) 
nan

>  <Num_Resolved_Atoms>  (752) 
nan

>  <Num_Not_Resolved_Atoms>  (752) 
nan

$$$$
CHEMBL1535931
     RDKit          3D

  0  0  0  0  0  0  0  0  0  0999 V3000
M  V30 BEGIN CTAB
M  V30 COUNTS 48 51 0 0 0
M  V30 BEGIN ATOM
M  V30 1 C 1.346872 -3.817317 0.267413 0
M  V30 2 S 1.945055 -4.081289 -1.361409 0
M  V30 3 O 0.762977 -4.139452 -2.286553 0
M  V30 4 O 2.598033 -5.434650 -1.421442 0
M  V30 5 N 3.084460 -2.885052 -1.875774 0
M  V30 6 C 2.732476 -1.510481 -1.977369 0
M  V30 7 C 3.173194 -0.891353 -3.150268 0
M  V30 8 C 2.901347 0.444300 -3.380866 0
M  V30 9 C 2.184778 1.178853 -2.440983 0
M  V30 10 C 1.748251 0.553480 -1.272540 0
M  V30 11 C 0.996256 1.332294 -0.289027 0
M  V30 12 C 1.371885 2.674263 -0.250413 0
M  V30 13 C 0.696202 3.473723 0.663821 0
M  V30 14 C -0.286707 2.975335 1.485634 0
M  V30 15 N -0.976069 3.711673 2.376226 0
M  V30 16 C -1.930692 3.182292 3.144940 0
M  V30 17 N -2.237685 1.893595 3.057778 0
M  V30 18 C -1.630280 1.059954 2.219014 0
M  V30 19 N -2.003707 -0.320721 2.250939 0
M  V30 20 C -3.346606 -0.574414 2.806504 0
M  V30 21 C -3.104404 -1.033178 4.248345 0
M  V30 22 N -2.127562 -2.119886 4.224335 0
M  V30 23 C -2.051828 -2.652055 2.857180 0
M  V30 24 C -1.452793 -1.613870 1.929430 0
M  V30 25 C -0.655628 1.651033 1.447012 0
M  V30 26 C 0.015206 0.864225 0.540140 0
M  V30 27 C 2.024861 -0.781041 -1.051564 0
M  V30 28 H 2.069475 -3.387555 0.971559 0
M  V30 29 H 1.060766 -4.828692 0.681509 0
M  V30 30 H 0.372181 -3.248773 0.283328 0
M  V30 31 H 4.079214 -3.163468 -2.127324 0
M  V30 32 H 3.743702 -1.399342 -3.941364 0
M  V30 33 H 3.224077 0.971776 -4.280697 0
M  V30 34 H 1.985335 2.226517 -2.647708 0
M  V30 35 H 2.123394 3.175130 -0.841711 0
M  V30 36 H 0.867084 4.526843 0.816333 0
M  V30 37 H -2.483786 3.779187 3.860304 0
M  V30 38 H -3.933855 -1.282459 2.217293 0
M  V30 39 H -3.956546 0.352550 2.862059 0
M  V30 40 H -4.090201 -1.356712 4.638075 0
M  V30 41 H -2.646709 -0.202826 4.808298 0
M  V30 42 H -2.469035 -2.877779 4.825511 0
M  V30 43 H -3.021880 -3.044607 2.541551 0
M  V30 44 H -1.362892 -3.543477 2.853025 0
M  V30 45 H -0.354820 -1.695526 2.086493 0
M  V30 46 H -1.749301 -1.846063 0.873467 0
M  V30 47 H -0.195185 -0.159346 0.414365 0
M  V30 48 H 1.705113 -1.302851 -0.160143 0
M  V30 END ATOM
M  V30 BEGIN BOND
M  V30 1 1 1 2
M  V30 2 2 2 3
M  V30 3 2 2 4
M  V30 4 1 2 5
M  V30 5 1 5 6
M  V30 6 2 6 7
M  V30 7 1 7 8
M  V30 8 2 8 9
M  V30 9 1 9 10
M  V30 10 1 10 11
M  V30 11 2 11 12
M  V30 12 1 12 13
M  V30 13 2 13 14
M  V30 14 1 14 15
M  V30 15 2 15 16
M  V30 16 1 16 17
M  V30 17 2 17 18
M  V30 18 1 18 19
M  V30 19 1 19 20
M  V30 20 1 20 21
M  V30 21 1 21 22
M  V30 22 1 22 23
M  V30 23 1 23 24
M  V30 24 1 18 25
M  V30 25 2 25 26
M  V30 26 2 10 27
M  V30 27 1 27 6
M  V30 28 1 26 11
M  V30 29 1 25 14
M  V30 30 1 24 19
M  V30 31 1 1 28
M  V30 32 1 1 29
M  V30 33 1 1 30
M  V30 34 1 5 31
M  V30 35 1 7 32
M  V30 36 1 8 33
M  V30 37 1 9 34
M  V30 38 1 12 35
M  V30 39 1 13 36
M  V30 40 1 16 37
M  V30 41 1 20 38
M  V30 42 1 20 39
M  V30 43 1 21 40
M  V30 44 1 21 41
M  V30 45 1 22 42
M  V30 46 1 23 43
M  V30 47 1 23 44
M  V30 48 1 24 45
M  V30 49 1 24 46
M  V30 50 1 26 47
M  V30 51 1 27 48
M  V30 END BOND
M  V30 END CTAB
M  END
>  <Dataset>  (753) 
ChEMBL_Kinases

>  <Ligand_Instance>  (753) 
nan

>  <PDB_ID>  (753) 
nan

>  <Standardized_SMILES>  (753) 
CS(=O)(=O)Nc1cccc(-c2ccc3ncnc(N4CCNCC4)c3c2)c1

>  <Name>  (753) 
nan

>  <Pocket>  (753) 
nan

>  <ATP_Site>  (753) 
nan

>  <Peripheral>  (753) 
nan

>  <Num_H_Atoms_ProtBoundConf>  (753) 
nan

>  <Num_Resolved_Atoms>  (753) 
nan

>  <Num_Not_Resolved_Atoms>  (753) 
nan

$$$$
CHEMBL1534503
     RDKit          3D

  0  0  0  0  0  0  0  0  0  0999 V3000
M  V30 BEGIN CTAB
M  V30 COUNTS 59 61 0 0 0
M  V30 BEGIN ATOM
M  V30 1 C 3.052685 -1.376993 2.339745 0
M  V30 2 O 2.753147 0.005593 2.330129 0
M  V30 3 C 3.508278 0.835933 3.135573 0
M  V30 4 C 4.540983 0.345400 3.942801 0
M  V30 5 C 5.318375 1.131518 4.759600 0
M  V30 6 C 5.030161 2.473895 4.752557 0
M  V30 7 C 4.018783 2.986048 3.967761 0
M  V30 8 C 3.245032 2.189728 3.152244 0
M  V30 9 C 2.164557 2.683144 2.304376 0
M  V30 10 C 1.802172 4.009400 2.231019 0
M  V30 11 C 0.786441 4.500329 1.439174 0
M  V30 12 C 0.427916 5.938701 1.389502 0
M  V30 13 F -0.321813 6.159904 0.249979 0
M  V30 14 F 1.563824 6.734000 1.310471 0
M  V30 15 F -0.278939 6.318923 2.503646 0
M  V30 16 N 0.112305 3.595150 0.689933 0
M  V30 17 C 0.443864 2.276850 0.737977 0
M  V30 18 S -0.422155 1.069590 -0.232492 0
M  V30 19 O 0.523741 -0.036348 -0.621563 0
M  V30 20 O -0.911668 1.735397 -1.481141 0
M  V30 21 C -1.769325 0.495735 0.764119 0
M  V30 22 C -2.631489 -0.527309 0.110243 0
M  V30 23 C -1.953167 -1.792110 -0.292981 0
M  V30 24 C -2.978556 -2.688876 -0.915361 0
M  V30 25 O -4.204203 -2.388730 -1.060065 0
M  V30 26 N -2.797293 -3.993210 -1.444408 0
M  V30 27 C -4.051508 -4.550172 -1.972565 0
M  V30 28 C -3.740199 -5.615662 -3.007559 0
M  V30 29 C -2.550028 -5.269537 -3.871165 0
M  V30 30 C -1.322062 -4.960241 -3.047663 0
M  V30 31 C -1.699711 -4.927337 -1.602433 0
M  V30 32 C -0.534115 -4.590372 -0.704414 0
M  V30 33 N 1.436646 1.864160 1.524172 0
M  V30 34 H 4.109389 -1.522304 2.119678 0
M  V30 35 H 2.458021 -1.921592 1.579720 0
M  V30 36 H 2.870346 -1.732323 3.373437 0
M  V30 37 H 4.712860 -0.725043 3.898102 0
M  V30 38 H 6.089575 0.642845 5.340274 0
M  V30 39 H 5.626740 3.120763 5.387313 0
M  V30 40 H 3.830650 4.036962 3.994795 0
M  V30 41 H 2.325165 4.740430 2.817429 0
M  V30 42 H -1.392655 0.047048 1.728059 0
M  V30 43 H -2.378033 1.362515 1.090817 0
M  V30 44 H -3.512583 -0.796042 0.742849 0
M  V30 45 H -3.105325 -0.025380 -0.786327 0
M  V30 46 H -1.480323 -2.301322 0.551137 0
M  V30 47 H -1.156851 -1.544524 -1.035101 0
M  V30 48 H -4.533463 -5.072336 -1.114980 0
M  V30 49 H -4.740765 -3.794262 -2.345310 0
M  V30 50 H -4.617572 -5.636440 -3.687817 0
M  V30 51 H -3.671198 -6.634854 -2.561323 0
M  V30 52 H -2.334062 -6.177721 -4.469169 0
M  V30 53 H -2.840484 -4.474251 -4.572752 0
M  V30 54 H -0.490864 -5.657673 -3.271312 0
M  V30 55 H -0.969860 -3.953858 -3.353417 0
M  V30 56 H -2.029214 -5.954656 -1.305921 0
M  V30 57 H -0.056783 -3.672805 -1.053347 0
M  V30 58 H -0.846125 -4.602813 0.351952 0
M  V30 59 H 0.239602 -5.397803 -0.790450 0
M  V30 END ATOM
M  V30 BEGIN BOND
M  V30 1 1 1 2
M  V30 2 1 2 3
M  V30 3 2 3 4
M  V30 4 1 4 5
M  V30 5 2 5 6
M  V30 6 1 6 7
M  V30 7 2 7 8
M  V30 8 1 8 9
M  V30 9 2 9 10
M  V30 10 1 10 11
M  V30 11 1 11 12
M  V30 12 1 12 13
M  V30 13 1 12 14
M  V30 14 1 12 15
M  V30 15 2 11 16
M  V30 16 1 16 17
M  V30 17 1 17 18
M  V30 18 2 18 19
M  V30 19 2 18 20
M  V30 20 1 18 21
M  V30 21 1 21 22
M  V30 22 1 22 23
M  V30 23 1 23 24
M  V30 24 2 24 25
M  V30 25 1 24 26
M  V30 26 1 26 27
M  V30 27 1 27 28
M  V30 28 1 28 29
M  V30 29 1 29 30
M  V30 30 1 30 31
M  V30 31 1 31 32
M  V30 32 2 17 33
M  V30 33 1 8 3
M  V30 34 1 33 9
M  V30 35 1 31 26
M  V30 36 1 1 34
M  V30 37 1 1 35
M  V30 38 1 1 36
M  V30 39 1 4 37
M  V30 40 1 5 38
M  V30 41 1 6 39
M  V30 42 1 7 40
M  V30 43 1 10 41
M  V30 44 1 21 42
M  V30 45 1 21 43
M  V30 46 1 22 44
M  V30 47 1 22 45
M  V30 48 1 23 46
M  V30 49 1 23 47
M  V30 50 1 27 48
M  V30 51 1 27 49
M  V30 52 1 28 50
M  V30 53 1 28 51
M  V30 54 1 29 52
M  V30 55 1 29 53
M  V30 56 1 30 54
M  V30 57 1 30 55
M  V30 58 1 31 56
M  V30 59 1 32 57
M  V30 60 1 32 58
M  V30 61 1 32 59
M  V30 END BOND
M  V30 END CTAB
M  END
>  <Dataset>  (754) 
ChEMBL_Kinases

>  <Ligand_Instance>  (754) 
nan

>  <PDB_ID>  (754) 
nan

>  <Standardized_SMILES>  (754) 
COc1ccccc1-c1cc(C(F)(F)F)nc(S(=O)(=O)CCCC(=O)N2CCCCC2C)n1

>  <Name>  (754) 
nan

>  <Pocket>  (754) 
nan

>  <ATP_Site>  (754) 
nan

>  <Peripheral>  (754) 
nan

>  <Num_H_Atoms_ProtBoundConf>  (754) 
nan

>  <Num_Resolved_Atoms>  (754) 
nan

>  <Num_Not_Resolved_Atoms>  (754) 
nan

$$$$
CHEMBL1602731
     RDKit          3D

  0  0  0  0  0  0  0  0  0  0999 V3000
M  V30 BEGIN CTAB
M  V30 COUNTS 27 29 0 0 0
M  V30 BEGIN ATOM
M  V30 1 O -3.107584 -2.165120 0.563165 0
M  V30 2 C -2.040092 -1.963051 1.212784 0
M  V30 3 N -1.781368 -2.735641 2.404306 0
M  V30 4 C -0.447140 -2.896472 2.947590 0
M  V30 5 C 0.609359 -2.953797 1.902180 0
M  V30 6 C 1.214789 -1.649144 1.500951 0
M  V30 7 C 0.187610 -0.853942 0.778757 0
M  V30 8 C -1.199936 -0.910998 0.600300 0
M  V30 9 O -1.605474 0.075635 -0.161924 0
M  V30 10 C -0.600449 0.820764 -0.530493 0
M  V30 11 C -0.654229 1.937848 -1.329245 0
M  V30 12 C 0.531549 2.587733 -1.601460 0
M  V30 13 Br 0.591280 4.143423 -2.692615 0
M  V30 14 C 1.699447 2.088782 -1.063730 0
M  V30 15 O 2.909031 2.731868 -1.327264 0
M  V30 16 C 1.691783 0.962408 -0.268166 0
M  V30 17 Br 3.338765 0.324414 0.448035 0
M  V30 18 C 0.534484 0.275655 0.034414 0
M  V30 19 H -2.643596 -3.144837 2.804576 0
M  V30 20 H -0.187846 -2.178920 3.736510 0
M  V30 21 H -0.474180 -3.910924 3.445244 0
M  V30 22 H 1.446039 -3.595796 2.306559 0
M  V30 23 H 0.275673 -3.465464 0.981681 0
M  V30 24 H 2.001831 -1.910058 0.731128 0
M  V30 25 H 1.639831 -1.071890 2.331585 0
M  V30 26 H -1.577133 2.312785 -1.740439 0
M  V30 27 H 3.493215 3.000379 -0.536196 0
M  V30 END ATOM
M  V30 BEGIN BOND
M  V30 1 2 1 2
M  V30 2 1 2 3
M  V30 3 1 3 4
M  V30 4 1 4 5
M  V30 5 1 5 6
M  V30 6 1 6 7
M  V30 7 2 7 8
M  V30 8 1 8 9
M  V30 9 1 9 10
M  V30 10 2 10 11
M  V30 11 1 11 12
M  V30 12 1 12 13
M  V30 13 2 12 14
M  V30 14 1 14 15
M  V30 15 1 14 16
M  V30 16 1 16 17
M  V30 17 2 16 18
M  V30 18 1 8 2
M  V30 19 1 18 10
M  V30 20 1 18 7
M  V30 21 1 3 19
M  V30 22 1 4 20
M  V30 23 1 4 21
M  V30 24 1 5 22
M  V30 25 1 5 23
M  V30 26 1 6 24
M  V30 27 1 6 25
M  V30 28 1 11 26
M  V30 29 1 15 27
M  V30 END BOND
M  V30 END CTAB
M  END
>  <Dataset>  (755) 
ChEMBL_Kinases

>  <Ligand_Instance>  (755) 
nan

>  <PDB_ID>  (755) 
nan

>  <Standardized_SMILES>  (755) 
O=C1NCCCc2c1oc1cc(Br)c(O)c(Br)c21

>  <Name>  (755) 
nan

>  <Pocket>  (755) 
nan

>  <ATP_Site>  (755) 
nan

>  <Peripheral>  (755) 
nan

>  <Num_H_Atoms_ProtBoundConf>  (755) 
nan

>  <Num_Resolved_Atoms>  (755) 
nan

>  <Num_Not_Resolved_Atoms>  (755) 
nan

$$$$
CHEMBL1602574
     RDKit          3D

  0  0  0  0  0  0  0  0  0  0999 V3000
M  V30 BEGIN CTAB
M  V30 COUNTS 53 54 0 0 0
M  V30 BEGIN ATOM
M  V30 1 C 4.586404 -4.374599 5.030258 0
M  V30 2 C 5.406306 -3.588687 3.999742 0
M  V30 3 C 4.494532 -2.652557 3.223524 0
M  V30 4 S 5.403664 -1.708534 2.003087 0
M  V30 5 O 6.527050 -0.959359 2.652022 0
M  V30 6 O 6.045111 -2.704333 1.070850 0
M  V30 7 C 4.311969 -0.655885 1.146139 0
M  V30 8 C 4.080181 0.614832 1.622882 0
M  V30 9 C 3.233546 1.509841 1.007743 0
M  V30 10 C 2.561345 1.172393 -0.139102 0
M  V30 11 C 1.604436 1.973332 -0.941510 0
M  V30 12 O 0.296677 1.662278 -0.522324 0
M  V30 13 C -0.251435 1.813738 0.705269 0
M  V30 14 O 0.390675 2.282044 1.672645 0
M  V30 15 C -1.636298 1.424900 0.932929 0
M  V30 16 C -2.249050 1.555689 2.162128 0
M  V30 17 C -3.564056 1.190280 2.392610 0
M  V30 18 C -4.292810 0.668707 1.331433 0
M  V30 19 C -3.720948 0.516593 0.072276 0
M  V30 20 N -4.407365 -0.009693 -1.057839 0
M  V30 21 C -4.584948 -1.293032 -1.594917 0
M  V30 22 O -4.012216 -2.234313 -0.946398 0
M  V30 23 C -5.431743 -1.215699 -2.834113 0
M  V30 24 C -6.788135 -0.642291 -2.566487 0
M  V30 25 C -5.628676 -2.654513 -3.270160 0
M  V30 26 C -2.408746 0.898153 -0.094635 0
M  V30 27 C 2.816866 -0.126239 -0.600816 0
M  V30 28 C 3.658757 -1.041638 -0.005487 0
M  V30 29 H 5.234901 -4.732825 5.859811 0
M  V30 30 H 3.802548 -3.710596 5.448404 0
M  V30 31 H 4.139061 -5.294471 4.575561 0
M  V30 32 H 5.956057 -4.261312 3.322651 0
M  V30 33 H 6.148923 -3.015804 4.587759 0
M  V30 34 H 3.680673 -3.208357 2.718251 0
M  V30 35 H 4.026623 -1.943711 3.930452 0
M  V30 36 H 4.577250 0.970911 2.538555 0
M  V30 37 H 3.061734 2.495085 1.372065 0
M  V30 38 H 1.766022 1.718952 -1.991524 0
M  V30 39 H 1.779359 3.060836 -0.733651 0
M  V30 40 H -1.685491 1.961922 2.993499 0
M  V30 41 H -4.072706 1.275955 3.327696 0
M  V30 42 H -5.326197 0.346515 1.382061 0
M  V30 43 H -4.773635 0.921073 -1.402420 0
M  V30 44 H -4.945968 -0.608939 -3.625013 0
M  V30 45 H -7.419681 -0.883329 -3.441596 0
M  V30 46 H -6.793630 0.439803 -2.357325 0
M  V30 47 H -7.190619 -1.187933 -1.680579 0
M  V30 48 H -4.907329 -2.967688 -4.050038 0
M  V30 49 H -6.628520 -2.746088 -3.752084 0
M  V30 50 H -5.504530 -3.372120 -2.435154 0
M  V30 51 H -1.908611 0.805635 -1.044951 0
M  V30 52 H 2.321929 -0.485681 -1.515640 0
M  V30 53 H 3.806807 -2.013224 -0.410936 0
M  V30 END ATOM
M  V30 BEGIN BOND
M  V30 1 1 1 2
M  V30 2 1 2 3
M  V30 3 1 3 4
M  V30 4 2 4 5
M  V30 5 2 4 6
M  V30 6 1 4 7
M  V30 7 2 7 8
M  V30 8 1 8 9
M  V30 9 2 9 10
M  V30 10 1 10 11
M  V30 11 1 11 12
M  V30 12 1 12 13
M  V30 13 2 13 14
M  V30 14 1 13 15
M  V30 15 2 15 16
M  V30 16 1 16 17
M  V30 17 2 17 18
M  V30 18 1 18 19
M  V30 19 1 19 20
M  V30 20 1 20 21
M  V30 21 2 21 22
M  V30 22 1 21 23
M  V30 23 1 23 24
M  V30 24 1 23 25
M  V30 25 2 19 26
M  V30 26 1 10 27
M  V30 27 2 27 28
M  V30 28 1 28 7
M  V30 29 1 26 15
M  V30 30 1 1 29
M  V30 31 1 1 30
M  V30 32 1 1 31
M  V30 33 1 2 32
M  V30 34 1 2 33
M  V30 35 1 3 34
M  V30 36 1 3 35
M  V30 37 1 8 36
M  V30 38 1 9 37
M  V30 39 1 11 38
M  V30 40 1 11 39
M  V30 41 1 16 40
M  V30 42 1 17 41
M  V30 43 1 18 42
M  V30 44 1 20 43
M  V30 45 1 23 44
M  V30 46 1 24 45
M  V30 47 1 24 46
M  V30 48 1 24 47
M  V30 49 1 25 48
M  V30 50 1 25 49
M  V30 51 1 25 50
M  V30 52 1 26 51
M  V30 53 1 27 52
M  V30 54 1 28 53
M  V30 END BOND
M  V30 END CTAB
M  END
>  <Dataset>  (756) 
ChEMBL_Kinases

>  <Ligand_Instance>  (756) 
nan

>  <PDB_ID>  (756) 
nan

>  <Standardized_SMILES>  (756) 
CCCS(=O)(=O)c1ccc(COC(=O)c2cccc(NC(=O)C(C)C)c2)cc1

>  <Name>  (756) 
nan

>  <Pocket>  (756) 
nan

>  <ATP_Site>  (756) 
nan

>  <Peripheral>  (756) 
nan

>  <Num_H_Atoms_ProtBoundConf>  (756) 
nan

>  <Num_Resolved_Atoms>  (756) 
nan

>  <Num_Not_Resolved_Atoms>  (756) 
nan

$$$$
CHEMBL1602544
     RDKit          3D

  0  0  0  0  0  0  0  0  0  0999 V3000
M  V30 BEGIN CTAB
M  V30 COUNTS 39 40 0 0 0
M  V30 BEGIN ATOM
M  V30 1 O -0.696113 -2.688417 3.107905 0
M  V30 2 C -0.260945 -1.590048 2.718249 0
M  V30 3 C 1.165131 -1.438425 2.425346 0
M  V30 4 C 2.346540 -0.882315 2.921821 0
M  V30 5 C 3.293090 -1.213381 1.995454 0
M  V30 6 C 2.705154 -1.946070 0.969398 0
M  V30 7 C 3.514338 -2.442990 -0.189298 0
M  V30 8 O 3.493622 -1.508240 -1.221169 0
M  V30 9 C 2.185813 -1.307930 -1.655547 0
M  V30 10 C 2.155639 -0.275148 -2.758267 0
M  V30 11 F 2.918415 -0.701954 -3.816781 0
M  V30 12 F 2.598326 0.950272 -2.330238 0
M  V30 13 F 0.813079 -0.131586 -3.140212 0
M  V30 14 O 1.417691 -2.049584 1.285021 0
M  V30 15 N -1.094189 -0.423364 2.530373 0
M  V30 16 C -2.510792 -0.621153 2.827279 0
M  V30 17 C -3.273427 0.443757 2.043566 0
M  V30 18 C -2.963899 0.327244 0.576749 0
M  V30 19 C -1.910396 1.313002 0.135701 0
M  V30 20 C -0.550105 0.780394 0.550562 0
M  V30 21 C -0.430654 0.779888 2.077866 0
M  V30 22 H 2.185878 -0.370253 3.853008 0
M  V30 23 H 4.311565 -0.862910 2.207097 0
M  V30 24 H 3.139539 -3.422972 -0.548322 0
M  V30 25 H 4.552088 -2.575294 0.155256 0
M  V30 26 H 1.496218 -1.086915 -0.829478 0
M  V30 27 H 1.831020 -2.279190 -2.111661 0
M  V30 28 H -2.698305 -0.588318 3.896943 0
M  V30 29 H -2.792309 -1.626343 2.447605 0
M  V30 30 H -4.374399 0.286466 2.182974 0
M  V30 31 H -2.962441 1.434274 2.408071 0
M  V30 32 H -3.881469 0.555925 -0.001916 0
M  V30 33 H -2.580600 -0.687002 0.335141 0
M  V30 34 H -2.111962 2.326040 0.489723 0
M  V30 35 H -1.917564 1.321740 -0.981434 0
M  V30 36 H 0.298911 1.328571 0.146118 0
M  V30 37 H -0.523317 -0.263953 0.166653 0
M  V30 38 H -0.930196 1.681762 2.481090 0
M  V30 39 H 0.627990 0.813617 2.395468 0
M  V30 END ATOM
M  V30 BEGIN BOND
M  V30 1 2 1 2
M  V30 2 1 2 3
M  V30 3 2 3 4
M  V30 4 1 4 5
M  V30 5 2 5 6
M  V30 6 1 6 7
M  V30 7 1 7 8
M  V30 8 1 8 9
M  V30 9 1 9 10
M  V30 10 1 10 11
M  V30 11 1 10 12
M  V30 12 1 10 13
M  V30 13 1 6 14
M  V30 14 1 2 15
M  V30 15 1 15 16
M  V30 16 1 16 17
M  V30 17 1 17 18
M  V30 18 1 18 19
M  V30 19 1 19 20
M  V30 20 1 20 21
M  V30 21 1 14 3
M  V30 22 1 21 15
M  V30 23 1 4 22
M  V30 24 1 5 23
M  V30 25 1 7 24
M  V30 26 1 7 25
M  V30 27 1 9 26
M  V30 28 1 9 27
M  V30 29 1 16 28
M  V30 30 1 16 29
M  V30 31 1 17 30
M  V30 32 1 17 31
M  V30 33 1 18 32
M  V30 34 1 18 33
M  V30 35 1 19 34
M  V30 36 1 19 35
M  V30 37 1 20 36
M  V30 38 1 20 37
M  V30 39 1 21 38
M  V30 40 1 21 39
M  V30 END BOND
M  V30 END CTAB
M  END
>  <Dataset>  (757) 
ChEMBL_Kinases

>  <Ligand_Instance>  (757) 
nan

>  <PDB_ID>  (757) 
nan

>  <Standardized_SMILES>  (757) 
O=C(c1ccc(COCC(F)(F)F)o1)N1CCCCCC1

>  <Name>  (757) 
nan

>  <Pocket>  (757) 
nan

>  <ATP_Site>  (757) 
nan

>  <Peripheral>  (757) 
nan

>  <Num_H_Atoms_ProtBoundConf>  (757) 
nan

>  <Num_Resolved_Atoms>  (757) 
nan

>  <Num_Not_Resolved_Atoms>  (757) 
nan

$$$$
CHEMBL1602532
     RDKit          3D

  0  0  0  0  0  0  0  0  0  0999 V3000
M  V30 BEGIN CTAB
M  V30 COUNTS 49 52 0 0 0
M  V30 BEGIN ATOM
M  V30 1 C -2.113365 -5.555619 2.737611 0
M  V30 2 C -1.431936 -5.181007 1.461635 0
M  V30 3 O -1.480829 -6.047347 0.561575 0
M  V30 4 O -0.839662 -3.935654 1.439072 0
M  V30 5 C -0.142770 -3.408617 0.304160 0
M  V30 6 C 1.242092 -3.025142 0.723530 0
M  V30 7 C 1.576049 -1.904592 -0.260532 0
M  V30 8 C 0.271583 -1.342812 -0.712565 0
M  V30 9 C 0.138625 0.156787 -0.526712 0
M  V30 10 C 1.080595 0.937340 -1.349689 0
M  V30 11 C 2.133510 1.679233 -0.565346 0
M  V30 12 C 1.477783 2.417232 0.565966 0
M  V30 13 C 1.833758 3.737658 0.855619 0
M  V30 14 C 1.259588 4.439112 1.875163 0
M  V30 15 O 1.654926 5.745891 2.113008 0
M  V30 16 C 0.297998 3.810707 2.635767 0
M  V30 17 C -0.053452 2.507974 2.350282 0
M  V30 18 C 0.502363 1.765622 1.330078 0
M  V30 19 C 0.192006 0.388985 0.959283 0
M  V30 20 C -1.121490 -0.100729 1.498397 0
M  V30 21 C -1.387199 -1.515927 1.183882 0
M  V30 22 C -0.830183 -2.095051 -0.053594 0
M  V30 23 C -1.880075 -2.448866 -1.096614 0
M  V30 24 H -1.568358 -6.373561 3.212238 0
M  V30 25 H -2.300822 -4.685665 3.396843 0
M  V30 26 H -3.127143 -5.941165 2.463971 0
M  V30 27 H -0.135996 -4.103818 -0.533952 0
M  V30 28 H 1.913976 -3.901891 0.606476 0
M  V30 29 H 1.331067 -2.705562 1.764982 0
M  V30 30 H 2.125946 -2.433939 -1.093018 0
M  V30 31 H 2.297473 -1.199839 0.151110 0
M  V30 32 H 0.216292 -1.486459 -1.830240 0
M  V30 33 H -0.896656 0.401312 -0.871283 0
M  V30 34 H 0.567338 1.702346 -1.990376 0
M  V30 35 H 1.587140 0.245231 -2.063353 0
M  V30 36 H 2.560291 2.460636 -1.228142 0
M  V30 37 H 2.984390 1.065539 -0.243513 0
M  V30 38 H 2.589484 4.191600 0.236878 0
M  V30 39 H 1.166937 6.257524 2.833748 0
M  V30 40 H -0.189746 4.333504 3.463461 0
M  V30 41 H -0.802851 2.012707 2.940129 0
M  V30 42 H 0.993757 -0.251647 1.401156 0
M  V30 43 H -1.903887 0.547887 1.005267 0
M  V30 44 H -1.272155 0.063204 2.575586 0
M  V30 45 H -2.510071 -1.621785 1.095951 0
M  V30 46 H -1.159147 -2.134660 2.092132 0
M  V30 47 H -2.270960 -1.500613 -1.514452 0
M  V30 48 H -2.661199 -3.132647 -0.709951 0
M  V30 49 H -1.322112 -2.940869 -1.946026 0
M  V30 END ATOM
M  V30 BEGIN BOND
M  V30 1 1 1 2
M  V30 2 2 2 3
M  V30 3 1 2 4
M  V30 4 1 4 5
M  V30 5 1 5 6
M  V30 6 1 6 7
M  V30 7 1 7 8
M  V30 8 1 8 9
M  V30 9 1 9 10
M  V30 10 1 10 11
M  V30 11 1 11 12
M  V30 12 2 12 13
M  V30 13 1 13 14
M  V30 14 1 14 15
M  V30 15 2 14 16
M  V30 16 1 16 17
M  V30 17 2 17 18
M  V30 18 1 18 19
M  V30 19 1 19 20
M  V30 20 1 20 21
M  V30 21 1 21 22
M  V30 22 1 22 23
M  V30 23 1 22 5
M  V30 24 1 22 8
M  V30 25 1 19 9
M  V30 26 1 18 12
M  V30 27 1 1 24
M  V30 28 1 1 25
M  V30 29 1 1 26
M  V30 30 1 5 27
M  V30 31 1 6 28
M  V30 32 1 6 29
M  V30 33 1 7 30
M  V30 34 1 7 31
M  V30 35 1 8 32
M  V30 36 1 9 33
M  V30 37 1 10 34
M  V30 38 1 10 35
M  V30 39 1 11 36
M  V30 40 1 11 37
M  V30 41 1 13 38
M  V30 42 1 15 39
M  V30 43 1 16 40
M  V30 44 1 17 41
M  V30 45 1 19 42
M  V30 46 1 20 43
M  V30 47 1 20 44
M  V30 48 1 21 45
M  V30 49 1 21 46
M  V30 50 1 23 47
M  V30 51 1 23 48
M  V30 52 1 23 49
M  V30 END BOND
M  V30 END CTAB
M  END
>  <Dataset>  (758) 
ChEMBL_Kinases

>  <Ligand_Instance>  (758) 
nan

>  <PDB_ID>  (758) 
nan

>  <Standardized_SMILES>  (758) 
CC(=O)OC1CCC2C3CCc4cc(O)ccc4C3CCC12C

>  <Name>  (758) 
nan

>  <Pocket>  (758) 
nan

>  <ATP_Site>  (758) 
nan

>  <Peripheral>  (758) 
nan

>  <Num_H_Atoms_ProtBoundConf>  (758) 
nan

>  <Num_Resolved_Atoms>  (758) 
nan

>  <Num_Not_Resolved_Atoms>  (758) 
nan

$$$$
CHEMBL1602443
     RDKit          3D

  0  0  0  0  0  0  0  0  0  0999 V3000
M  V30 BEGIN CTAB
M  V30 COUNTS 46 49 0 0 0
M  V30 BEGIN ATOM
M  V30 1 C -4.420621 -4.470566 -2.166438 0
M  V30 2 O -3.985347 -3.236498 -1.689033 0
M  V30 3 C -2.653947 -2.908704 -1.499665 0
M  V30 4 C -1.724276 -3.871322 -1.807614 0
M  V30 5 C -0.396750 -3.574960 -1.629478 0
M  V30 6 Br 0.891897 -4.897065 -2.053649 0
M  V30 7 C -0.055580 -2.330943 -1.152655 0
M  V30 8 C -0.942329 -1.312024 -0.822987 0
M  V30 9 C -0.437041 -0.073389 -0.298489 0
M  V30 10 N 0.791094 -0.079599 0.246440 0
M  V30 11 C 1.173014 1.126998 0.673303 0
M  V30 12 C 0.110024 1.946156 0.373787 0
M  V30 13 C 0.297845 3.261782 0.739589 0
M  V30 14 O -0.623781 4.070780 0.501830 0
M  V30 15 N 1.412896 3.725711 1.336890 0
M  V30 16 C 2.404602 2.830699 1.588037 0
M  V30 17 O 3.433472 3.281159 2.143860 0
M  V30 18 N 2.311033 1.533283 1.268468 0
M  V30 19 C 3.393664 0.587256 1.549382 0
M  V30 20 C 3.206162 -0.011049 2.907835 0
M  V30 21 C 3.722983 0.515925 4.069003 0
M  V30 22 C 3.525137 -0.068575 5.297693 0
M  V30 23 C 2.784816 -1.222122 5.377126 0
M  V30 24 C 2.235734 -1.804414 4.241505 0
M  V30 25 C 2.464158 -1.177992 3.034562 0
M  V30 26 N -0.828769 1.189986 -0.206430 0
M  V30 27 C -2.058392 1.712935 -0.698101 0
M  V30 28 C -2.237354 -1.693614 -1.029184 0
M  V30 29 O -3.290146 -0.846905 -0.762934 0
M  V30 30 H -3.893383 -5.255831 -1.554174 0
M  V30 31 H -4.177478 -4.550462 -3.239143 0
M  V30 32 H -5.510171 -4.628691 -2.059706 0
M  V30 33 H -1.999433 -4.845179 -2.182302 0
M  V30 34 H 1.028957 -2.206139 -1.051507 0
M  V30 35 H 1.517209 4.736912 1.600068 0
M  V30 36 H 4.388208 1.067616 1.442014 0
M  V30 37 H 3.339178 -0.243330 0.824430 0
M  V30 38 H 4.299337 1.420994 3.976563 0
M  V30 39 H 3.958577 0.393227 6.184793 0
M  V30 40 H 2.601099 -1.721607 6.328939 0
M  V30 41 H 1.656342 -2.714167 4.334065 0
M  V30 42 H 2.002642 -1.692304 2.188797 0
M  V30 43 H -2.921428 1.646156 -0.023053 0
M  V30 44 H -2.309019 1.341012 -1.724395 0
M  V30 45 H -1.951878 2.837028 -0.887011 0
M  V30 46 H -3.644661 -0.834632 0.196868 0
M  V30 END ATOM
M  V30 BEGIN BOND
M  V30 1 1 1 2
M  V30 2 1 2 3
M  V30 3 2 3 4
M  V30 4 1 4 5
M  V30 5 1 5 6
M  V30 6 2 5 7
M  V30 7 1 7 8
M  V30 8 1 8 9
M  V30 9 2 9 10
M  V30 10 1 10 11
M  V30 11 2 11 12
M  V30 12 1 12 13
M  V30 13 2 13 14
M  V30 14 1 13 15
M  V30 15 1 15 16
M  V30 16 2 16 17
M  V30 17 1 16 18
M  V30 18 1 18 19
M  V30 19 1 19 20
M  V30 20 2 20 21
M  V30 21 1 21 22
M  V30 22 2 22 23
M  V30 23 1 23 24
M  V30 24 2 24 25
M  V30 25 1 12 26
M  V30 26 1 26 27
M  V30 27 2 8 28
M  V30 28 1 28 29
M  V30 29 1 28 3
M  V30 30 1 26 9
M  V30 31 1 18 11
M  V30 32 1 25 20
M  V30 33 1 1 30
M  V30 34 1 1 31
M  V30 35 1 1 32
M  V30 36 1 4 33
M  V30 37 1 7 34
M  V30 38 1 15 35
M  V30 39 1 19 36
M  V30 40 1 19 37
M  V30 41 1 21 38
M  V30 42 1 22 39
M  V30 43 1 23 40
M  V30 44 1 24 41
M  V30 45 1 25 42
M  V30 46 1 27 43
M  V30 47 1 27 44
M  V30 48 1 27 45
M  V30 49 1 29 46
M  V30 END BOND
M  V30 END CTAB
M  END
>  <Dataset>  (759) 
ChEMBL_Kinases

>  <Ligand_Instance>  (759) 
nan

>  <PDB_ID>  (759) 
nan

>  <Standardized_SMILES>  (759) 
COc1cc(Br)cc(-c2nc3c(c(=O)[nH]c(=O)n3Cc3ccccc3)n2C)c1O

>  <Name>  (759) 
nan

>  <Pocket>  (759) 
nan

>  <ATP_Site>  (759) 
nan

>  <Peripheral>  (759) 
nan

>  <Num_H_Atoms_ProtBoundConf>  (759) 
nan

>  <Num_Resolved_Atoms>  (759) 
nan

>  <Num_Not_Resolved_Atoms>  (759) 
nan

$$$$
CHEMBL1602371
     RDKit          3D

  0  0  0  0  0  0  0  0  0  0999 V3000
M  V30 BEGIN CTAB
M  V30 COUNTS 56 59 0 0 0
M  V30 BEGIN ATOM
M  V30 1 O -0.152173 0.332871 4.154216 0
M  V30 2 C 0.255362 -0.729166 3.599668 0
M  V30 3 N 1.626752 -1.019084 3.740156 0
M  V30 4 C 2.635544 -0.270957 4.429481 0
M  V30 5 C 2.884564 1.101874 3.913992 0
M  V30 6 C 3.354317 1.216333 2.539665 0
M  V30 7 C 4.730826 1.298337 2.338808 0
M  V30 8 N 5.001668 1.354877 1.010467 0
M  V30 9 C 3.858796 1.314740 0.312997 0
M  V30 10 C 3.466090 1.344848 -1.025328 0
M  V30 11 C 2.154421 1.295453 -1.395182 0
M  V30 12 C 1.175687 1.212690 -0.407842 0
M  V30 13 C 1.563488 1.183119 0.899785 0
M  V30 14 C 2.875752 1.231644 1.257780 0
M  V30 15 C -0.688600 -1.551669 2.877065 0
M  V30 16 O -0.295518 -2.605492 2.338178 0
M  V30 17 N -2.034890 -1.195207 2.764706 0
M  V30 18 C -2.911381 -2.071319 2.022273 0
M  V30 19 C -2.505200 -2.258966 0.605844 0
M  V30 20 O -2.482171 -1.035704 -0.060598 0
M  V30 21 C -3.810866 -0.645165 -0.202866 0
M  V30 22 C -4.579513 -1.921511 -0.361548 0
M  V30 23 N -3.624404 -2.924649 -0.095043 0
M  V30 24 S -2.954565 -3.630639 -1.490573 0
M  V30 25 O -1.979333 -4.698257 -0.993715 0
M  V30 26 O -4.023424 -4.353259 -2.303374 0
M  V30 27 C -2.077293 -2.532984 -2.498959 0
M  V30 28 C -0.674320 -2.659244 -2.540871 0
M  V30 29 C 0.202680 -1.867281 -3.247897 0
M  V30 30 F 1.540711 -2.059658 -3.232073 0
M  V30 31 C -0.317218 -0.840198 -3.998789 0
M  V30 32 C -1.683209 -0.639418 -4.019412 0
M  V30 33 C -2.456463 -1.493576 -3.275146 0
M  V30 34 F -3.784804 -1.285291 -3.364021 0
M  V30 35 H 1.882018 -1.928639 3.244672 0
M  V30 36 H 3.620371 -0.823873 4.316702 0
M  V30 37 H 2.477103 -0.275478 5.538837 0
M  V30 38 H 1.900045 1.669571 3.973910 0
M  V30 39 H 3.533295 1.650155 4.646098 0
M  V30 40 H 5.575229 1.323378 3.019229 0
M  V30 41 H 5.928831 1.420641 0.514197 0
M  V30 42 H 4.236004 1.408616 -1.766642 0
M  V30 43 H 1.822967 1.316870 -2.431286 0
M  V30 44 H 0.117259 1.172994 -0.700791 0
M  V30 45 H 0.765920 1.135614 1.607587 0
M  V30 46 H -2.326093 -0.306949 3.230045 0
M  V30 47 H -3.006570 -3.056659 2.545482 0
M  V30 48 H -3.926397 -1.630025 2.050116 0
M  V30 49 H -1.632324 -2.886788 0.442788 0
M  V30 50 H -3.983100 0.008364 -1.071418 0
M  V30 51 H -4.177815 -0.125506 0.719042 0
M  V30 52 H -5.116930 -2.027028 -1.317218 0
M  V30 53 H -5.433894 -1.948454 0.401035 0
M  V30 54 H -0.158907 -3.451566 -1.972708 0
M  V30 55 H 0.336673 -0.197849 -4.565771 0
M  V30 56 H -2.101495 0.148657 -4.592905 0
M  V30 END ATOM
M  V30 BEGIN BOND
M  V30 1 2 1 2
M  V30 2 1 2 3
M  V30 3 1 3 4
M  V30 4 1 4 5
M  V30 5 1 5 6
M  V30 6 2 6 7
M  V30 7 1 7 8
M  V30 8 1 8 9
M  V30 9 2 9 10
M  V30 10 1 10 11
M  V30 11 2 11 12
M  V30 12 1 12 13
M  V30 13 2 13 14
M  V30 14 1 2 15
M  V30 15 2 15 16
M  V30 16 1 15 17
M  V30 17 1 17 18
M  V30 18 1 18 19
M  V30 19 1 19 20
M  V30 20 1 20 21
M  V30 21 1 21 22
M  V30 22 1 22 23
M  V30 23 1 23 24
M  V30 24 2 24 25
M  V30 25 2 24 26
M  V30 26 1 24 27
M  V30 27 2 27 28
M  V30 28 1 28 29
M  V30 29 1 29 30
M  V30 30 2 29 31
M  V30 31 1 31 32
M  V30 32 2 32 33
M  V30 33 1 33 34
M  V30 34 1 14 6
M  V30 35 1 23 19
M  V30 36 1 33 27
M  V30 37 1 14 9
M  V30 38 1 3 35
M  V30 39 1 4 36
M  V30 40 1 4 37
M  V30 41 1 5 38
M  V30 42 1 5 39
M  V30 43 1 7 40
M  V30 44 1 8 41
M  V30 45 1 10 42
M  V30 46 1 11 43
M  V30 47 1 12 44
M  V30 48 1 13 45
M  V30 49 1 17 46
M  V30 50 1 18 47
M  V30 51 1 18 48
M  V30 52 1 19 49
M  V30 53 1 21 50
M  V30 54 1 21 51
M  V30 55 1 22 52
M  V30 56 1 22 53
M  V30 57 1 28 54
M  V30 58 1 31 55
M  V30 59 1 32 56
M  V30 END BOND
M  V30 END CTAB
M  END
>  <Dataset>  (760) 
ChEMBL_Kinases

>  <Ligand_Instance>  (760) 
nan

>  <PDB_ID>  (760) 
nan

>  <Standardized_SMILES>  (760) 
O=C(NCCc1c[nH]c2ccccc12)C(=O)NCC1OCCN1S(=O)(=O)c1cc(F)ccc1F

>  <Name>  (760) 
nan

>  <Pocket>  (760) 
nan

>  <ATP_Site>  (760) 
nan

>  <Peripheral>  (760) 
nan

>  <Num_H_Atoms_ProtBoundConf>  (760) 
nan

>  <Num_Resolved_Atoms>  (760) 
nan

>  <Num_Not_Resolved_Atoms>  (760) 
nan

$$$$
CHEMBL1602194
     RDKit          3D

  0  0  0  0  0  0  0  0  0  0999 V3000
M  V30 BEGIN CTAB
M  V30 COUNTS 35 36 0 0 0
M  V30 BEGIN ATOM
M  V30 1 C 1.771257 1.153604 4.354947 0
M  V30 2 O 0.738220 0.213465 4.160586 0
M  V30 3 C 0.348003 -0.298844 2.939150 0
M  V30 4 O 1.161373 0.324968 2.240200 0
M  V30 5 C -0.723665 -1.268466 2.780736 0
M  V30 6 C -0.931096 -1.618481 1.486595 0
M  V30 7 C -0.405139 -1.255048 0.186597 0
M  V30 8 C 0.050209 -2.229480 -0.678430 0
M  V30 9 C 0.546239 -1.929318 -1.930518 0
M  V30 10 C 0.573184 -0.601036 -2.297147 0
M  V30 11 O 1.067999 -0.274554 -3.551864 0
M  V30 12 C 1.530861 -1.312487 -4.420184 0
M  V30 13 C 0.132621 0.425859 -1.480000 0
M  V30 14 O 0.201801 1.726549 -1.941160 0
M  V30 15 C -0.236937 2.800006 -1.138878 0
M  V30 16 C -0.357681 0.059957 -0.227093 0
M  V30 17 C -1.989546 -2.605277 1.407376 0
M  V30 18 S -2.531149 -2.886747 3.176609 0
M  V30 19 C -1.384311 -1.748333 3.828834 0
M  V30 20 N -1.224268 -1.431269 5.198454 0
M  V30 21 H 1.415969 2.193795 4.180538 0
M  V30 22 H 2.640305 0.963653 3.659638 0
M  V30 23 H 2.234103 1.044076 5.374369 0
M  V30 24 H 0.009986 -3.276038 -0.344374 0
M  V30 25 H 0.873708 -2.747975 -2.525709 0
M  V30 26 H 2.119814 -0.922023 -5.250693 0
M  V30 27 H 2.219374 -2.017890 -3.874206 0
M  V30 28 H 0.698512 -1.955893 -4.771507 0
M  V30 29 H 0.510945 3.111689 -0.371508 0
M  V30 30 H -1.203760 2.583478 -0.646815 0
M  V30 31 H -0.417510 3.684594 -1.811760 0
M  V30 32 H -0.695084 0.884558 0.365271 0
M  V30 33 H -2.444532 -3.138547 0.490887 0
M  V30 34 H -1.801232 -0.641490 5.569555 0
M  V30 35 H -0.604409 -1.882509 5.890794 0
M  V30 END ATOM
M  V30 BEGIN BOND
M  V30 1 1 1 2
M  V30 2 1 2 3
M  V30 3 2 3 4
M  V30 4 1 3 5
M  V30 5 1 5 6
M  V30 6 1 6 7
M  V30 7 2 7 8
M  V30 8 1 8 9
M  V30 9 2 9 10
M  V30 10 1 10 11
M  V30 11 1 11 12
M  V30 12 1 10 13
M  V30 13 1 13 14
M  V30 14 1 14 15
M  V30 15 2 13 16
M  V30 16 2 6 17
M  V30 17 1 17 18
M  V30 18 1 18 19
M  V30 19 1 19 20
M  V30 20 2 19 5
M  V30 21 1 16 7
M  V30 22 1 1 21
M  V30 23 1 1 22
M  V30 24 1 1 23
M  V30 25 1 8 24
M  V30 26 1 9 25
M  V30 27 1 12 26
M  V30 28 1 12 27
M  V30 29 1 12 28
M  V30 30 1 15 29
M  V30 31 1 15 30
M  V30 32 1 15 31
M  V30 33 1 16 32
M  V30 34 1 17 33
M  V30 35 1 20 34
M  V30 36 1 20 35
M  V30 END BOND
M  V30 END CTAB
M  END
>  <Dataset>  (761) 
ChEMBL_Kinases

>  <Ligand_Instance>  (761) 
nan

>  <PDB_ID>  (761) 
nan

>  <Standardized_SMILES>  (761) 
COC(=O)c1c(-c2ccc(OC)c(OC)c2)csc1N

>  <Name>  (761) 
nan

>  <Pocket>  (761) 
nan

>  <ATP_Site>  (761) 
nan

>  <Peripheral>  (761) 
nan

>  <Num_H_Atoms_ProtBoundConf>  (761) 
nan

>  <Num_Resolved_Atoms>  (761) 
nan

>  <Num_Not_Resolved_Atoms>  (761) 
nan

$$$$
CHEMBL1601920
     RDKit          3D

  0  0  0  0  0  0  0  0  0  0999 V3000
M  V30 BEGIN CTAB
M  V30 COUNTS 37 38 0 0 0
M  V30 BEGIN ATOM
M  V30 1 C -3.275649 -3.293756 -0.089118 0
M  V30 2 O -2.024503 -3.672712 0.422955 0
M  V30 3 C -1.017434 -2.728760 0.479557 0
M  V30 4 C -1.239071 -1.424265 0.036575 0
M  V30 5 C -0.263019 -0.442043 0.072263 0
M  V30 6 C 0.968765 -0.805437 0.573674 0
M  V30 7 C 1.223975 -2.081264 1.019334 0
M  V30 8 C 0.238990 -3.070278 0.982681 0
M  V30 9 O 0.401501 -4.377823 1.407417 0
M  V30 10 C 1.669362 -4.782468 1.932241 0
M  V30 11 C 1.996033 0.223309 0.613257 0
M  V30 12 C 3.194609 -0.069755 1.083537 0
M  V30 13 C 4.191414 0.991638 1.103978 0
M  V30 14 N 4.979608 1.840341 1.128295 0
M  V30 15 N 1.653703 1.513516 0.135991 0
M  V30 16 C 0.277732 1.909894 0.202067 0
M  V30 17 C -0.206360 2.106954 1.631191 0
M  V30 18 C 0.020669 3.211826 -0.538872 0
M  V30 19 C -0.642831 0.886526 -0.429265 0
M  V30 20 H -3.751580 -2.466936 0.503671 0
M  V30 21 H -4.006065 -4.138482 -0.043629 0
M  V30 22 H -3.242943 -2.944832 -1.128671 0
M  V30 23 H -2.223239 -1.208747 -0.342717 0
M  V30 24 H 2.144900 -2.419527 1.413151 0
M  V30 25 H 1.681385 -5.908354 1.845201 0
M  V30 26 H 2.512010 -4.426427 1.319574 0
M  V30 27 H 1.773229 -4.563259 3.001562 0
M  V30 28 H 3.515891 -1.026320 1.458950 0
M  V30 29 H 2.438841 2.120926 -0.246758 0
M  V30 30 H 0.048712 3.116106 2.015562 0
M  V30 31 H 0.159244 1.277832 2.264497 0
M  V30 32 H -1.321216 2.056387 1.609838 0
M  V30 33 H 0.928892 3.852900 -0.569883 0
M  V30 34 H -0.837597 3.745859 -0.096740 0
M  V30 35 H -0.219064 2.973875 -1.594022 0
M  V30 36 H -1.693961 1.151575 -0.203607 0
M  V30 37 H -0.457285 0.915559 -1.530766 0
M  V30 END ATOM
M  V30 BEGIN BOND
M  V30 1 1 1 2
M  V30 2 1 2 3
M  V30 3 2 3 4
M  V30 4 1 4 5
M  V30 5 2 5 6
M  V30 6 1 6 7
M  V30 7 2 7 8
M  V30 8 1 8 9
M  V30 9 1 9 10
M  V30 10 1 6 11
M  V30 11 2 11 12
M  V30 12 1 12 13
M  V30 13 3 13 14
M  V30 14 1 11 15
M  V30 15 1 15 16
M  V30 16 1 16 17
M  V30 17 1 16 18
M  V30 18 1 16 19
M  V30 19 1 8 3
M  V30 20 1 19 5
M  V30 21 1 1 20
M  V30 22 1 1 21
M  V30 23 1 1 22
M  V30 24 1 4 23
M  V30 25 1 7 24
M  V30 26 1 10 25
M  V30 27 1 10 26
M  V30 28 1 10 27
M  V30 29 1 12 28
M  V30 30 1 15 29
M  V30 31 1 17 30
M  V30 32 1 17 31
M  V30 33 1 17 32
M  V30 34 1 18 33
M  V30 35 1 18 34
M  V30 36 1 18 35
M  V30 37 1 19 36
M  V30 38 1 19 37
M  V30 END BOND
M  V30 END CTAB
M  END
>  <Dataset>  (762) 
ChEMBL_Kinases

>  <Ligand_Instance>  (762) 
nan

>  <PDB_ID>  (762) 
nan

>  <Standardized_SMILES>  (762) 
COc1cc2c(cc1OC)/C(=C/C#N)NC(C)(C)C2

>  <Name>  (762) 
nan

>  <Pocket>  (762) 
nan

>  <ATP_Site>  (762) 
nan

>  <Peripheral>  (762) 
nan

>  <Num_H_Atoms_ProtBoundConf>  (762) 
nan

>  <Num_Resolved_Atoms>  (762) 
nan

>  <Num_Not_Resolved_Atoms>  (762) 
nan

$$$$
CHEMBL1601908
     RDKit          3D

  0  0  0  0  0  0  0  0  0  0999 V3000
M  V30 BEGIN CTAB
M  V30 COUNTS 43 46 0 0 0
M  V30 BEGIN ATOM
M  V30 1 C -2.300437 -5.465782 1.472842 0
M  V30 2 N -1.641574 -5.872048 0.242584 0
M  V30 3 C -1.928381 -7.240266 -0.147676 0
M  V30 4 C -0.756368 -5.141743 -0.636214 0
M  V30 5 O -0.125959 -5.340331 -1.701884 0
M  V30 6 C -0.399419 -3.741532 -0.316464 0
M  V30 7 C -0.547151 -2.663128 -1.188458 0
M  V30 8 C -0.160548 -1.393551 -0.748927 0
M  V30 9 C 0.357031 -1.187524 0.512414 0
M  V30 10 C 0.753067 0.152085 0.937386 0
M  V30 11 N 0.664893 1.240469 0.154599 0
M  V30 12 C 1.032029 2.461300 0.556645 0
M  V30 13 N 0.920408 3.577921 -0.337222 0
M  V30 14 C 2.175430 4.020414 -0.649246 0
M  V30 15 C 2.067240 5.099131 -1.514726 0
M  V30 16 N 0.728917 5.280345 -1.704164 0
M  V30 17 C 0.059818 4.359568 -0.990792 0
M  V30 18 C 1.518373 2.571936 1.838813 0
M  V30 19 C 1.912025 3.804488 2.309669 0
M  V30 20 C 2.413324 3.983301 3.598378 0
M  V30 21 C 2.524709 2.898454 4.441931 0
M  V30 22 C 2.126942 1.670169 3.958250 0
M  V30 23 C 1.631307 1.494475 2.683525 0
M  V30 24 N 1.240534 0.322357 2.191414 0
M  V30 25 C 0.495955 -2.270478 1.364724 0
M  V30 26 C 0.119471 -3.539100 0.950643 0
M  V30 27 H -1.964688 -6.099174 2.311106 0
M  V30 28 H -2.093076 -4.408374 1.706401 0
M  V30 29 H -3.417906 -5.523062 1.385964 0
M  V30 30 H -3.018261 -7.391498 -0.038353 0
M  V30 31 H -1.616614 -7.428724 -1.199141 0
M  V30 32 H -1.444939 -7.971174 0.547642 0
M  V30 33 H -0.960390 -2.889584 -2.165221 0
M  V30 34 H -0.291437 -0.570611 -1.461385 0
M  V30 35 H 3.230572 3.786660 -0.426239 0
M  V30 36 H 2.755605 5.761227 -2.020434 0
M  V30 37 H -0.970584 4.060901 -0.785329 0
M  V30 38 H 1.847757 4.698280 1.692814 0
M  V30 39 H 2.717917 4.975543 3.945786 0
M  V30 40 H 2.912630 3.043597 5.437230 0
M  V30 41 H 2.208906 0.808390 4.610447 0
M  V30 42 H 0.906861 -2.041137 2.341551 0
M  V30 43 H 0.290973 -4.271572 1.727909 0
M  V30 END ATOM
M  V30 BEGIN BOND
M  V30 1 1 1 2
M  V30 2 1 2 3
M  V30 3 1 2 4
M  V30 4 2 4 5
M  V30 5 1 4 6
M  V30 6 2 6 7
M  V30 7 1 7 8
M  V30 8 2 8 9
M  V30 9 1 9 10
M  V30 10 2 10 11
M  V30 11 1 11 12
M  V30 12 1 12 13
M  V30 13 1 13 14
M  V30 14 2 14 15
M  V30 15 1 15 16
M  V30 16 2 16 17
M  V30 17 2 12 18
M  V30 18 1 18 19
M  V30 19 2 19 20
M  V30 20 1 20 21
M  V30 21 2 21 22
M  V30 22 1 22 23
M  V30 23 2 23 24
M  V30 24 1 9 25
M  V30 25 2 25 26
M  V30 26 1 26 6
M  V30 27 1 24 10
M  V30 28 1 17 13
M  V30 29 1 23 18
M  V30 30 1 1 27
M  V30 31 1 1 28
M  V30 32 1 1 29
M  V30 33 1 3 30
M  V30 34 1 3 31
M  V30 35 1 3 32
M  V30 36 1 7 33
M  V30 37 1 8 34
M  V30 38 1 14 35
M  V30 39 1 15 36
M  V30 40 1 17 37
M  V30 41 1 19 38
M  V30 42 1 20 39
M  V30 43 1 21 40
M  V30 44 1 22 41
M  V30 45 1 25 42
M  V30 46 1 26 43
M  V30 END BOND
M  V30 END CTAB
M  END
>  <Dataset>  (763) 
ChEMBL_Kinases

>  <Ligand_Instance>  (763) 
nan

>  <PDB_ID>  (763) 
nan

>  <Standardized_SMILES>  (763) 
CN(C)C(=O)c1ccc(-c2nc(-n3ccnc3)c3ccccc3n2)cc1

>  <Name>  (763) 
nan

>  <Pocket>  (763) 
nan

>  <ATP_Site>  (763) 
nan

>  <Peripheral>  (763) 
nan

>  <Num_H_Atoms_ProtBoundConf>  (763) 
nan

>  <Num_Resolved_Atoms>  (763) 
nan

>  <Num_Not_Resolved_Atoms>  (763) 
nan

$$$$
CHEMBL1601903
     RDKit          3D

  0  0  0  0  0  0  0  0  0  0999 V3000
M  V30 BEGIN CTAB
M  V30 COUNTS 53 57 0 0 0
M  V30 BEGIN ATOM
M  V30 1 C 3.017098 -4.621004 4.446231 0
M  V30 2 C 4.289082 -4.109750 3.823888 0
M  V30 3 C 4.305425 -2.594509 3.761806 0
M  V30 4 C 3.148713 -2.214956 2.896419 0
M  V30 5 N 2.323714 -1.158821 2.973395 0
M  V30 6 C 1.305120 -0.881827 2.151568 0
M  V30 7 S 0.422590 0.590334 2.582445 0
M  V30 8 C 1.112603 2.106316 1.882988 0
M  V30 9 C 0.890893 2.098726 0.415994 0
M  V30 10 O 1.360585 1.868973 -0.690758 0
M  V30 11 N -0.462990 2.558266 0.200792 0
M  V30 12 C -1.114784 2.708243 -1.084082 0
M  V30 13 C -1.916810 3.832203 -1.346717 0
M  V30 14 C -2.566738 3.995237 -2.549506 0
M  V30 15 C -2.445109 3.044394 -3.541831 0
M  V30 16 C -1.653050 1.911993 -3.311106 0
M  V30 17 C -1.010039 1.785134 -2.076155 0
M  V30 18 O -1.706592 1.122044 -4.470172 0
M  V30 19 C -2.955800 1.518582 -5.065757 0
M  V30 20 O -2.977884 2.941443 -4.838194 0
M  V30 21 N 1.025291 -1.696423 1.129254 0
M  V30 22 C -0.064173 -1.469230 0.209407 0
M  V30 23 C -1.349230 -2.073563 0.657005 0
M  V30 24 C -1.681230 -3.416932 0.508765 0
M  V30 25 C -2.879602 -3.947929 0.910894 0
M  V30 26 C -3.837222 -3.147336 1.497711 0
M  V30 27 C -3.559059 -1.803063 1.669497 0
M  V30 28 C -2.342941 -1.316464 1.250450 0
M  V30 29 C 1.815002 -2.786256 0.982771 0
M  V30 30 O 1.667581 -3.632634 0.070218 0
M  V30 31 C 2.854275 -3.049076 1.840240 0
M  V30 32 S 4.105096 -4.360602 2.003409 0
M  V30 33 H 2.219341 -3.863532 4.262869 0
M  V30 34 H 3.098031 -4.741300 5.544495 0
M  V30 35 H 2.667776 -5.557997 3.944033 0
M  V30 36 H 5.212337 -4.530046 4.207625 0
M  V30 37 H 5.285435 -2.317892 3.312405 0
M  V30 38 H 4.145258 -2.147522 4.751171 0
M  V30 39 H 2.225642 2.090293 2.090841 0
M  V30 40 H 0.665261 2.985346 2.391248 0
M  V30 41 H -1.179349 2.847601 0.939994 0
M  V30 42 H -1.999616 4.572990 -0.547812 0
M  V30 43 H -3.160157 4.886987 -2.666544 0
M  V30 44 H -0.403315 0.890778 -1.930968 0
M  V30 45 H -2.966879 1.340497 -6.155216 0
M  V30 46 H -3.815792 1.064311 -4.543447 0
M  V30 47 H -0.260367 -0.397550 0.116221 0
M  V30 48 H 0.142005 -1.947985 -0.778327 0
M  V30 49 H -0.995227 -4.113737 0.060372 0
M  V30 50 H -3.117601 -4.990042 0.789774 0
M  V30 51 H -4.803272 -3.479055 1.842538 0
M  V30 52 H -4.303618 -1.150889 2.131037 0
M  V30 53 H -2.189646 -0.256754 1.414424 0
M  V30 END ATOM
M  V30 BEGIN BOND
M  V30 1 1 1 2
M  V30 2 1 2 3
M  V30 3 1 3 4
M  V30 4 1 4 5
M  V30 5 2 5 6
M  V30 6 1 6 7
M  V30 7 1 7 8
M  V30 8 1 8 9
M  V30 9 2 9 10
M  V30 10 1 9 11
M  V30 11 1 11 12
M  V30 12 2 12 13
M  V30 13 1 13 14
M  V30 14 2 14 15
M  V30 15 1 15 16
M  V30 16 2 16 17
M  V30 17 1 16 18
M  V30 18 1 18 19
M  V30 19 1 19 20
M  V30 20 1 6 21
M  V30 21 1 21 22
M  V30 22 1 22 23
M  V30 23 2 23 24
M  V30 24 1 24 25
M  V30 25 2 25 26
M  V30 26 1 26 27
M  V30 27 2 27 28
M  V30 28 1 21 29
M  V30 29 2 29 30
M  V30 30 1 29 31
M  V30 31 1 31 32
M  V30 32 1 32 2
M  V30 33 2 31 4
M  V30 34 1 17 12
M  V30 35 1 28 23
M  V30 36 1 20 15
M  V30 37 1 1 33
M  V30 38 1 1 34
M  V30 39 1 1 35
M  V30 40 1 2 36
M  V30 41 1 3 37
M  V30 42 1 3 38
M  V30 43 1 8 39
M  V30 44 1 8 40
M  V30 45 1 11 41
M  V30 46 1 13 42
M  V30 47 1 14 43
M  V30 48 1 17 44
M  V30 49 1 19 45
M  V30 50 1 19 46
M  V30 51 1 22 47
M  V30 52 1 22 48
M  V30 53 1 24 49
M  V30 54 1 25 50
M  V30 55 1 26 51
M  V30 56 1 27 52
M  V30 57 1 28 53
M  V30 END BOND
M  V30 END CTAB
M  END
>  <Dataset>  (764) 
ChEMBL_Kinases

>  <Ligand_Instance>  (764) 
nan

>  <PDB_ID>  (764) 
nan

>  <Standardized_SMILES>  (764) 
CC1Cc2nc(SCC(=O)Nc3ccc4c(c3)OCO4)n(Cc3ccccc3)c(=O)c2S1

>  <Name>  (764) 
nan

>  <Pocket>  (764) 
nan

>  <ATP_Site>  (764) 
nan

>  <Peripheral>  (764) 
nan

>  <Num_H_Atoms_ProtBoundConf>  (764) 
nan

>  <Num_Resolved_Atoms>  (764) 
nan

>  <Num_Not_Resolved_Atoms>  (764) 
nan

$$$$
CHEMBL1601809
     RDKit          3D

  0  0  0  0  0  0  0  0  0  0999 V3000
M  V30 BEGIN CTAB
M  V30 COUNTS 51 54 0 0 0
M  V30 BEGIN ATOM
M  V30 1 C 1.691098 -3.176993 0.398971 0
M  V30 2 C 2.757492 -4.234643 0.596366 0
M  V30 3 C 2.993407 -4.495857 2.055301 0
M  V30 4 C 3.624176 -3.290532 2.674158 0
M  V30 5 N 4.635049 -2.651333 1.930016 0
M  V30 6 S 4.721917 -0.959288 2.018880 0
M  V30 7 O 4.909211 -0.486523 3.438714 0
M  V30 8 O 5.932183 -0.484458 1.258766 0
M  V30 9 C 3.263232 -0.198918 1.420613 0
M  V30 10 C 3.157545 0.164697 0.093192 0
M  V30 11 C 1.949349 0.758389 -0.276651 0
M  V30 12 C 0.880956 1.002332 0.564104 0
M  V30 13 C -0.324656 1.631411 0.036566 0
M  V30 14 O -0.299625 1.912655 -1.172365 0
M  V30 15 N -1.405790 1.869561 0.914909 0
M  V30 16 C -2.671784 2.459790 0.649851 0
M  V30 17 N -2.983535 3.748598 0.729053 0
M  V30 18 N -4.275394 3.865390 0.397769 0
M  V30 19 C -4.767908 2.651980 0.112422 0
M  V30 20 C -6.094754 2.208836 -0.299039 0
M  V30 21 C -6.281119 0.862567 -0.518203 0
M  V30 22 C -7.550769 0.442193 -0.909292 0
M  V30 23 C -8.558411 1.372094 -1.060593 0
M  V30 24 C -8.346215 2.721352 -0.834235 0
M  V30 25 N -7.103237 3.083500 -0.457591 0
M  V30 26 O -3.750183 1.838209 0.282330 0
M  V30 27 C 1.074394 0.606963 1.872598 0
M  V30 28 C 2.236942 0.013631 2.319950 0
M  V30 29 C 5.074765 -3.215262 0.718466 0
M  V30 30 C 4.025164 -3.875084 -0.101655 0
M  V30 31 H 1.468661 -2.586906 1.290062 0
M  V30 32 H 0.750040 -3.631405 0.016989 0
M  V30 33 H 2.080238 -2.469161 -0.390875 0
M  V30 34 H 2.329616 -5.194934 0.171482 0
M  V30 35 H 3.605761 -5.417023 2.173721 0
M  V30 36 H 1.979180 -4.645763 2.526511 0
M  V30 37 H 3.942924 -3.580197 3.709295 0
M  V30 38 H 2.779040 -2.559713 2.846396 0
M  V30 39 H 3.949345 0.005567 -0.621625 0
M  V30 40 H 1.907786 1.031757 -1.340336 0
M  V30 41 H -1.441304 1.639113 1.930850 0
M  V30 42 H -5.505073 0.116150 -0.405825 0
M  V30 43 H -7.690425 -0.618672 -1.080203 0
M  V30 44 H -9.539692 1.066153 -1.360009 0
M  V30 45 H -9.146412 3.447317 -0.956164 0
M  V30 46 H 0.273461 0.773506 2.572166 0
M  V30 47 H 2.303718 -0.267267 3.373526 0
M  V30 48 H 5.988114 -3.871381 0.853099 0
M  V30 49 H 5.464913 -2.357933 0.084650 0
M  V30 50 H 4.468772 -4.843101 -0.486673 0
M  V30 51 H 3.765543 -3.308070 -1.035748 0
M  V30 END ATOM
M  V30 BEGIN BOND
M  V30 1 1 1 2
M  V30 2 1 2 3
M  V30 3 1 3 4
M  V30 4 1 4 5
M  V30 5 1 5 6
M  V30 6 2 6 7
M  V30 7 2 6 8
M  V30 8 1 6 9
M  V30 9 2 9 10
M  V30 10 1 10 11
M  V30 11 2 11 12
M  V30 12 1 12 13
M  V30 13 2 13 14
M  V30 14 1 13 15
M  V30 15 1 15 16
M  V30 16 2 16 17
M  V30 17 1 17 18
M  V30 18 2 18 19
M  V30 19 1 19 20
M  V30 20 2 20 21
M  V30 21 1 21 22
M  V30 22 2 22 23
M  V30 23 1 23 24
M  V30 24 2 24 25
M  V30 25 1 19 26
M  V30 26 1 12 27
M  V30 27 2 27 28
M  V30 28 1 5 29
M  V30 29 1 29 30
M  V30 30 1 30 2
M  V30 31 1 28 9
M  V30 32 1 26 16
M  V30 33 1 25 20
M  V30 34 1 1 31
M  V30 35 1 1 32
M  V30 36 1 1 33
M  V30 37 1 2 34
M  V30 38 1 3 35
M  V30 39 1 3 36
M  V30 40 1 4 37
M  V30 41 1 4 38
M  V30 42 1 10 39
M  V30 43 1 11 40
M  V30 44 1 15 41
M  V30 45 1 21 42
M  V30 46 1 22 43
M  V30 47 1 23 44
M  V30 48 1 24 45
M  V30 49 1 27 46
M  V30 50 1 28 47
M  V30 51 1 29 48
M  V30 52 1 29 49
M  V30 53 1 30 50
M  V30 54 1 30 51
M  V30 END BOND
M  V30 END CTAB
M  END
>  <Dataset>  (765) 
ChEMBL_Kinases

>  <Ligand_Instance>  (765) 
nan

>  <PDB_ID>  (765) 
nan

>  <Standardized_SMILES>  (765) 
CC1CCN(S(=O)(=O)c2ccc(C(=O)Nc3nnc(-c4ccccn4)o3)cc2)CC1

>  <Name>  (765) 
nan

>  <Pocket>  (765) 
nan

>  <ATP_Site>  (765) 
nan

>  <Peripheral>  (765) 
nan

>  <Num_H_Atoms_ProtBoundConf>  (765) 
nan

>  <Num_Resolved_Atoms>  (765) 
nan

>  <Num_Not_Resolved_Atoms>  (765) 
nan

$$$$
CHEMBL1601760
     RDKit          3D

  0  0  0  0  0  0  0  0  0  0999 V3000
M  V30 BEGIN CTAB
M  V30 COUNTS 43 45 0 0 0
M  V30 BEGIN ATOM
M  V30 1 C -0.562911 -4.175219 0.210491 0
M  V30 2 C -0.519145 -2.825992 0.944281 0
M  V30 3 N -1.643535 -2.028999 0.515933 0
M  V30 4 C -1.558352 -1.192738 -0.561831 0
M  V30 5 C -0.323558 -0.992379 -1.405361 0
M  V30 6 O 0.389495 0.065191 -0.789272 0
M  V30 7 C 1.588635 0.577531 -1.224446 0
M  V30 8 C 2.281356 0.135381 -2.331670 0
M  V30 9 C 3.465157 0.767220 -2.614327 0
M  V30 10 C 3.973425 1.795380 -1.857835 0
M  V30 11 C 3.264565 2.223746 -0.752711 0
M  V30 12 C 3.776438 3.259847 0.008915 0
M  V30 13 C 3.077517 3.710223 1.130093 0
M  V30 14 C 1.876679 3.077519 1.426512 0
M  V30 15 N 1.403931 2.073242 0.668039 0
M  V30 16 C 2.054174 1.617447 -0.417611 0
M  V30 17 N -2.753019 -0.586033 -0.733102 0
M  V30 18 N -3.601968 -1.012330 0.208582 0
M  V30 19 C -2.908442 -1.886527 0.955246 0
M  V30 20 S -3.524814 -2.770520 2.379242 0
M  V30 21 C -3.237843 -1.732623 3.838249 0
M  V30 22 C -1.803007 -1.543010 4.118173 0
M  V30 23 O -1.165668 -0.565106 3.603078 0
M  V30 24 O -0.892945 -2.248299 4.886021 0
M  V30 25 C 0.467214 -1.855698 4.998407 0
M  V30 26 H -1.610280 -4.409936 -0.094627 0
M  V30 27 H 0.091761 -4.178007 -0.661792 0
M  V30 28 H -0.229567 -4.999345 0.873315 0
M  V30 29 H -0.639142 -3.095612 2.010139 0
M  V30 30 H 0.432008 -2.318598 0.758634 0
M  V30 31 H 0.321494 -1.880214 -1.367813 0
M  V30 32 H -0.608509 -0.774311 -2.445611 0
M  V30 33 H 1.852790 -0.686347 -2.915756 0
M  V30 34 H 3.966376 0.365829 -3.509667 0
M  V30 35 H 4.912542 2.240006 -2.148642 0
M  V30 36 H 4.711758 3.758594 -0.214578 0
M  V30 37 H 3.378141 4.504531 1.792005 0
M  V30 38 H 1.217277 3.313920 2.265580 0
M  V30 39 H -3.798150 -2.120099 4.717681 0
M  V30 40 H -3.667108 -0.706659 3.667928 0
M  V30 41 H 1.100773 -2.747366 5.181355 0
M  V30 42 H 0.651052 -1.108171 5.765868 0
M  V30 43 H 0.768371 -1.424849 4.011678 0
M  V30 END ATOM
M  V30 BEGIN BOND
M  V30 1 1 1 2
M  V30 2 1 2 3
M  V30 3 1 3 4
M  V30 4 1 4 5
M  V30 5 1 5 6
M  V30 6 1 6 7
M  V30 7 2 7 8
M  V30 8 1 8 9
M  V30 9 2 9 10
M  V30 10 1 10 11
M  V30 11 2 11 12
M  V30 12 1 12 13
M  V30 13 2 13 14
M  V30 14 1 14 15
M  V30 15 2 15 16
M  V30 16 2 4 17
M  V30 17 1 17 18
M  V30 18 2 18 19
M  V30 19 1 19 20
M  V30 20 1 20 21
M  V30 21 1 21 22
M  V30 22 2 22 23
M  V30 23 1 22 24
M  V30 24 1 24 25
M  V30 25 1 19 3
M  V30 26 1 16 7
M  V30 27 1 16 11
M  V30 28 1 1 26
M  V30 29 1 1 27
M  V30 30 1 1 28
M  V30 31 1 2 29
M  V30 32 1 2 30
M  V30 33 1 5 31
M  V30 34 1 5 32
M  V30 35 1 8 33
M  V30 36 1 9 34
M  V30 37 1 10 35
M  V30 38 1 12 36
M  V30 39 1 13 37
M  V30 40 1 14 38
M  V30 41 1 21 39
M  V30 42 1 21 40
M  V30 43 1 25 41
M  V30 44 1 25 42
M  V30 45 1 25 43
M  V30 END BOND
M  V30 END CTAB
M  END
>  <Dataset>  (766) 
ChEMBL_Kinases

>  <Ligand_Instance>  (766) 
nan

>  <PDB_ID>  (766) 
nan

>  <Standardized_SMILES>  (766) 
CCn1c(COc2cccc3cccnc23)nnc1SCC(=O)OC

>  <Name>  (766) 
nan

>  <Pocket>  (766) 
nan

>  <ATP_Site>  (766) 
nan

>  <Peripheral>  (766) 
nan

>  <Num_H_Atoms_ProtBoundConf>  (766) 
nan

>  <Num_Resolved_Atoms>  (766) 
nan

>  <Num_Not_Resolved_Atoms>  (766) 
nan

$$$$
CHEMBL1601690
     RDKit          3D

  0  0  0  0  0  0  0  0  0  0999 V3000
M  V30 BEGIN CTAB
M  V30 COUNTS 41 44 0 0 0
M  V30 BEGIN ATOM
M  V30 1 C 2.464673 -4.352947 3.341974 0
M  V30 2 C 2.114216 -3.344433 2.307375 0
M  V30 3 N 2.646471 -2.156998 2.320340 0
M  V30 4 N 2.145585 -1.439998 1.256251 0
M  V30 5 C 2.405700 -0.064597 0.808281 0
M  V30 6 N 2.121747 0.676451 0.013968 0
M  V30 7 C 2.535448 1.925685 -0.161094 0
M  V30 8 C 2.066560 2.770934 -1.256934 0
M  V30 9 C 1.160148 2.396558 -2.225356 0
M  V30 10 C 0.710144 3.178333 -3.260156 0
M  V30 11 C 1.201473 4.469839 -3.358612 0
M  V30 12 C 2.105013 4.912297 -2.432964 0
M  V30 13 C 2.508568 4.066668 -1.422198 0
M  V30 14 C 3.448918 2.381591 0.769735 0
M  V30 15 S 3.644275 0.889951 1.877943 0
M  V30 16 C 1.224287 -2.201262 0.491491 0
M  V30 17 O 0.570135 -1.896393 -0.537624 0
M  V30 18 C 1.162150 -3.522256 1.170051 0
M  V30 19 N -0.189566 -3.691303 1.708812 0
M  V30 20 N -0.925848 -2.682052 1.866294 0
M  V30 21 C -2.235398 -2.669999 2.366552 0
M  V30 22 C -2.673473 -3.225399 3.568351 0
M  V30 23 C -4.009941 -3.125952 3.918217 0
M  V30 24 C -4.911312 -2.496172 3.113834 0
M  V30 25 C -4.498228 -1.933769 1.908926 0
M  V30 26 C -3.162948 -2.037947 1.568301 0
M  V30 27 H 3.151844 -5.129655 2.948627 0
M  V30 28 H 2.855259 -3.899121 4.256061 0
M  V30 29 H 1.530729 -4.906944 3.622292 0
M  V30 30 H 0.758268 1.372658 -2.163371 0
M  V30 31 H -0.013653 2.786786 -3.980653 0
M  V30 32 H 0.834005 5.060975 -4.176547 0
M  V30 33 H 2.477389 5.922504 -2.525593 0
M  V30 34 H 3.221246 4.501915 -0.741494 0
M  V30 35 H 3.928107 3.409577 0.806971 0
M  V30 36 H 1.456580 -4.319854 0.482595 0
M  V30 37 H -1.882151 -3.703732 4.136592 0
M  V30 38 H -4.281242 -3.582315 4.870031 0
M  V30 39 H -5.964834 -2.424629 3.402612 0
M  V30 40 H -5.229412 -1.438104 1.284363 0
M  V30 41 H -2.918099 -1.572939 0.610836 0
M  V30 END ATOM
M  V30 BEGIN BOND
M  V30 1 1 1 2
M  V30 2 2 2 3
M  V30 3 1 3 4
M  V30 4 1 4 5
M  V30 5 2 5 6
M  V30 6 1 6 7
M  V30 7 1 7 8
M  V30 8 2 8 9
M  V30 9 1 9 10
M  V30 10 2 10 11
M  V30 11 1 11 12
M  V30 12 2 12 13
M  V30 13 2 7 14
M  V30 14 1 14 15
M  V30 15 1 4 16
M  V30 16 2 16 17
M  V30 17 1 16 18
M  V30 18 1 18 19
M  V30 19 2 19 20 CFG=2
M  V30 20 1 20 21
M  V30 21 2 21 22
M  V30 22 1 22 23
M  V30 23 2 23 24
M  V30 24 1 24 25
M  V30 25 2 25 26
M  V30 26 1 18 2
M  V30 27 1 26 21
M  V30 28 1 15 5
M  V30 29 1 13 8
M  V30 30 1 1 27
M  V30 31 1 1 28
M  V30 32 1 1 29
M  V30 33 1 9 30
M  V30 34 1 10 31
M  V30 35 1 11 32
M  V30 36 1 12 33
M  V30 37 1 13 34
M  V30 38 1 14 35
M  V30 39 1 18 36
M  V30 40 1 22 37
M  V30 41 1 23 38
M  V30 42 1 24 39
M  V30 43 1 25 40
M  V30 44 1 26 41
M  V30 END BOND
M  V30 END CTAB
M  END
>  <Dataset>  (767) 
ChEMBL_Kinases

>  <Ligand_Instance>  (767) 
nan

>  <PDB_ID>  (767) 
nan

>  <Standardized_SMILES>  (767) 
CC1=NN(c2nc(-c3ccccc3)cs2)C(=O)C1N=Nc1ccccc1

>  <Name>  (767) 
nan

>  <Pocket>  (767) 
nan

>  <ATP_Site>  (767) 
nan

>  <Peripheral>  (767) 
nan

>  <Num_H_Atoms_ProtBoundConf>  (767) 
nan

>  <Num_Resolved_Atoms>  (767) 
nan

>  <Num_Not_Resolved_Atoms>  (767) 
nan

$$$$
CHEMBL1601496
     RDKit          3D

  0  0  0  0  0  0  0  0  0  0999 V3000
M  V30 BEGIN CTAB
M  V30 COUNTS 46 47 0 0 0
M  V30 BEGIN ATOM
M  V30 1 C 3.672134 -3.600098 1.414082 0
M  V30 2 O 3.222145 -2.284147 1.271793 0
M  V30 3 C 2.988664 -1.641917 0.076942 0
M  V30 4 C 3.177362 -2.240327 -1.151165 0
M  V30 5 C 2.912745 -1.504537 -2.286523 0
M  V30 6 C 3.105803 -2.118438 -3.590357 0
M  V30 7 O 2.908330 -1.579233 -4.710422 0
M  V30 8 C 2.467876 -0.198909 -2.298042 0
M  V30 9 C 2.284373 0.385310 -1.040594 0
M  V30 10 C 2.544537 -0.336798 0.111435 0
M  V30 11 O 2.349239 0.281756 1.360436 0
M  V30 12 C 1.898906 1.606939 1.446760 0
M  V30 13 C 1.729921 2.152684 2.811908 0
M  V30 14 O 0.927554 1.627954 3.709721 0
M  V30 15 C -0.374315 1.427263 3.685910 0
M  V30 16 C -0.891970 0.452808 2.660160 0
M  V30 17 O -2.307780 0.333873 2.755647 0
M  V30 18 C -3.025113 -0.514163 1.906505 0
M  V30 19 C -3.526791 -0.086257 0.694341 0
M  V30 20 C -3.309683 1.317939 0.256443 0
M  V30 21 C -4.225076 -0.994730 -0.082024 0
M  V30 22 C -4.390356 -2.288854 0.387700 0
M  V30 23 Cl -5.263703 -3.484251 -0.547488 0
M  V30 24 C -3.878954 -2.708935 1.613603 0
M  V30 25 C -3.180930 -1.807676 2.393838 0
M  V30 26 Cl -2.529654 -2.316680 3.939308 0
M  V30 27 H 3.291631 -4.201128 0.567347 0
M  V30 28 H 4.782936 -3.661345 1.540707 0
M  V30 29 H 3.206979 -4.019500 2.335687 0
M  V30 30 H 3.518775 -3.245130 -1.220379 0
M  V30 31 H 3.439698 -3.107491 -3.835287 0
M  V30 32 H 2.274895 0.334404 -3.216860 0
M  V30 33 H 1.935541 1.409767 -1.030675 0
M  V30 34 H 1.101683 1.901630 0.765410 0
M  V30 35 H 2.799010 2.208002 1.020890 0
M  V30 36 H 1.550339 3.267498 2.675824 0
M  V30 37 H 2.788052 2.166978 3.263636 0
M  V30 38 H -1.009052 2.359297 3.613160 0
M  V30 39 H -0.680232 1.042099 4.722829 0
M  V30 40 H -0.507440 -0.570972 2.940546 0
M  V30 41 H -0.563817 0.694178 1.662797 0
M  V30 42 H -2.504240 1.267437 -0.527953 0
M  V30 43 H -4.209693 1.709460 -0.246057 0
M  V30 44 H -2.981461 1.917213 1.113683 0
M  V30 45 H -4.632556 -0.687590 -1.042103 0
M  V30 46 H -3.998014 -3.711850 1.994784 0
M  V30 END ATOM
M  V30 BEGIN BOND
M  V30 1 1 1 2
M  V30 2 1 2 3
M  V30 3 2 3 4
M  V30 4 1 4 5
M  V30 5 1 5 6
M  V30 6 2 6 7
M  V30 7 2 5 8
M  V30 8 1 8 9
M  V30 9 2 9 10
M  V30 10 1 10 11
M  V30 11 1 11 12
M  V30 12 1 12 13
M  V30 13 1 13 14
M  V30 14 1 14 15
M  V30 15 1 15 16
M  V30 16 1 16 17
M  V30 17 1 17 18
M  V30 18 2 18 19
M  V30 19 1 19 20
M  V30 20 1 19 21
M  V30 21 2 21 22
M  V30 22 1 22 23
M  V30 23 1 22 24
M  V30 24 2 24 25
M  V30 25 1 25 26
M  V30 26 1 10 3
M  V30 27 1 25 18
M  V30 28 1 1 27
M  V30 29 1 1 28
M  V30 30 1 1 29
M  V30 31 1 4 30
M  V30 32 1 6 31
M  V30 33 1 8 32
M  V30 34 1 9 33
M  V30 35 1 12 34
M  V30 36 1 12 35
M  V30 37 1 13 36
M  V30 38 1 13 37
M  V30 39 1 15 38
M  V30 40 1 15 39
M  V30 41 1 16 40
M  V30 42 1 16 41
M  V30 43 1 20 42
M  V30 44 1 20 43
M  V30 45 1 20 44
M  V30 46 1 21 45
M  V30 47 1 24 46
M  V30 END BOND
M  V30 END CTAB
M  END
>  <Dataset>  (768) 
ChEMBL_Kinases

>  <Ligand_Instance>  (768) 
nan

>  <PDB_ID>  (768) 
nan

>  <Standardized_SMILES>  (768) 
COc1cc(C=O)ccc1OCCOCCOc1c(C)cc(Cl)cc1Cl

>  <Name>  (768) 
nan

>  <Pocket>  (768) 
nan

>  <ATP_Site>  (768) 
nan

>  <Peripheral>  (768) 
nan

>  <Num_H_Atoms_ProtBoundConf>  (768) 
nan

>  <Num_Resolved_Atoms>  (768) 
nan

>  <Num_Not_Resolved_Atoms>  (768) 
nan

$$$$
CHEMBL1601477
     RDKit          3D

  0  0  0  0  0  0  0  0  0  0999 V3000
M  V30 BEGIN CTAB
M  V30 COUNTS 49 51 0 0 0
M  V30 BEGIN ATOM
M  V30 1 C 2.184684 -3.368267 4.724264 0
M  V30 2 C 3.348251 -3.020624 3.845479 0
M  V30 3 O 3.940773 -3.976511 3.312527 0
M  V30 4 N 3.761119 -1.688195 3.624930 0
M  V30 5 C 4.871128 -1.281449 2.791938 0
M  V30 6 C 4.639084 -1.742368 1.378081 0
M  V30 7 N 3.418756 -1.149194 0.893182 0
M  V30 8 C 3.264761 0.254248 0.730440 0
M  V30 9 N 4.233140 1.144959 0.997613 0
M  V30 10 C 4.148059 2.464010 0.857907 0
M  V30 11 N 3.014183 3.012399 0.412683 0
M  V30 12 C 1.957626 2.222516 0.106026 0
M  V30 13 C 0.771226 2.754978 -0.356291 0
M  V30 14 C -0.316096 1.965365 -0.673744 0
M  V30 15 C -0.177532 0.601148 -0.511471 0
M  V30 16 C -1.329778 -0.235283 -0.847472 0
M  V30 17 C -1.267087 -1.523925 -1.336451 0
M  V30 18 C -2.396697 -2.257521 -1.632454 0
M  V30 19 C -3.632188 -1.684489 -1.433268 0
M  V30 20 C -3.801909 -0.405608 -0.949573 0
M  V30 21 N -5.023773 0.270668 -0.711181 0
M  V30 22 S -6.431673 -0.303268 0.060414 0
M  V30 23 C -7.061877 -1.680433 -0.869161 0
M  V30 24 O -7.475046 0.774272 0.129364 0
M  V30 25 O -6.167494 -0.759128 1.469867 0
M  V30 26 C -2.604284 0.265873 -0.676212 0
M  V30 27 C 1.017959 0.092005 -0.047871 0
M  V30 28 C 2.113796 0.863141 0.274156 0
M  V30 29 H 2.218261 -2.681171 5.599869 0
M  V30 30 H 1.235485 -3.255574 4.146587 0
M  V30 31 H 2.278828 -4.392694 5.112647 0
M  V30 32 H 3.167044 -0.974381 4.141175 0
M  V30 33 H 5.840680 -1.663232 3.193925 0
M  V30 34 H 4.916212 -0.179674 2.797280 0
M  V30 35 H 5.503891 -1.506785 0.716240 0
M  V30 36 H 4.571216 -2.847119 1.372045 0
M  V30 37 H 2.658203 -1.821926 0.670790 0
M  V30 38 H 5.045143 3.035997 1.126487 0
M  V30 39 H 0.741733 3.845325 -0.457405 0
M  V30 40 H -1.196383 2.484701 -1.027180 0
M  V30 41 H -0.263949 -1.930969 -1.475927 0
M  V30 42 H -2.319077 -3.265462 -2.014486 0
M  V30 43 H -4.535363 -2.231985 -1.655756 0
M  V30 44 H -5.013148 1.262217 -1.080448 0
M  V30 45 H -6.584655 -2.596312 -0.477778 0
M  V30 46 H -6.817437 -1.575260 -1.946574 0
M  V30 47 H -8.174200 -1.731786 -0.809884 0
M  V30 48 H -2.684832 1.292405 -0.287178 0
M  V30 49 H 1.006135 -0.983086 0.037451 0
M  V30 END ATOM
M  V30 BEGIN BOND
M  V30 1 1 1 2
M  V30 2 2 2 3
M  V30 3 1 2 4
M  V30 4 1 4 5
M  V30 5 1 5 6
M  V30 6 1 6 7
M  V30 7 1 7 8
M  V30 8 2 8 9
M  V30 9 1 9 10
M  V30 10 2 10 11
M  V30 11 1 11 12
M  V30 12 2 12 13
M  V30 13 1 13 14
M  V30 14 2 14 15
M  V30 15 1 15 16
M  V30 16 2 16 17
M  V30 17 1 17 18
M  V30 18 2 18 19
M  V30 19 1 19 20
M  V30 20 1 20 21
M  V30 21 1 21 22
M  V30 22 1 22 23
M  V30 23 2 22 24
M  V30 24 2 22 25
M  V30 25 2 20 26
M  V30 26 1 15 27
M  V30 27 2 27 28
M  V30 28 1 28 8
M  V30 29 1 28 12
M  V30 30 1 26 16
M  V30 31 1 1 29
M  V30 32 1 1 30
M  V30 33 1 1 31
M  V30 34 1 4 32
M  V30 35 1 5 33
M  V30 36 1 5 34
M  V30 37 1 6 35
M  V30 38 1 6 36
M  V30 39 1 7 37
M  V30 40 1 10 38
M  V30 41 1 13 39
M  V30 42 1 14 40
M  V30 43 1 17 41
M  V30 44 1 18 42
M  V30 45 1 19 43
M  V30 46 1 21 44
M  V30 47 1 23 45
M  V30 48 1 23 46
M  V30 49 1 23 47
M  V30 50 1 26 48
M  V30 51 1 27 49
M  V30 END BOND
M  V30 END CTAB
M  END
>  <Dataset>  (769) 
ChEMBL_Kinases

>  <Ligand_Instance>  (769) 
nan

>  <PDB_ID>  (769) 
nan

>  <Standardized_SMILES>  (769) 
CC(=O)NCCNc1ncnc2ccc(-c3cccc(NS(C)(=O)=O)c3)cc12

>  <Name>  (769) 
nan

>  <Pocket>  (769) 
nan

>  <ATP_Site>  (769) 
nan

>  <Peripheral>  (769) 
nan

>  <Num_H_Atoms_ProtBoundConf>  (769) 
nan

>  <Num_Resolved_Atoms>  (769) 
nan

>  <Num_Not_Resolved_Atoms>  (769) 
nan

$$$$
CHEMBL1569566
     RDKit          3D

  0  0  0  0  0  0  0  0  0  0999 V3000
M  V30 BEGIN CTAB
M  V30 COUNTS 46 50 0 0 0
M  V30 BEGIN ATOM
M  V30 1 O 0.816002 -4.385458 -2.219212 0
M  V30 2 C 0.460323 -3.371507 -1.578630 0
M  V30 3 C 1.316370 -2.169173 -1.492973 0
M  V30 4 C 2.530299 -2.218452 -2.155080 0
M  V30 5 C 3.354097 -1.114829 -2.096508 0
M  V30 6 C 2.954645 0.004792 -1.385783 0
M  V30 7 C 1.745982 0.063135 -0.722402 0
M  V30 8 S 1.149806 1.451373 0.212076 0
M  V30 9 C 2.325788 2.798382 0.193854 0
M  V30 10 C 3.296224 2.881346 1.165957 0
M  V30 11 C 4.194086 3.948350 1.115046 0
M  V30 12 C 4.041447 4.850486 0.083859 0
M  V30 13 C 3.071031 4.769028 -0.889673 0
M  V30 14 C 2.168617 3.706758 -0.848236 0
M  V30 15 C 0.915243 -1.036538 -0.775545 0
M  V30 16 C -0.384191 -1.060217 -0.100854 0
M  V30 17 O -0.751238 -0.046144 0.544460 0
M  V30 18 C -1.192586 -2.267087 -0.213262 0
M  V30 19 C -2.397034 -2.197391 0.449272 0
M  V30 20 S -3.069285 -0.849691 1.406761 0
M  V30 21 C -2.652678 -1.016843 3.135358 0
M  V30 22 C -1.586900 -0.557781 3.877525 0
M  V30 23 C -1.511000 -0.839668 5.222948 0
M  V30 24 C -2.469697 -1.576136 5.885056 0
M  V30 25 C -3.543907 -2.043629 5.157122 0
M  V30 26 C -3.639918 -1.768000 3.787634 0
M  V30 27 C -3.244938 -3.298539 0.399264 0
M  V30 28 C -2.881673 -4.439225 -0.302544 0
M  V30 29 C -1.668391 -4.503485 -0.966496 0
M  V30 30 C -0.839119 -3.402918 -0.907315 0
M  V30 31 H 2.825542 -3.104263 -2.706425 0
M  V30 32 H 4.319600 -1.090036 -2.594529 0
M  V30 33 H 3.557584 0.905288 -1.301486 0
M  V30 34 H 3.361118 2.135473 1.952106 0
M  V30 35 H 4.961082 4.028976 1.868913 0
M  V30 36 H 4.727759 5.702666 0.009856 0
M  V30 37 H 2.975017 5.494579 -1.690037 0
M  V30 38 H 1.398998 3.615248 -1.594498 0
M  V30 39 H -0.907825 0.002260 3.258179 0
M  V30 40 H -0.612089 -0.410009 5.674069 0
M  V30 41 H -2.300037 -1.732032 6.943996 0
M  V30 42 H -4.266229 -2.613798 5.718916 0
M  V30 43 H -4.550506 -2.213466 3.372695 0
M  V30 44 H -4.211499 -3.372280 0.872203 0
M  V30 45 H -3.530648 -5.324120 -0.359728 0
M  V30 46 H -1.366976 -5.381895 -1.518005 0
M  V30 END ATOM
M  V30 BEGIN BOND
M  V30 1 2 1 2
M  V30 2 1 2 3
M  V30 3 2 3 4
M  V30 4 1 4 5
M  V30 5 2 5 6
M  V30 6 1 6 7
M  V30 7 1 7 8
M  V30 8 1 8 9
M  V30 9 2 9 10
M  V30 10 1 10 11
M  V30 11 2 11 12
M  V30 12 1 12 13
M  V30 13 2 13 14
M  V30 14 2 7 15
M  V30 15 1 15 16
M  V30 16 2 16 17
M  V30 17 1 16 18
M  V30 18 2 18 19
M  V30 19 1 19 20
M  V30 20 1 20 21
M  V30 21 2 21 22
M  V30 22 1 22 23
M  V30 23 2 23 24
M  V30 24 1 24 25
M  V30 25 2 25 26
M  V30 26 1 19 27
M  V30 27 2 27 28
M  V30 28 1 28 29
M  V30 29 2 29 30
M  V30 30 1 30 2
M  V30 31 1 15 3
M  V30 32 1 30 18
M  V30 33 1 14 9
M  V30 34 1 26 21
M  V30 35 1 4 31
M  V30 36 1 5 32
M  V30 37 1 6 33
M  V30 38 1 10 34
M  V30 39 1 11 35
M  V30 40 1 12 36
M  V30 41 1 13 37
M  V30 42 1 14 38
M  V30 43 1 22 39
M  V30 44 1 23 40
M  V30 45 1 24 41
M  V30 46 1 25 42
M  V30 47 1 26 43
M  V30 48 1 27 44
M  V30 49 1 28 45
M  V30 50 1 29 46
M  V30 END BOND
M  V30 END CTAB
M  END
>  <Dataset>  (770) 
ChEMBL_Kinases

>  <Ligand_Instance>  (770) 
nan

>  <PDB_ID>  (770) 
nan

>  <Standardized_SMILES>  (770) 
O=C1c2cccc(Sc3ccccc3)c2C(=O)c2c(Sc3ccccc3)cccc21

>  <Name>  (770) 
nan

>  <Pocket>  (770) 
nan

>  <ATP_Site>  (770) 
nan

>  <Peripheral>  (770) 
nan

>  <Num_H_Atoms_ProtBoundConf>  (770) 
nan

>  <Num_Resolved_Atoms>  (770) 
nan

>  <Num_Not_Resolved_Atoms>  (770) 
nan

$$$$
CHEMBL1601200
     RDKit          3D

  0  0  0  0  0  0  0  0  0  0999 V3000
M  V30 BEGIN CTAB
M  V30 COUNTS 49 51 0 0 0
M  V30 BEGIN ATOM
M  V30 1 O -1.862668 -2.898852 -0.272325 0
M  V30 2 C -1.575044 -3.115715 0.939157 0
M  V30 3 C -0.397822 -2.539397 1.679700 0
M  V30 4 N 0.312967 -1.719964 0.777521 0
M  V30 5 C -0.304941 -0.524313 0.347956 0
M  V30 6 C 0.023108 0.679988 1.177173 0
M  V30 7 C 1.471074 0.773662 1.516643 0
M  V30 8 N 2.366113 0.549107 0.439986 0
M  V30 9 S 2.483797 1.793914 -0.707758 0
M  V30 10 O 3.533431 1.364445 -1.711620 0
M  V30 11 O 1.233366 2.005810 -1.496788 0
M  V30 12 C 3.066079 3.286619 -0.007050 0
M  V30 13 C 4.369388 3.689435 0.087204 0
M  V30 14 C 4.648421 4.910610 0.679505 0
M  V30 15 C 3.659080 5.738492 1.179179 0
M  V30 16 F 3.973014 6.941462 1.759184 0
M  V30 17 C 2.345745 5.315764 1.075673 0
M  V30 18 C 2.030016 4.087687 0.482833 0
M  V30 19 C 2.376896 -0.769212 -0.100161 0
M  V30 20 C 1.724093 -1.792746 0.769511 0
M  V30 21 N -2.436288 -3.979622 1.671802 0
M  V30 22 C -3.593421 -4.616325 1.140953 0
M  V30 23 C -4.839921 -4.030853 1.175627 0
M  V30 24 C -6.009993 -4.576324 0.688462 0
M  V30 25 C -5.905739 -5.845087 0.106671 0
M  V30 26 C -4.669532 -6.456174 0.057701 0
M  V30 27 C -3.520890 -5.880884 0.554880 0
M  V30 28 Br -1.821357 -6.735121 0.484333 0
M  V30 29 H -0.868067 -1.974241 2.528580 0
M  V30 30 H 0.206614 -3.326840 2.133469 0
M  V30 31 H -0.021635 -0.305346 -0.702926 0
M  V30 32 H -1.401092 -0.687170 0.323446 0
M  V30 33 H -0.573970 0.732432 2.110622 0
M  V30 34 H -0.327626 1.565461 0.568257 0
M  V30 35 H 1.683649 0.054963 2.333546 0
M  V30 36 H 1.649740 1.779542 1.926682 0
M  V30 37 H 5.097867 3.017094 -0.313573 0
M  V30 38 H 5.680609 5.209262 0.743008 0
M  V30 39 H 1.612565 6.009333 1.487037 0
M  V30 40 H 0.972399 3.855221 0.452725 0
M  V30 41 H 3.463462 -1.067334 -0.158093 0
M  V30 42 H 2.006018 -0.867619 -1.140616 0
M  V30 43 H 2.217797 -1.832219 1.773145 0
M  V30 44 H 1.994360 -2.793415 0.314697 0
M  V30 45 H -2.298746 -4.230335 2.679869 0
M  V30 46 H -4.856288 -3.051892 1.638172 0
M  V30 47 H -6.959977 -4.061030 0.747206 0
M  V30 48 H -6.773197 -6.343728 -0.298525 0
M  V30 49 H -4.590556 -7.445997 -0.397079 0
M  V30 END ATOM
M  V30 BEGIN BOND
M  V30 1 2 1 2
M  V30 2 1 2 3
M  V30 3 1 3 4
M  V30 4 1 4 5
M  V30 5 1 5 6
M  V30 6 1 6 7
M  V30 7 1 7 8
M  V30 8 1 8 9
M  V30 9 2 9 10
M  V30 10 2 9 11
M  V30 11 1 9 12
M  V30 12 2 12 13
M  V30 13 1 13 14
M  V30 14 2 14 15
M  V30 15 1 15 16
M  V30 16 1 15 17
M  V30 17 2 17 18
M  V30 18 1 8 19
M  V30 19 1 19 20
M  V30 20 1 2 21
M  V30 21 1 21 22
M  V30 22 2 22 23
M  V30 23 1 23 24
M  V30 24 2 24 25
M  V30 25 1 25 26
M  V30 26 2 26 27
M  V30 27 1 27 28
M  V30 28 1 20 4
M  V30 29 1 27 22
M  V30 30 1 18 12
M  V30 31 1 3 29
M  V30 32 1 3 30
M  V30 33 1 5 31
M  V30 34 1 5 32
M  V30 35 1 6 33
M  V30 36 1 6 34
M  V30 37 1 7 35
M  V30 38 1 7 36
M  V30 39 1 13 37
M  V30 40 1 14 38
M  V30 41 1 17 39
M  V30 42 1 18 40
M  V30 43 1 19 41
M  V30 44 1 19 42
M  V30 45 1 20 43
M  V30 46 1 20 44
M  V30 47 1 21 45
M  V30 48 1 23 46
M  V30 49 1 24 47
M  V30 50 1 25 48
M  V30 51 1 26 49
M  V30 END BOND
M  V30 END CTAB
M  END
>  <Dataset>  (771) 
ChEMBL_Kinases

>  <Ligand_Instance>  (771) 
nan

>  <PDB_ID>  (771) 
nan

>  <Standardized_SMILES>  (771) 
O=C(CN1CCCN(S(=O)(=O)c2ccc(F)cc2)CC1)Nc1ccccc1Br

>  <Name>  (771) 
nan

>  <Pocket>  (771) 
nan

>  <ATP_Site>  (771) 
nan

>  <Peripheral>  (771) 
nan

>  <Num_H_Atoms_ProtBoundConf>  (771) 
nan

>  <Num_Resolved_Atoms>  (771) 
nan

>  <Num_Not_Resolved_Atoms>  (771) 
nan

$$$$
CHEMBL1601176
     RDKit          3D

  0  0  0  0  0  0  0  0  0  0999 V3000
M  V30 BEGIN CTAB
M  V30 COUNTS 48 50 0 0 0
M  V30 BEGIN ATOM
M  V30 1 C 6.737469 -2.097825 0.867305 0
M  V30 2 C 6.013134 -1.742984 -0.393679 0
M  V30 3 N 5.417299 -0.402258 -0.335276 0
M  V30 4 C 6.252907 0.667250 -0.793108 0
M  V30 5 C 7.091241 1.267318 0.315849 0
M  V30 6 C 4.082998 -0.166414 0.148158 0
M  V30 7 O 3.643026 1.020799 0.166135 0
M  V30 8 O 3.370115 -1.302264 0.567307 0
M  V30 9 C 2.075846 -1.122127 1.042502 0
M  V30 10 C 1.649715 -0.882891 2.334042 0
M  V30 11 C 0.297851 -0.735035 2.576209 0
M  V30 12 C -0.614300 -0.824764 1.544189 0
M  V30 13 C -1.946621 -0.664164 1.876778 0
M  V30 14 O -2.398797 -0.448785 3.004563 0
M  V30 15 C -2.868308 -0.754304 0.837295 0
M  V30 16 C -4.309672 -0.617996 0.961338 0
M  V30 17 C -4.906852 -1.297625 2.019125 0
M  V30 18 C -6.289210 -1.197601 2.180052 0
M  V30 19 C -7.079386 -0.450261 1.328444 0
M  V30 20 O -8.442681 -0.428171 1.591807 0
M  V30 21 C -9.319741 0.325598 0.750049 0
M  V30 22 C -6.477950 0.217593 0.285838 0
M  V30 23 C -5.110928 0.124924 0.118161 0
M  V30 24 C -2.410082 -0.996133 -0.454265 0
M  V30 25 O -1.115175 -1.142015 -0.713112 0
M  V30 26 C -0.212469 -1.063434 0.243779 0
M  V30 27 C 1.149082 -1.212100 0.001473 0
M  V30 28 H 7.829128 -1.849766 0.766986 0
M  V30 29 H 6.289581 -1.530440 1.725830 0
M  V30 30 H 6.624143 -3.175094 1.049734 0
M  V30 31 H 5.167527 -2.453035 -0.512667 0
M  V30 32 H 6.700647 -1.830964 -1.254554 0
M  V30 33 H 6.925695 0.336185 -1.605814 0
M  V30 34 H 5.577231 1.481959 -1.153485 0
M  V30 35 H 6.529520 1.323431 1.272489 0
M  V30 36 H 7.428959 2.289729 0.058098 0
M  V30 37 H 8.001614 0.657427 0.486937 0
M  V30 38 H 2.444760 -0.834318 3.046539 0
M  V30 39 H 0.002088 -0.548949 3.599068 0
M  V30 40 H -4.339926 -1.898187 2.718089 0
M  V30 41 H -6.740500 -1.731025 3.006523 0
M  V30 42 H -9.174241 0.047851 -0.320082 0
M  V30 43 H -9.076696 1.392528 0.933162 0
M  V30 44 H -10.362042 0.131780 1.034115 0
M  V30 45 H -7.084389 0.797582 -0.376530 0
M  V30 46 H -4.589062 0.628900 -0.683260 0
M  V30 47 H -3.062326 -1.080993 -1.322770 0
M  V30 48 H 1.373803 -1.396142 -1.044641 0
M  V30 END ATOM
M  V30 BEGIN BOND
M  V30 1 1 1 2
M  V30 2 1 2 3
M  V30 3 1 3 4
M  V30 4 1 4 5
M  V30 5 1 3 6
M  V30 6 2 6 7
M  V30 7 1 6 8
M  V30 8 1 8 9
M  V30 9 2 9 10
M  V30 10 1 10 11
M  V30 11 2 11 12
M  V30 12 1 12 13
M  V30 13 2 13 14
M  V30 14 1 13 15
M  V30 15 1 15 16
M  V30 16 2 16 17
M  V30 17 1 17 18
M  V30 18 2 18 19
M  V30 19 1 19 20
M  V30 20 1 20 21
M  V30 21 1 19 22
M  V30 22 2 22 23
M  V30 23 2 15 24
M  V30 24 1 24 25
M  V30 25 1 25 26
M  V30 26 2 26 27
M  V30 27 1 27 9
M  V30 28 1 26 12
M  V30 29 1 23 16
M  V30 30 1 1 28
M  V30 31 1 1 29
M  V30 32 1 1 30
M  V30 33 1 2 31
M  V30 34 1 2 32
M  V30 35 1 4 33
M  V30 36 1 4 34
M  V30 37 1 5 35
M  V30 38 1 5 36
M  V30 39 1 5 37
M  V30 40 1 10 38
M  V30 41 1 11 39
M  V30 42 1 17 40
M  V30 43 1 18 41
M  V30 44 1 21 42
M  V30 45 1 21 43
M  V30 46 1 21 44
M  V30 47 1 22 45
M  V30 48 1 23 46
M  V30 49 1 24 47
M  V30 50 1 27 48
M  V30 END BOND
M  V30 END CTAB
M  END
>  <Dataset>  (772) 
ChEMBL_Kinases

>  <Ligand_Instance>  (772) 
nan

>  <PDB_ID>  (772) 
nan

>  <Standardized_SMILES>  (772) 
CCN(CC)C(=O)Oc1ccc2c(=O)c(-c3ccc(OC)cc3)coc2c1

>  <Name>  (772) 
nan

>  <Pocket>  (772) 
nan

>  <ATP_Site>  (772) 
nan

>  <Peripheral>  (772) 
nan

>  <Num_H_Atoms_ProtBoundConf>  (772) 
nan

>  <Num_Resolved_Atoms>  (772) 
nan

>  <Num_Not_Resolved_Atoms>  (772) 
nan

$$$$
CHEMBL1601152
     RDKit          3D

  0  0  0  0  0  0  0  0  0  0999 V3000
M  V30 BEGIN CTAB
M  V30 COUNTS 42 44 0 0 0
M  V30 BEGIN ATOM
M  V30 1 C -0.243724 -5.275192 1.554847 0
M  V30 2 O -0.218968 -4.195980 0.657445 0
M  V30 3 C 0.703875 -3.163102 0.795757 0
M  V30 4 C 1.583602 -3.258190 1.852718 0
M  V30 5 C 2.512593 -2.259362 2.026972 0
M  V30 6 C 2.499969 -1.218483 1.121684 0
M  V30 7 C 1.626435 -1.079478 0.034560 0
M  V30 8 C 1.754274 0.116910 -0.815731 0
M  V30 9 S 1.693807 -0.212280 -2.588044 0
M  V30 10 C 0.167303 0.679568 -2.990794 0
M  V30 11 C -0.001944 1.534088 -1.788845 0
M  V30 12 O -0.624360 2.629083 -1.821009 0
M  V30 13 N 0.590860 1.007657 -0.635143 0
M  V30 14 C 0.130023 1.287938 0.684923 0
M  V30 15 C 0.764061 2.413785 1.209819 0
M  V30 16 C 0.469050 2.876402 2.493573 0
M  V30 17 C -0.468792 2.195467 3.241910 0
M  V30 18 C -0.803029 2.664997 4.611936 0
M  V30 19 C -1.091682 1.082467 2.715466 0
M  V30 20 C -0.805082 0.619641 1.447555 0
M  V30 21 C 0.741642 -2.104444 -0.069445 0
M  V30 22 O -0.193473 -2.131826 -1.079552 0
M  V30 23 C 0.116960 -2.825787 -2.272194 0
M  V30 24 H -0.266897 -4.845382 2.598293 0
M  V30 25 H 0.651883 -5.898686 1.449520 0
M  V30 26 H -1.191658 -5.845137 1.474672 0
M  V30 27 H 1.614351 -4.058415 2.572406 0
M  V30 28 H 3.228281 -2.268383 2.827848 0
M  V30 29 H 3.250227 -0.434132 1.281550 0
M  V30 30 H 2.686004 0.662767 -0.560614 0
M  V30 31 H -0.692422 0.029817 -3.182508 0
M  V30 32 H 0.426208 1.306579 -3.893607 0
M  V30 33 H 1.513498 3.020782 0.709174 0
M  V30 34 H 0.938471 3.739570 2.928079 0
M  V30 35 H -1.464598 3.554875 4.609382 0
M  V30 36 H 0.119087 2.956942 5.182561 0
M  V30 37 H -1.259624 1.844641 5.165644 0
M  V30 38 H -1.829231 0.520967 3.263731 0
M  V30 39 H -1.228220 -0.232108 0.941653 0
M  V30 40 H -0.265503 -2.332952 -3.185957 0
M  V30 41 H 1.194068 -3.108126 -2.332028 0
M  V30 42 H -0.462435 -3.790044 -2.206494 0
M  V30 END ATOM
M  V30 BEGIN BOND
M  V30 1 1 1 2
M  V30 2 1 2 3
M  V30 3 2 3 4
M  V30 4 1 4 5
M  V30 5 2 5 6
M  V30 6 1 6 7
M  V30 7 1 7 8
M  V30 8 1 8 9
M  V30 9 1 9 10
M  V30 10 1 10 11
M  V30 11 2 11 12
M  V30 12 1 11 13
M  V30 13 1 13 14
M  V30 14 2 14 15
M  V30 15 1 15 16
M  V30 16 2 16 17
M  V30 17 1 17 18
M  V30 18 1 17 19
M  V30 19 2 19 20
M  V30 20 2 7 21
M  V30 21 1 21 22
M  V30 22 1 22 23
M  V30 23 1 21 3
M  V30 24 1 13 8
M  V30 25 1 20 14
M  V30 26 1 1 24
M  V30 27 1 1 25
M  V30 28 1 1 26
M  V30 29 1 4 27
M  V30 30 1 5 28
M  V30 31 1 6 29
M  V30 32 1 8 30
M  V30 33 1 10 31
M  V30 34 1 10 32
M  V30 35 1 15 33
M  V30 36 1 16 34
M  V30 37 1 18 35
M  V30 38 1 18 36
M  V30 39 1 18 37
M  V30 40 1 19 38
M  V30 41 1 20 39
M  V30 42 1 23 40
M  V30 43 1 23 41
M  V30 44 1 23 42
M  V30 END BOND
M  V30 END CTAB
M  END
>  <Dataset>  (773) 
ChEMBL_Kinases

>  <Ligand_Instance>  (773) 
nan

>  <PDB_ID>  (773) 
nan

>  <Standardized_SMILES>  (773) 
COc1cccc(C2SCC(=O)N2c2ccc(C)cc2)c1OC

>  <Name>  (773) 
nan

>  <Pocket>  (773) 
nan

>  <ATP_Site>  (773) 
nan

>  <Peripheral>  (773) 
nan

>  <Num_H_Atoms_ProtBoundConf>  (773) 
nan

>  <Num_Resolved_Atoms>  (773) 
nan

>  <Num_Not_Resolved_Atoms>  (773) 
nan

$$$$
CHEMBL1601133
     RDKit          3D

  0  0  0  0  0  0  0  0  0  0999 V3000
M  V30 BEGIN CTAB
M  V30 COUNTS 41 43 0 0 0
M  V30 BEGIN ATOM
M  V30 1 C 0.489677 -4.353263 1.237496 0
M  V30 2 C 1.937424 -3.988863 1.011716 0
M  V30 3 C 2.756066 -4.731520 2.076682 0
M  V30 4 C 2.199000 -2.535943 1.311820 0
M  V30 5 O 2.991720 -2.071774 2.166109 0
M  V30 6 N 1.430706 -1.629626 0.502867 0
M  V30 7 C 1.551096 -0.189458 0.651793 0
M  V30 8 C 2.146365 0.458433 -0.533379 0
M  V30 9 C 1.866005 0.198229 -1.873074 0
M  V30 10 C 2.634779 1.018996 -2.691925 0
M  V30 11 C 3.365686 1.758410 -1.763568 0
M  V30 12 O 3.068943 1.420250 -0.554687 0
M  V30 13 C 0.320467 0.458882 1.148842 0
M  V30 14 C 0.281729 1.179811 2.350224 0
M  V30 15 C -0.820960 1.813443 2.879883 0
M  V30 16 C -1.998536 1.734481 2.166333 0
M  V30 17 C -3.091556 2.374456 2.711362 0
M  V30 18 C -4.271833 2.296555 1.998288 0
M  V30 19 C -4.298639 1.597096 0.801118 0
M  V30 20 N -3.209723 0.988840 0.307731 0
M  V30 21 C -2.042867 1.043844 0.975439 0
M  V30 22 C -0.897906 0.434489 0.507773 0
M  V30 23 O -1.020908 -0.230928 -0.678423 0
M  V30 24 H 0.473710 -5.394397 1.621567 0
M  V30 25 H 0.042723 -3.709710 2.005378 0
M  V30 26 H -0.085970 -4.389635 0.287308 0
M  V30 27 H 2.339096 -4.289661 0.043236 0
M  V30 28 H 3.834985 -4.487133 1.973518 0
M  V30 29 H 2.451002 -4.326151 3.084842 0
M  V30 30 H 2.571018 -5.811371 2.077671 0
M  V30 31 H 0.732275 -1.830627 -0.246842 0
M  V30 32 H 2.317661 -0.043281 1.473132 0
M  V30 33 H 1.170129 -0.519918 -2.284493 0
M  V30 34 H 2.621117 1.030797 -3.777730 0
M  V30 35 H 4.085701 2.516571 -2.092017 0
M  V30 36 H 1.217883 1.244011 2.919935 0
M  V30 37 H -0.719189 2.339394 3.820379 0
M  V30 38 H -3.017657 2.901924 3.640573 0
M  V30 39 H -5.132036 2.803804 2.433313 0
M  V30 40 H -5.249998 1.591507 0.323163 0
M  V30 41 H -1.486347 0.232984 -1.458273 0
M  V30 END ATOM
M  V30 BEGIN BOND
M  V30 1 1 1 2
M  V30 2 1 2 3
M  V30 3 1 2 4
M  V30 4 2 4 5
M  V30 5 1 4 6
M  V30 6 1 6 7
M  V30 7 1 7 8
M  V30 8 2 8 9
M  V30 9 1 9 10
M  V30 10 2 10 11
M  V30 11 1 11 12
M  V30 12 1 7 13
M  V30 13 2 13 14
M  V30 14 1 14 15
M  V30 15 2 15 16
M  V30 16 1 16 17
M  V30 17 2 17 18
M  V30 18 1 18 19
M  V30 19 2 19 20
M  V30 20 1 20 21
M  V30 21 2 21 22
M  V30 22 1 22 23
M  V30 23 1 12 8
M  V30 24 1 22 13
M  V30 25 1 21 16
M  V30 26 1 1 24
M  V30 27 1 1 25
M  V30 28 1 1 26
M  V30 29 1 2 27
M  V30 30 1 3 28
M  V30 31 1 3 29
M  V30 32 1 3 30
M  V30 33 1 6 31
M  V30 34 1 7 32
M  V30 35 1 9 33
M  V30 36 1 10 34
M  V30 37 1 11 35
M  V30 38 1 14 36
M  V30 39 1 15 37
M  V30 40 1 17 38
M  V30 41 1 18 39
M  V30 42 1 19 40
M  V30 43 1 23 41
M  V30 END BOND
M  V30 END CTAB
M  END
>  <Dataset>  (774) 
ChEMBL_Kinases

>  <Ligand_Instance>  (774) 
nan

>  <PDB_ID>  (774) 
nan

>  <Standardized_SMILES>  (774) 
CC(C)C(=O)NC(c1ccco1)c1ccc2cccnc2c1O

>  <Name>  (774) 
nan

>  <Pocket>  (774) 
nan

>  <ATP_Site>  (774) 
nan

>  <Peripheral>  (774) 
nan

>  <Num_H_Atoms_ProtBoundConf>  (774) 
nan

>  <Num_Resolved_Atoms>  (774) 
nan

>  <Num_Not_Resolved_Atoms>  (774) 
nan

$$$$
CHEMBL1601007
     RDKit          3D

  0  0  0  0  0  0  0  0  0  0999 V3000
M  V30 BEGIN CTAB
M  V30 COUNTS 35 36 0 0 0
M  V30 BEGIN ATOM
M  V30 1 C -0.572859 -4.495285 3.621845 0
M  V30 2 C 0.914668 -4.428813 3.299212 0
M  V30 3 O 1.163531 -3.798815 2.052506 0
M  V30 4 C 0.797704 -2.505952 1.756812 0
M  V30 5 O 0.221164 -1.989670 2.750023 0
M  V30 6 C 1.059535 -1.868756 0.469623 0
M  V30 7 C 1.692160 -2.414228 -0.640341 0
M  V30 8 C 2.233582 -3.802195 -0.706626 0
M  V30 9 O 1.701846 -1.479497 -1.562060 0
M  V30 10 C 1.124318 -0.387641 -1.118492 0
M  V30 11 C 0.906057 0.831829 -1.724795 0
M  V30 12 C 0.270963 1.871320 -1.082395 0
M  V30 13 C -0.169412 1.704547 0.214057 0
M  V30 14 O -0.826228 2.558790 1.088506 0
M  V30 15 C -1.136034 3.859821 0.627459 0
M  V30 16 C -2.039003 3.828540 -0.572497 0
M  V30 17 N -2.320730 5.174622 -0.998130 0
M  V30 18 O -2.675369 3.122752 -1.392326 0
M  V30 19 C 0.046147 0.469549 0.842443 0
M  V30 20 C 0.688416 -0.570415 0.182198 0
M  V30 21 H -0.881286 -3.611822 4.219435 0
M  V30 22 H -0.890016 -5.453800 4.045743 0
M  V30 23 H -1.094933 -4.402493 2.631825 0
M  V30 24 H 1.431928 -3.920713 4.132246 0
M  V30 25 H 1.258142 -5.480698 3.199891 0
M  V30 26 H 2.295570 -4.109551 -1.791463 0
M  V30 27 H 3.198414 -3.917004 -0.194866 0
M  V30 28 H 1.522268 -4.540760 -0.257857 0
M  V30 29 H 1.217164 1.043609 -2.731082 0
M  V30 30 H 0.048309 2.856778 -1.446266 0
M  V30 31 H -1.632778 4.473380 1.400730 0
M  V30 32 H -0.182268 4.389819 0.370992 0
M  V30 33 H -3.123867 5.805173 -1.198461 0
M  V30 34 H -2.119431 6.137425 -1.301995 0
M  V30 35 H -0.233510 0.178697 1.843396 0
M  V30 END ATOM
M  V30 BEGIN BOND
M  V30 1 1 1 2
M  V30 2 1 2 3
M  V30 3 1 3 4
M  V30 4 2 4 5
M  V30 5 1 4 6
M  V30 6 2 6 7
M  V30 7 1 7 8
M  V30 8 1 7 9
M  V30 9 1 9 10
M  V30 10 2 10 11
M  V30 11 1 11 12
M  V30 12 2 12 13
M  V30 13 1 13 14
M  V30 14 1 14 15
M  V30 15 1 15 16
M  V30 16 1 16 17
M  V30 17 2 16 18
M  V30 18 1 13 19
M  V30 19 2 19 20
M  V30 20 1 20 6
M  V30 21 1 20 10
M  V30 22 1 1 21
M  V30 23 1 1 22
M  V30 24 1 1 23
M  V30 25 1 2 24
M  V30 26 1 2 25
M  V30 27 1 8 26
M  V30 28 1 8 27
M  V30 29 1 8 28
M  V30 30 1 11 29
M  V30 31 1 12 30
M  V30 32 1 15 31
M  V30 33 1 15 32
M  V30 34 1 17 33
M  V30 35 1 17 34
M  V30 36 1 19 35
M  V30 END BOND
M  V30 END CTAB
M  END
>  <Dataset>  (775) 
ChEMBL_Kinases

>  <Ligand_Instance>  (775) 
nan

>  <PDB_ID>  (775) 
nan

>  <Standardized_SMILES>  (775) 
CCOC(=O)c1c(C)oc2ccc(OCC(N)=O)cc12

>  <Name>  (775) 
nan

>  <Pocket>  (775) 
nan

>  <ATP_Site>  (775) 
nan

>  <Peripheral>  (775) 
nan

>  <Num_H_Atoms_ProtBoundConf>  (775) 
nan

>  <Num_Resolved_Atoms>  (775) 
nan

>  <Num_Not_Resolved_Atoms>  (775) 
nan

$$$$
CHEMBL1601006
     RDKit          3D

  0  0  0  0  0  0  0  0  0  0999 V3000
M  V30 BEGIN CTAB
M  V30 COUNTS 48 50 0 0 0
M  V30 BEGIN ATOM
M  V30 1 C -0.954949 -5.801852 -1.351813 0
M  V30 2 C 0.506054 -5.489773 -1.106491 0
M  V30 3 O 0.616969 -4.121351 -0.797623 0
M  V30 4 C 1.787537 -3.471180 -0.514767 0
M  V30 5 O 2.765462 -4.249290 -0.563647 0
M  V30 6 C 1.877084 -2.042829 -0.195579 0
M  V30 7 C 3.050182 -1.461469 0.072702 0
M  V30 8 O 4.268174 -2.120905 0.078639 0
M  V30 9 C 2.754607 -0.046972 0.342019 0
M  V30 10 O 3.694085 0.732806 0.624689 0
M  V30 11 N 1.338262 0.118675 0.205353 0
M  V30 12 C 0.849944 1.453146 0.433882 0
M  V30 13 C 0.749446 2.368359 -0.620237 0
M  V30 14 C 0.273339 3.644281 -0.353831 0
M  V30 15 C -0.103777 4.053859 0.890451 0
M  V30 16 S -0.705841 5.658660 1.242084 0
M  V30 17 N -2.435676 5.745762 1.079996 0
M  V30 18 O -0.015860 6.695232 0.409617 0
M  V30 19 O -0.384078 5.988688 2.691209 0
M  V30 20 C -0.008837 3.152252 1.949894 0
M  V30 21 C 0.464317 1.882247 1.688589 0
M  V30 22 C 0.715330 -1.145009 -0.143183 0
M  V30 23 C -0.344043 -1.582575 0.768170 0
M  V30 24 C -1.562248 -2.084761 0.301684 0
M  V30 25 C -2.615733 -2.519832 1.091219 0
M  V30 26 C -2.417610 -2.439002 2.440069 0
M  V30 27 C -1.254028 -1.959420 3.014265 0
M  V30 28 N -1.096844 -1.895534 4.427499 0 CHG=1 VAL=4
M  V30 29 O -0.020671 -1.451971 4.874988 0
M  V30 30 O -2.149350 -2.330183 5.224985 0 CHG=-1 VAL=1
M  V30 31 C -0.272781 -1.554095 2.147778 0
M  V30 32 H -1.183875 -5.668716 -2.445133 0
M  V30 33 H -1.119451 -6.893258 -1.144502 0
M  V30 34 H -1.650282 -5.238049 -0.713504 0
M  V30 35 H 0.871115 -6.151303 -0.303276 0
M  V30 36 H 1.039403 -5.672760 -2.068688 0
M  V30 37 H 5.066509 -1.831717 -0.469779 0
M  V30 38 H 1.049228 2.048863 -1.619726 0
M  V30 39 H 0.198180 4.351635 -1.181495 0
M  V30 40 H -2.723862 6.575141 1.681717 0
M  V30 41 H -2.815286 4.907353 1.577441 0
M  V30 42 H -0.305655 3.460445 2.953540 0
M  V30 43 H 0.520388 1.218065 2.540533 0
M  V30 44 H 0.238366 -1.013388 -1.154355 0
M  V30 45 H -1.694622 -2.138653 -0.788861 0
M  V30 46 H -3.505779 -2.886637 0.600802 0
M  V30 47 H -3.248282 -2.782063 3.076323 0
M  V30 48 H 0.639461 -1.178134 2.601080 0
M  V30 END ATOM
M  V30 BEGIN BOND
M  V30 1 1 1 2
M  V30 2 1 2 3
M  V30 3 1 3 4
M  V30 4 2 4 5
M  V30 5 1 4 6
M  V30 6 2 6 7
M  V30 7 1 7 8
M  V30 8 1 7 9
M  V30 9 2 9 10
M  V30 10 1 9 11
M  V30 11 1 11 12
M  V30 12 2 12 13
M  V30 13 1 13 14
M  V30 14 2 14 15
M  V30 15 1 15 16
M  V30 16 1 16 17
M  V30 17 2 16 18
M  V30 18 2 16 19
M  V30 19 1 15 20
M  V30 20 2 20 21
M  V30 21 1 11 22
M  V30 22 1 22 23
M  V30 23 2 23 24
M  V30 24 1 24 25
M  V30 25 2 25 26
M  V30 26 1 26 27
M  V30 27 1 27 28
M  V30 28 2 28 29
M  V30 29 1 28 30
M  V30 30 2 27 31
M  V30 31 1 22 6
M  V30 32 1 31 23
M  V30 33 1 21 12
M  V30 34 1 1 32
M  V30 35 1 1 33
M  V30 36 1 1 34
M  V30 37 1 2 35
M  V30 38 1 2 36
M  V30 39 1 8 37
M  V30 40 1 13 38
M  V30 41 1 14 39
M  V30 42 1 17 40
M  V30 43 1 17 41
M  V30 44 1 20 42
M  V30 45 1 21 43
M  V30 46 1 22 44
M  V30 47 1 24 45
M  V30 48 1 25 46
M  V30 49 1 26 47
M  V30 50 1 31 48
M  V30 END BOND
M  V30 END CTAB
M  END
>  <Dataset>  (776) 
ChEMBL_Kinases

>  <Ligand_Instance>  (776) 
nan

>  <PDB_ID>  (776) 
nan

>  <Standardized_SMILES>  (776) 
CCOC(=O)C1=C(O)C(=O)N(c2ccc(S(N)(=O)=O)cc2)C1c1cccc([N+](=O)[O-])c1

>  <Name>  (776) 
nan

>  <Pocket>  (776) 
nan

>  <ATP_Site>  (776) 
nan

>  <Peripheral>  (776) 
nan

>  <Num_H_Atoms_ProtBoundConf>  (776) 
nan

>  <Num_Resolved_Atoms>  (776) 
nan

>  <Num_Not_Resolved_Atoms>  (776) 
nan

$$$$
CHEMBL1600947
     RDKit          3D

  0  0  0  0  0  0  0  0  0  0999 V3000
M  V30 BEGIN CTAB
M  V30 COUNTS 37 39 0 0 0
M  V30 BEGIN ATOM
M  V30 1 C -0.900697 -3.803919 3.960382 0
M  V30 2 N -0.095160 -4.424845 2.924564 0
M  V30 3 C 0.248474 -5.830851 3.003786 0
M  V30 4 C 0.357856 -3.646237 1.827014 0
M  V30 5 C 0.035092 -2.307455 1.744276 0
M  V30 6 C 0.497672 -1.599523 0.663360 0
M  V30 7 C 1.265043 -2.100944 -0.364494 0
M  V30 8 N 1.735267 -1.357501 -1.474153 0
M  V30 9 C 1.469185 0.035057 -1.674349 0
M  V30 10 N 0.826947 0.920374 -1.026857 0
M  V30 11 C 0.768190 2.154796 -1.494356 0
M  V30 12 C 0.025478 3.153180 -0.733894 0
M  V30 13 C -0.085235 4.462189 -1.150376 0
M  V30 14 C -0.773376 5.445936 -0.472551 0
M  V30 15 C -1.406474 5.128359 0.709418 0
M  V30 16 N -1.315892 3.858142 1.141148 0
M  V30 17 C -0.636150 2.925179 0.453895 0
M  V30 18 C 1.420211 2.481322 -2.711287 0
M  V30 19 S 2.129918 0.840730 -3.124362 0
M  V30 20 C 1.549668 -3.441515 -0.218483 0
M  V30 21 C 1.123660 -4.220560 0.835016 0
M  V30 22 H -1.372371 -4.568343 4.610180 0
M  V30 23 H -1.731630 -3.256595 3.465761 0
M  V30 24 H -0.301862 -3.078475 4.554011 0
M  V30 25 H -0.245031 -6.298561 3.875800 0
M  V30 26 H -0.190775 -6.312991 2.083536 0
M  V30 27 H 1.338239 -6.015571 2.946589 0
M  V30 28 H -0.565895 -1.862481 2.525396 0
M  V30 29 H 0.210516 -0.565730 0.661574 0
M  V30 30 H 2.312267 -1.909579 -2.167027 0
M  V30 31 H 0.374334 4.810027 -2.061952 0
M  V30 32 H -0.839434 6.462860 -0.828778 0
M  V30 33 H -1.973653 5.811677 1.326330 0
M  V30 34 H -0.595791 1.905116 0.853641 0
M  V30 35 H 1.420711 3.486307 -3.171060 0
M  V30 36 H 2.145440 -3.966060 -0.954729 0
M  V30 37 H 1.372903 -5.269939 0.906001 0
M  V30 END ATOM
M  V30 BEGIN BOND
M  V30 1 1 1 2
M  V30 2 1 2 3
M  V30 3 1 2 4
M  V30 4 2 4 5
M  V30 5 1 5 6
M  V30 6 2 6 7
M  V30 7 1 7 8
M  V30 8 1 8 9
M  V30 9 2 9 10
M  V30 10 1 10 11
M  V30 11 1 11 12
M  V30 12 2 12 13
M  V30 13 1 13 14
M  V30 14 2 14 15
M  V30 15 1 15 16
M  V30 16 2 16 17
M  V30 17 2 11 18
M  V30 18 1 18 19
M  V30 19 1 7 20
M  V30 20 2 20 21
M  V30 21 1 21 4
M  V30 22 1 19 9
M  V30 23 1 17 12
M  V30 24 1 1 22
M  V30 25 1 1 23
M  V30 26 1 1 24
M  V30 27 1 3 25
M  V30 28 1 3 26
M  V30 29 1 3 27
M  V30 30 1 5 28
M  V30 31 1 6 29
M  V30 32 1 8 30
M  V30 33 1 13 31
M  V30 34 1 14 32
M  V30 35 1 15 33
M  V30 36 1 17 34
M  V30 37 1 18 35
M  V30 38 1 20 36
M  V30 39 1 21 37
M  V30 END BOND
M  V30 END CTAB
M  END
>  <Dataset>  (777) 
ChEMBL_Kinases

>  <Ligand_Instance>  (777) 
nan

>  <PDB_ID>  (777) 
nan

>  <Standardized_SMILES>  (777) 
CN(C)c1ccc(Nc2nc(-c3cccnc3)cs2)cc1

>  <Name>  (777) 
nan

>  <Pocket>  (777) 
nan

>  <ATP_Site>  (777) 
nan

>  <Peripheral>  (777) 
nan

>  <Num_H_Atoms_ProtBoundConf>  (777) 
nan

>  <Num_Resolved_Atoms>  (777) 
nan

>  <Num_Not_Resolved_Atoms>  (777) 
nan

$$$$
CHEMBL1600898
     RDKit          3D

  0  0  0  0  0  0  0  0  0  0999 V3000
M  V30 BEGIN CTAB
M  V30 COUNTS 63 66 0 0 0
M  V30 BEGIN ATOM
M  V30 1 C 2.615234 -3.949696 4.885506 0
M  V30 2 C 3.388382 -4.157726 3.605642 0
M  V30 3 O 2.565250 -4.085459 2.465165 0
M  V30 4 C 1.881787 -2.919084 2.177690 0
M  V30 5 C 1.916974 -1.759297 2.906629 0
M  V30 6 C 1.142850 -0.726755 2.418360 0
M  V30 7 C 1.267260 0.450187 3.261459 0
M  V30 8 O 1.415766 1.390762 3.991391 0
M  V30 9 O 0.406092 1.480429 2.920174 0
M  V30 10 C 0.262021 2.730568 3.503847 0
M  V30 11 C -0.846160 3.516030 2.859466 0
M  V30 12 O -0.938649 4.682097 3.378971 0
M  V30 13 C -1.594947 2.866744 1.819092 0
M  V30 14 C -2.707024 2.141987 2.261201 0
M  V30 15 C -3.357850 1.842172 3.581003 0
M  V30 16 N -3.310986 1.596792 1.169110 0
M  V30 17 C -2.619729 1.951556 0.072339 0
M  V30 18 C -2.761039 1.704135 -1.280040 0
M  V30 19 C -1.835611 2.256941 -2.126784 0
M  V30 20 C -0.753331 3.051506 -1.745322 0
M  V30 21 C -0.624101 3.293669 -0.371857 0
M  V30 22 C -1.566948 2.729365 0.452072 0
M  V30 23 C 0.354259 -0.761937 1.283685 0
M  V30 24 C 0.344054 -1.948114 0.571411 0
M  V30 25 C 1.124560 -3.016970 1.050421 0
M  V30 26 O 1.037219 -4.134374 0.272899 0
M  V30 27 C 0.268391 -4.194415 -0.927512 0
M  V30 28 C 0.773862 -3.274424 -1.945272 0
M  V30 29 O 1.895850 -2.760383 -1.569240 0
M  V30 30 N 0.191869 -2.937385 -3.182222 0
M  V30 31 C 0.697416 -2.059245 -4.209819 0
M  V30 32 C -0.217297 -0.840283 -4.192223 0
M  V30 33 O -1.449654 -1.129945 -3.658645 0
M  V30 34 C -1.959725 -2.365159 -3.958517 0
M  V30 35 C -1.104980 -3.513458 -3.459403 0
M  V30 36 H 1.552598 -3.667264 4.725398 0
M  V30 37 H 3.100471 -3.209428 5.560181 0
M  V30 38 H 2.560516 -4.897185 5.495518 0
M  V30 39 H 3.957243 -5.105123 3.656463 0
M  V30 40 H 4.153707 -3.326701 3.590635 0
M  V30 41 H 2.535053 -1.724640 3.792902 0
M  V30 42 H -0.048507 2.619581 4.565159 0
M  V30 43 H 1.147224 3.396770 3.427556 0
M  V30 44 H -2.949552 2.452445 4.396537 0
M  V30 45 H -3.369209 0.753673 3.772883 0
M  V30 46 H -4.427946 2.151170 3.502530 0
M  V30 47 H -4.164101 0.986647 1.063351 0
M  V30 48 H -3.563623 1.101145 -1.656424 0
M  V30 49 H -1.958556 2.055093 -3.202777 0
M  V30 50 H -0.071660 3.445339 -2.473452 0
M  V30 51 H 0.197816 3.900676 -0.004866 0
M  V30 52 H -0.197187 0.133864 1.037458 0
M  V30 53 H -0.313142 -1.853872 -0.283884 0
M  V30 54 H -0.778134 -4.088240 -0.650007 0
M  V30 55 H 0.396895 -5.240130 -1.321612 0
M  V30 56 H 0.486805 -2.562754 -5.184414 0
M  V30 57 H 1.753873 -1.809389 -4.104646 0
M  V30 58 H -0.282432 -0.326768 -5.167732 0
M  V30 59 H 0.270445 -0.097264 -3.499229 0
M  V30 60 H -2.930288 -2.442626 -3.391173 0
M  V30 61 H -2.106315 -2.447983 -5.039401 0
M  V30 62 H -1.533961 -4.037389 -2.590886 0
M  V30 63 H -0.974564 -4.243049 -4.276453 0
M  V30 END ATOM
M  V30 BEGIN BOND
M  V30 1 1 1 2
M  V30 2 1 2 3
M  V30 3 1 3 4
M  V30 4 2 4 5
M  V30 5 1 5 6
M  V30 6 1 6 7
M  V30 7 2 7 8
M  V30 8 1 7 9
M  V30 9 1 9 10
M  V30 10 1 10 11
M  V30 11 2 11 12
M  V30 12 1 11 13
M  V30 13 2 13 14
M  V30 14 1 14 15
M  V30 15 1 14 16
M  V30 16 1 16 17
M  V30 17 2 17 18
M  V30 18 1 18 19
M  V30 19 2 19 20
M  V30 20 1 20 21
M  V30 21 2 21 22
M  V30 22 2 6 23
M  V30 23 1 23 24
M  V30 24 2 24 25
M  V30 25 1 25 26
M  V30 26 1 26 27
M  V30 27 1 27 28
M  V30 28 2 28 29
M  V30 29 1 28 30
M  V30 30 1 30 31
M  V30 31 1 31 32
M  V30 32 1 32 33
M  V30 33 1 33 34
M  V30 34 1 34 35
M  V30 35 1 25 4
M  V30 36 1 35 30
M  V30 37 1 22 13
M  V30 38 1 22 17
M  V30 39 1 1 36
M  V30 40 1 1 37
M  V30 41 1 1 38
M  V30 42 1 2 39
M  V30 43 1 2 40
M  V30 44 1 5 41
M  V30 45 1 10 42
M  V30 46 1 10 43
M  V30 47 1 15 44
M  V30 48 1 15 45
M  V30 49 1 15 46
M  V30 50 1 16 47
M  V30 51 1 18 48
M  V30 52 1 19 49
M  V30 53 1 20 50
M  V30 54 1 21 51
M  V30 55 1 23 52
M  V30 56 1 24 53
M  V30 57 1 27 54
M  V30 58 1 27 55
M  V30 59 1 31 56
M  V30 60 1 31 57
M  V30 61 1 32 58
M  V30 62 1 32 59
M  V30 63 1 34 60
M  V30 64 1 34 61
M  V30 65 1 35 62
M  V30 66 1 35 63
M  V30 END BOND
M  V30 END CTAB
M  END
>  <Dataset>  (778) 
ChEMBL_Kinases

>  <Ligand_Instance>  (778) 
nan

>  <PDB_ID>  (778) 
nan

>  <Standardized_SMILES>  (778) 
CCOc1cc(C(=O)OCC(=O)c2c(C)[nH]c3ccccc23)ccc1OCC(=O)N1CCOCC1

>  <Name>  (778) 
nan

>  <Pocket>  (778) 
nan

>  <ATP_Site>  (778) 
nan

>  <Peripheral>  (778) 
nan

>  <Num_H_Atoms_ProtBoundConf>  (778) 
nan

>  <Num_Resolved_Atoms>  (778) 
nan

>  <Num_Not_Resolved_Atoms>  (778) 
nan

$$$$
CHEMBL1600829
     RDKit          3D

  0  0  0  0  0  0  0  0  0  0999 V3000
M  V30 BEGIN CTAB
M  V30 COUNTS 49 51 0 0 0
M  V30 BEGIN ATOM
M  V30 1 C 1.288097 -5.062109 -0.126688 0
M  V30 2 C 1.830874 -4.919076 -1.515065 0
M  V30 3 C 3.327487 -4.927049 -1.468831 0
M  V30 4 C 1.382357 -6.125620 -2.342144 0
M  V30 5 O 1.323698 -3.737074 -2.150816 0
M  V30 6 C 1.541347 -2.488150 -1.634415 0
M  V30 7 O 2.208878 -2.379004 -0.566773 0
M  V30 8 N 1.050963 -1.288240 -2.241172 0
M  V30 9 N 1.426656 -0.144733 -1.490172 0
M  V30 10 C 0.453400 0.192944 -0.495536 0
M  V30 11 O -0.529371 -0.585552 -0.488500 0
M  V30 12 N 0.593649 1.310547 0.400141 0
M  V30 13 C -0.452590 1.569982 1.377042 0
M  V30 14 C -0.016638 2.791415 2.154485 0
M  V30 15 C -0.987700 3.131108 3.260329 0
M  V30 16 C -1.070997 1.939035 4.180706 0
M  V30 17 C -1.609042 0.782459 3.389011 0
M  V30 18 C -2.931078 1.052649 2.740997 0
M  V30 19 C -2.750535 2.230442 1.802043 0
M  V30 20 C -2.327149 3.422245 2.626977 0
M  V30 21 C -1.762469 1.916726 0.709555 0
M  V30 22 C -0.624022 0.407624 2.314512 0
M  V30 23 H 1.077018 -6.137918 0.062550 0
M  V30 24 H 2.076781 -4.785566 0.622846 0
M  V30 25 H 0.352373 -4.509985 0.033649 0
M  V30 26 H 3.673858 -4.572069 -0.483227 0
M  V30 27 H 3.800446 -4.364339 -2.295639 0
M  V30 28 H 3.677574 -5.994987 -1.550221 0
M  V30 29 H 0.488581 -5.901656 -2.945661 0
M  V30 30 H 2.208268 -6.499739 -2.990093 0
M  V30 31 H 1.099158 -6.936768 -1.645281 0
M  V30 32 H 0.505288 -1.349045 -3.110000 0
M  V30 33 H 2.291497 0.469314 -1.559521 0
M  V30 34 H 1.476432 1.854960 0.255929 0
M  V30 35 H 1.031857 2.722890 2.505167 0
M  V30 36 H -0.041739 3.651481 1.430981 0
M  V30 37 H -0.577757 3.989707 3.795681 0
M  V30 38 H -0.018736 1.666482 4.448842 0
M  V30 39 H -1.630322 2.140582 5.106092 0
M  V30 40 H -1.745511 -0.111372 4.053457 0
M  V30 41 H -3.752682 1.292271 3.423967 0
M  V30 42 H -3.151921 0.178970 2.083364 0
M  V30 43 H -3.744460 2.496150 1.352200 0
M  V30 44 H -3.120037 3.537074 3.419017 0
M  V30 45 H -2.250375 4.346835 2.037374 0
M  V30 46 H -2.167797 1.083690 0.113090 0
M  V30 47 H -1.611255 2.848812 0.123653 0
M  V30 48 H 0.366403 0.141944 2.740238 0
M  V30 49 H -1.085856 -0.455739 1.781459 0
M  V30 END ATOM
M  V30 BEGIN BOND
M  V30 1 1 1 2
M  V30 2 1 2 3
M  V30 3 1 2 4
M  V30 4 1 2 5
M  V30 5 1 5 6
M  V30 6 2 6 7
M  V30 7 1 6 8
M  V30 8 1 8 9
M  V30 9 1 9 10
M  V30 10 2 10 11
M  V30 11 1 10 12
M  V30 12 1 12 13
M  V30 13 1 13 14
M  V30 14 1 14 15
M  V30 15 1 15 16
M  V30 16 1 16 17
M  V30 17 1 17 18
M  V30 18 1 18 19
M  V30 19 1 19 20
M  V30 20 1 19 21
M  V30 21 1 17 22
M  V30 22 1 21 13
M  V30 23 1 22 13
M  V30 24 1 20 15
M  V30 25 1 1 23
M  V30 26 1 1 24
M  V30 27 1 1 25
M  V30 28 1 3 26
M  V30 29 1 3 27
M  V30 30 1 3 28
M  V30 31 1 4 29
M  V30 32 1 4 30
M  V30 33 1 4 31
M  V30 34 1 8 32
M  V30 35 1 9 33
M  V30 36 1 12 34
M  V30 37 1 14 35
M  V30 38 1 14 36
M  V30 39 1 15 37
M  V30 40 1 16 38
M  V30 41 1 16 39
M  V30 42 1 17 40
M  V30 43 1 18 41
M  V30 44 1 18 42
M  V30 45 1 19 43
M  V30 46 1 20 44
M  V30 47 1 20 45
M  V30 48 1 21 46
M  V30 49 1 21 47
M  V30 50 1 22 48
M  V30 51 1 22 49
M  V30 END BOND
M  V30 END CTAB
M  END
>  <Dataset>  (779) 
ChEMBL_Kinases

>  <Ligand_Instance>  (779) 
nan

>  <PDB_ID>  (779) 
nan

>  <Standardized_SMILES>  (779) 
CC(C)(C)OC(=O)NNC(=O)NC12CC3CC(CC(C3)C1)C2

>  <Name>  (779) 
nan

>  <Pocket>  (779) 
nan

>  <ATP_Site>  (779) 
nan

>  <Peripheral>  (779) 
nan

>  <Num_H_Atoms_ProtBoundConf>  (779) 
nan

>  <Num_Resolved_Atoms>  (779) 
nan

>  <Num_Not_Resolved_Atoms>  (779) 
nan

$$$$
CHEMBL1600661
     RDKit          3D

  0  0  0  0  0  0  0  0  0  0999 V3000
M  V30 BEGIN CTAB
M  V30 COUNTS 29 31 0 0 0
M  V30 BEGIN ATOM
M  V30 1 O 0.712275 1.265575 3.000374 0
M  V30 2 C 0.967348 0.153467 2.467919 0
M  V30 3 N 1.897612 -0.572928 3.150610 0
M  V30 4 C 2.302491 -1.805243 2.725517 0
M  V30 5 S 3.404807 -2.677752 3.525157 0
M  V30 6 C 1.708834 -2.263812 1.562936 0
M  V30 7 C 0.763007 -1.541854 0.855791 0
M  V30 8 N 0.404591 -0.339805 1.319700 0
M  V30 9 C -0.523079 0.559428 0.776791 0
M  V30 10 C -1.790125 0.199039 0.364151 0
M  V30 11 C -2.683985 1.107395 -0.167603 0
M  V30 12 C -2.358725 2.434650 -0.317262 0
M  V30 13 C -1.089921 2.859987 0.082614 0
M  V30 14 C -0.256139 1.906018 0.600707 0
M  V30 15 C 0.310409 -2.234314 -0.299607 0
M  V30 16 C 1.508989 -3.099580 -0.632876 0
M  V30 17 C 1.888207 -3.547870 0.791490 0
M  V30 18 H 2.350802 -0.239924 4.024680 0
M  V30 19 H -2.109160 -0.849227 0.458454 0
M  V30 20 H -3.692179 0.835948 -0.499123 0
M  V30 21 H -3.037729 3.143913 -0.725192 0
M  V30 22 H -0.820513 3.879828 -0.024882 0
M  V30 23 H 0.729693 2.296026 0.899099 0
M  V30 24 H -0.424365 -3.014833 0.080936 0
M  V30 25 H -0.203674 -1.789244 -1.098771 0
M  V30 26 H 2.351969 -2.527493 -1.040224 0
M  V30 27 H 1.236085 -4.001373 -1.207805 0
M  V30 28 H 2.953071 -3.856808 0.824435 0
M  V30 29 H 1.222299 -4.331613 1.150677 0
M  V30 END ATOM
M  V30 BEGIN BOND
M  V30 1 2 1 2
M  V30 2 1 2 3
M  V30 3 1 3 4
M  V30 4 2 4 5
M  V30 5 1 4 6
M  V30 6 2 6 7
M  V30 7 1 7 8
M  V30 8 1 8 9
M  V30 9 2 9 10
M  V30 10 1 10 11
M  V30 11 2 11 12
M  V30 12 1 12 13
M  V30 13 2 13 14
M  V30 14 1 7 15
M  V30 15 1 15 16
M  V30 16 1 16 17
M  V30 17 1 8 2
M  V30 18 1 14 9
M  V30 19 1 17 6
M  V30 20 1 3 18
M  V30 21 1 10 19
M  V30 22 1 11 20
M  V30 23 1 12 21
M  V30 24 1 13 22
M  V30 25 1 14 23
M  V30 26 1 15 24
M  V30 27 1 15 25
M  V30 28 1 16 26
M  V30 29 1 16 27
M  V30 30 1 17 28
M  V30 31 1 17 29
M  V30 END BOND
M  V30 END CTAB
M  END
>  <Dataset>  (780) 
ChEMBL_Kinases

>  <Ligand_Instance>  (780) 
nan

>  <PDB_ID>  (780) 
nan

>  <Standardized_SMILES>  (780) 
O=c1[nH]c(=S)c2c(n1-c1ccccc1)CCC2

>  <Name>  (780) 
nan

>  <Pocket>  (780) 
nan

>  <ATP_Site>  (780) 
nan

>  <Peripheral>  (780) 
nan

>  <Num_H_Atoms_ProtBoundConf>  (780) 
nan

>  <Num_Resolved_Atoms>  (780) 
nan

>  <Num_Not_Resolved_Atoms>  (780) 
nan

$$$$
CHEMBL1600555
     RDKit          3D

  0  0  0  0  0  0  0  0  0  0999 V3000
M  V30 BEGIN CTAB
M  V30 COUNTS 60 63 0 0 0
M  V30 BEGIN ATOM
M  V30 1 C 3.270503 3.587538 1.445285 0
M  V30 2 N 3.335135 2.141321 1.271754 0
M  V30 3 C 3.852504 1.286230 2.269460 0
M  V30 4 C 3.116224 0.692040 3.297145 0
M  V30 5 C 3.754728 -0.130657 4.214037 0
M  V30 6 C 5.117219 -0.364864 4.114567 0
M  V30 7 C 5.859260 0.214698 3.104731 0
M  V30 8 C 5.219750 1.044762 2.178334 0
M  V30 9 S 2.706898 1.689003 -0.271000 0
M  V30 10 O 3.452975 2.413427 -1.349662 0
M  V30 11 O 2.771371 0.194321 -0.468285 0
M  V30 12 C 1.032682 2.197559 -0.291320 0
M  V30 13 C 0.727526 3.449139 -0.744771 0
M  V30 14 C -0.594718 3.819912 -0.748353 0
M  V30 15 C -1.574611 2.964490 -0.312153 0
M  V30 16 C -1.327009 1.691112 0.156110 0
M  V30 17 N -2.380391 0.874820 0.586395 0
M  V30 18 C -2.377105 -0.424605 1.086378 0
M  V30 19 O -1.273330 -1.009058 1.189252 0
M  V30 20 C -3.604863 -1.096597 1.480849 0
M  V30 21 C -3.502184 -2.482563 1.978495 0
M  V30 22 N -2.957362 -3.463930 1.092854 0
M  V30 23 C -3.730139 -4.214646 0.160572 0
M  V30 24 O -4.981792 -4.399973 0.063676 0
M  V30 25 C -2.921534 -4.895108 -0.874682 0
M  V30 26 C -3.267853 -4.262426 -2.208407 0
M  V30 27 C -2.254539 -4.497104 -3.277927 0
M  V30 28 C -0.855560 -4.146674 -2.865837 0
M  V30 29 C -0.823596 -3.617356 -1.448433 0
M  V30 30 C -1.514634 -4.558614 -0.495929 0
M  V30 31 C -1.659256 -3.994534 0.859644 0
M  V30 32 O -0.748085 -3.961447 1.764874 0
M  V30 33 C 0.011465 1.378378 0.135260 0
M  V30 34 H 2.258969 3.963034 1.162867 0
M  V30 35 H 3.977075 4.083908 0.750278 0
M  V30 36 H 3.480527 3.889837 2.497241 0
M  V30 37 H 2.062974 0.923595 3.306001 0
M  V30 38 H 3.111051 -0.561168 4.992802 0
M  V30 39 H 5.585712 -1.017570 4.853759 0
M  V30 40 H 6.918701 0.000690 3.070354 0
M  V30 41 H 5.885111 1.453723 1.422892 0
M  V30 42 H 1.443088 4.168829 -1.100105 0
M  V30 43 H -0.866735 4.807452 -1.103054 0
M  V30 44 H -2.605626 3.341552 -0.349317 0
M  V30 45 H -3.345011 1.300418 0.528476 0
M  V30 46 H -4.031076 -0.484013 2.331808 0
M  V30 47 H -4.391654 -1.053491 0.697274 0
M  V30 48 H -3.000225 -2.518496 2.994095 0
M  V30 49 H -4.557052 -2.806406 2.231651 0
M  V30 50 H -3.118850 -5.988824 -0.886579 0
M  V30 51 H -4.225873 -4.695817 -2.536188 0
M  V30 52 H -3.433723 -3.176348 -2.062635 0
M  V30 53 H -2.305992 -5.509337 -3.708662 0
M  V30 54 H -2.511207 -3.780737 -4.111121 0
M  V30 55 H -0.321788 -3.463876 -3.523927 0
M  V30 56 H -0.279107 -5.116379 -2.819257 0
M  V30 57 H -1.318474 -2.648631 -1.397981 0
M  V30 58 H 0.210418 -3.509948 -1.093154 0
M  V30 59 H -0.880827 -5.473963 -0.453280 0
M  V30 60 H 0.336587 0.408407 0.477720 0
M  V30 END ATOM
M  V30 BEGIN BOND
M  V30 1 1 1 2
M  V30 2 1 2 3
M  V30 3 2 3 4
M  V30 4 1 4 5
M  V30 5 2 5 6
M  V30 6 1 6 7
M  V30 7 2 7 8
M  V30 8 1 2 9
M  V30 9 2 9 10
M  V30 10 2 9 11
M  V30 11 1 9 12
M  V30 12 2 12 13
M  V30 13 1 13 14
M  V30 14 2 14 15
M  V30 15 1 15 16
M  V30 16 1 16 17
M  V30 17 1 17 18
M  V30 18 2 18 19
M  V30 19 1 18 20
M  V30 20 1 20 21
M  V30 21 1 21 22
M  V30 22 1 22 23
M  V30 23 2 23 24
M  V30 24 1 23 25
M  V30 25 1 25 26
M  V30 26 1 26 27
M  V30 27 1 27 28
M  V30 28 1 28 29
M  V30 29 1 29 30
M  V30 30 1 30 31
M  V30 31 2 31 32
M  V30 32 2 16 33
M  V30 33 1 8 3
M  V30 34 1 33 12
M  V30 35 1 31 22
M  V30 36 1 30 25
M  V30 37 1 1 34
M  V30 38 1 1 35
M  V30 39 1 1 36
M  V30 40 1 4 37
M  V30 41 1 5 38
M  V30 42 1 6 39
M  V30 43 1 7 40
M  V30 44 1 8 41
M  V30 45 1 13 42
M  V30 46 1 14 43
M  V30 47 1 15 44
M  V30 48 1 17 45
M  V30 49 1 20 46
M  V30 50 1 20 47
M  V30 51 1 21 48
M  V30 52 1 21 49
M  V30 53 1 25 50
M  V30 54 1 26 51
M  V30 55 1 26 52
M  V30 56 1 27 53
M  V30 57 1 27 54
M  V30 58 1 28 55
M  V30 59 1 28 56
M  V30 60 1 29 57
M  V30 61 1 29 58
M  V30 62 1 30 59
M  V30 63 1 33 60
M  V30 END BOND
M  V30 END CTAB
M  END
>  <Dataset>  (781) 
ChEMBL_Kinases

>  <Ligand_Instance>  (781) 
nan

>  <PDB_ID>  (781) 
nan

>  <Standardized_SMILES>  (781) 
CN(c1ccccc1)S(=O)(=O)c1cccc(NC(=O)CCN2C(=O)C3CCCCC3C2=O)c1

>  <Name>  (781) 
nan

>  <Pocket>  (781) 
nan

>  <ATP_Site>  (781) 
nan

>  <Peripheral>  (781) 
nan

>  <Num_H_Atoms_ProtBoundConf>  (781) 
nan

>  <Num_Resolved_Atoms>  (781) 
nan

>  <Num_Not_Resolved_Atoms>  (781) 
nan

$$$$
CHEMBL1600468
     RDKit          3D

  0  0  0  0  0  0  0  0  0  0999 V3000
M  V30 BEGIN CTAB
M  V30 COUNTS 38 40 0 0 0
M  V30 BEGIN ATOM
M  V30 1 N 3.808018 -0.942150 2.216427 0
M  V30 2 C 2.677106 -1.030909 2.070129 0
M  V30 3 C 1.257931 -1.154078 1.875619 0
M  V30 4 C 0.466184 -0.164733 2.448100 0
M  V30 5 C -0.893718 -0.234989 2.293811 0
M  V30 6 C -1.435715 -1.282943 1.576533 0
M  V30 7 N -0.672016 -2.246565 1.018493 0
M  V30 8 C 0.655586 -2.189465 1.161674 0
M  V30 9 S 1.807459 -3.399210 0.473571 0
M  V30 10 C 2.294637 -2.861441 -1.175624 0
M  V30 11 C 3.083600 -1.617687 -1.174436 0
M  V30 12 C 2.407190 -0.423153 -1.263051 0
M  V30 13 C 2.991872 0.836675 -1.276659 0
M  V30 14 C 4.382013 0.792629 -1.189232 0
M  V30 15 N 5.104720 -0.334947 -1.100326 0
M  V30 16 C 4.454911 -1.511063 -1.094108 0
M  V30 17 C -2.881202 -1.531137 1.300249 0
M  V30 18 C -3.393091 -0.306990 0.560583 0
M  V30 19 C -3.663554 0.853088 1.487907 0
M  V30 20 C -2.432825 1.613352 1.873196 0
M  V30 21 C -1.636487 0.876793 2.949372 0
M  V30 22 H 0.897130 0.638637 2.999649 0
M  V30 23 H 1.428244 -2.757393 -1.862473 0
M  V30 24 H 2.936011 -3.683035 -1.607974 0
M  V30 25 H 1.312367 -0.432120 -1.330034 0
M  V30 26 H 2.437837 1.744905 -1.346884 0
M  V30 27 H 4.952948 1.713056 -1.190515 0
M  V30 28 H 5.006153 -2.457578 -1.022685 0
M  V30 29 H -3.012442 -2.418003 0.669714 0
M  V30 30 H -3.435959 -1.605666 2.257739 0
M  V30 31 H -2.766315 0.006326 -0.273180 0
M  V30 32 H -4.377036 -0.613252 0.133172 0
M  V30 33 H -4.303359 1.554839 0.912994 0
M  V30 34 H -4.223394 0.546332 2.380393 0
M  V30 35 H -2.687538 2.616736 2.224925 0
M  V30 36 H -1.719544 1.679237 1.002610 0
M  V30 37 H -0.957653 1.527048 3.501018 0
M  V30 38 H -2.395351 0.377720 3.601487 0
M  V30 END ATOM
M  V30 BEGIN BOND
M  V30 1 3 1 2
M  V30 2 1 2 3
M  V30 3 2 3 4
M  V30 4 1 4 5
M  V30 5 2 5 6
M  V30 6 1 6 7
M  V30 7 2 7 8
M  V30 8 1 8 9
M  V30 9 1 9 10
M  V30 10 1 10 11
M  V30 11 2 11 12
M  V30 12 1 12 13
M  V30 13 2 13 14
M  V30 14 1 14 15
M  V30 15 2 15 16
M  V30 16 1 6 17
M  V30 17 1 17 18
M  V30 18 1 18 19
M  V30 19 1 19 20
M  V30 20 1 20 21
M  V30 21 1 8 3
M  V30 22 1 16 11
M  V30 23 1 21 5
M  V30 24 1 4 22
M  V30 25 1 10 23
M  V30 26 1 10 24
M  V30 27 1 12 25
M  V30 28 1 13 26
M  V30 29 1 14 27
M  V30 30 1 16 28
M  V30 31 1 17 29
M  V30 32 1 17 30
M  V30 33 1 18 31
M  V30 34 1 18 32
M  V30 35 1 19 33
M  V30 36 1 19 34
M  V30 37 1 20 35
M  V30 38 1 20 36
M  V30 39 1 21 37
M  V30 40 1 21 38
M  V30 END BOND
M  V30 END CTAB
M  END
>  <Dataset>  (782) 
ChEMBL_Kinases

>  <Ligand_Instance>  (782) 
nan

>  <PDB_ID>  (782) 
nan

>  <Standardized_SMILES>  (782) 
N#Cc1cc2c(nc1SCc1cccnc1)CCCCC2

>  <Name>  (782) 
nan

>  <Pocket>  (782) 
nan

>  <ATP_Site>  (782) 
nan

>  <Peripheral>  (782) 
nan

>  <Num_H_Atoms_ProtBoundConf>  (782) 
nan

>  <Num_Resolved_Atoms>  (782) 
nan

>  <Num_Not_Resolved_Atoms>  (782) 
nan

$$$$
CHEMBL1600390
     RDKit          3D

  0  0  0  0  0  0  0  0  0  0999 V3000
M  V30 BEGIN CTAB
M  V30 COUNTS 48 51 0 0 0
M  V30 BEGIN ATOM
M  V30 1 C -1.707948 -4.152597 3.959136 0
M  V30 2 N -1.945191 -3.336875 2.789461 0
M  V30 3 C -1.771239 -2.015391 2.625551 0
M  V30 4 C -2.116622 -1.619391 1.346681 0
M  V30 5 C -2.072767 -0.243789 0.754726 0
M  V30 6 C -0.901225 -0.187064 -0.120477 0
M  V30 7 O -0.801644 -1.371633 0.285862 0
M  V30 8 N -0.054198 0.485906 -1.008660 0
M  V30 9 C -0.056888 1.848505 -1.556034 0
M  V30 10 C 1.366994 2.406904 -1.457269 0
M  V30 11 N 2.166573 1.641780 -0.524367 0
M  V30 12 C 2.672695 2.139128 0.687766 0
M  V30 13 C 2.404836 3.408223 1.147552 0
M  V30 14 C 2.911806 3.903134 2.354419 0
M  V30 15 C 3.715106 3.127424 3.148552 0
M  V30 16 Cl 4.340930 3.743822 4.642410 0
M  V30 17 C 4.004190 1.834564 2.707615 0
M  V30 18 C 3.480070 1.391333 1.508200 0
M  V30 19 C 2.379949 0.291410 -0.991571 0
M  V30 20 C 1.066477 -0.282720 -1.514744 0
M  V30 21 C -2.518712 -2.809210 0.734726 0
M  V30 22 C -2.973892 -3.042761 -0.550635 0
M  V30 23 C -3.332847 -4.307829 -0.990632 0
M  V30 24 C -3.225658 -5.348416 -0.106139 0
M  V30 25 C -2.768469 -5.125468 1.190775 0
M  V30 26 C -2.410025 -3.859824 1.628898 0
M  V30 27 H -0.937141 -4.934200 3.746641 0
M  V30 28 H -1.225348 -3.492779 4.723929 0
M  V30 29 H -2.640236 -4.599075 4.328475 0
M  V30 30 H -1.407540 -1.377197 3.411228 0
M  V30 31 H -1.889476 0.450753 1.613469 0
M  V30 32 H -3.018743 0.025601 0.245119 0
M  V30 33 H -0.754921 2.513298 -1.038172 0
M  V30 34 H -0.342120 1.761734 -2.643843 0
M  V30 35 H 1.357962 3.480798 -1.255994 0
M  V30 36 H 1.845435 2.267377 -2.470246 0
M  V30 37 H 1.785662 4.102096 0.605823 0
M  V30 38 H 2.692980 4.903290 2.703063 0
M  V30 39 H 4.635857 1.256813 3.355650 0
M  V30 40 H 3.776683 0.394791 1.289914 0
M  V30 41 H 3.093865 0.357229 -1.858508 0
M  V30 42 H 2.753630 -0.408531 -0.241922 0
M  V30 43 H 1.004824 -1.366928 -1.285679 0
M  V30 44 H 1.071869 -0.167572 -2.620668 0
M  V30 45 H -3.049837 -2.205905 -1.231580 0
M  V30 46 H -3.679513 -4.383217 -2.023546 0
M  V30 47 H -3.503858 -6.327522 -0.448894 0
M  V30 48 H -2.678310 -5.937227 1.898663 0
M  V30 END ATOM
M  V30 BEGIN BOND
M  V30 1 1 1 2
M  V30 2 1 2 3
M  V30 3 2 3 4
M  V30 4 1 4 5
M  V30 5 1 5 6
M  V30 6 2 6 7
M  V30 7 1 6 8
M  V30 8 1 8 9
M  V30 9 1 9 10
M  V30 10 1 10 11
M  V30 11 1 11 12
M  V30 12 2 12 13
M  V30 13 1 13 14
M  V30 14 2 14 15
M  V30 15 1 15 16
M  V30 16 1 15 17
M  V30 17 2 17 18
M  V30 18 1 11 19
M  V30 19 1 19 20
M  V30 20 1 4 21
M  V30 21 2 21 22
M  V30 22 1 22 23
M  V30 23 2 23 24
M  V30 24 1 24 25
M  V30 25 2 25 26
M  V30 26 1 26 2
M  V30 27 1 20 8
M  V30 28 1 26 21
M  V30 29 1 18 12
M  V30 30 1 1 27
M  V30 31 1 1 28
M  V30 32 1 1 29
M  V30 33 1 3 30
M  V30 34 1 5 31
M  V30 35 1 5 32
M  V30 36 1 9 33
M  V30 37 1 9 34
M  V30 38 1 10 35
M  V30 39 1 10 36
M  V30 40 1 13 37
M  V30 41 1 14 38
M  V30 42 1 17 39
M  V30 43 1 18 40
M  V30 44 1 19 41
M  V30 45 1 19 42
M  V30 46 1 20 43
M  V30 47 1 20 44
M  V30 48 1 22 45
M  V30 49 1 23 46
M  V30 50 1 24 47
M  V30 51 1 25 48
M  V30 END BOND
M  V30 END CTAB
M  END
>  <Dataset>  (783) 
ChEMBL_Kinases

>  <Ligand_Instance>  (783) 
nan

>  <PDB_ID>  (783) 
nan

>  <Standardized_SMILES>  (783) 
Cn1cc(CC(=O)N2CCN(c3ccc(Cl)cc3)CC2)c2ccccc21

>  <Name>  (783) 
nan

>  <Pocket>  (783) 
nan

>  <ATP_Site>  (783) 
nan

>  <Peripheral>  (783) 
nan

>  <Num_H_Atoms_ProtBoundConf>  (783) 
nan

>  <Num_Resolved_Atoms>  (783) 
nan

>  <Num_Not_Resolved_Atoms>  (783) 
nan

$$$$
CHEMBL1600317
     RDKit          3D

  0  0  0  0  0  0  0  0  0  0999 V3000
M  V30 BEGIN CTAB
M  V30 COUNTS 45 46 0 0 0
M  V30 BEGIN ATOM
M  V30 1 C 2.886577 -3.559734 -2.488138 0
M  V30 2 O 3.767779 -4.070250 -1.598361 0
M  V30 3 C 4.437178 -3.290114 -0.722313 0
M  V30 4 C 3.650622 -2.370842 0.164116 0
M  V30 5 N 2.920503 -1.375466 -0.542336 0
M  V30 6 C 2.039163 -0.421491 -0.012735 0
M  V30 7 O 1.872692 -0.439791 1.255677 0
M  V30 8 C 1.289376 0.586763 -0.743465 0
M  V30 9 C 1.396035 0.723551 -2.121329 0
M  V30 10 C 0.650882 1.717933 -2.713210 0
M  V30 11 C -0.198944 2.603578 -2.092009 0
M  V30 12 C -0.263776 2.419224 -0.728933 0
M  V30 13 C 0.452689 1.446766 -0.069818 0
M  V30 14 N 0.301826 1.321855 1.339328 0
M  V30 15 C -0.761099 0.343973 1.421963 0
M  V30 16 O -1.236429 -0.104358 0.316616 0
M  V30 17 C -1.521112 -0.346168 2.490562 0
M  V30 18 C -1.268598 -1.690947 2.635623 0
M  V30 19 C -1.968129 -2.361799 3.632321 0
M  V30 20 C -2.862049 -1.682804 4.417473 0
M  V30 21 C -3.040211 -0.336188 4.188351 0
M  V30 22 N -3.986967 0.268937 5.060047 0 CHG=1 VAL=4
M  V30 23 O -4.946217 -0.308398 5.608865 0
M  V30 24 O -4.171520 1.554421 5.557424 0 CHG=-1 VAL=1
M  V30 25 C -2.398854 0.410067 3.232390 0
M  V30 26 C -2.618823 1.855988 3.015148 0
M  V30 27 H 2.002664 -3.082599 -1.967960 0
M  V30 28 H 2.443321 -4.338541 -3.168145 0
M  V30 29 H 3.340514 -2.829625 -3.213384 0
M  V30 30 H 5.172387 -3.895952 -0.093642 0
M  V30 31 H 5.151748 -2.652563 -1.339497 0
M  V30 32 H 4.377957 -1.885968 0.874020 0
M  V30 33 H 2.943704 -2.966387 0.825681 0
M  V30 34 H 2.985851 -1.185510 -1.580065 0
M  V30 35 H 2.024310 0.094456 -2.729328 0
M  V30 36 H 0.748464 1.807387 -3.789813 0
M  V30 37 H -0.747710 3.357466 -2.635191 0
M  V30 38 H -0.919995 3.083780 -0.143439 0
M  V30 39 H 0.543180 1.552993 2.317144 0
M  V30 40 H -0.577267 -2.244000 2.036415 0
M  V30 41 H -1.776662 -3.420836 3.753892 0
M  V30 42 H -3.375112 -2.258604 5.173358 0
M  V30 43 H -3.588750 1.988348 2.533648 0
M  V30 44 H -1.800770 2.266265 2.353963 0
M  V30 45 H -2.541595 2.342182 4.009231 0
M  V30 END ATOM
M  V30 BEGIN BOND
M  V30 1 1 1 2
M  V30 2 1 2 3
M  V30 3 1 3 4
M  V30 4 1 4 5
M  V30 5 1 5 6
M  V30 6 2 6 7
M  V30 7 1 6 8
M  V30 8 2 8 9
M  V30 9 1 9 10
M  V30 10 2 10 11
M  V30 11 1 11 12
M  V30 12 2 12 13
M  V30 13 1 13 14
M  V30 14 1 14 15
M  V30 15 2 15 16
M  V30 16 1 15 17
M  V30 17 2 17 18
M  V30 18 1 18 19
M  V30 19 2 19 20
M  V30 20 1 20 21
M  V30 21 1 21 22
M  V30 22 2 22 23
M  V30 23 1 22 24
M  V30 24 2 21 25
M  V30 25 1 25 26
M  V30 26 1 13 8
M  V30 27 1 25 17
M  V30 28 1 1 27
M  V30 29 1 1 28
M  V30 30 1 1 29
M  V30 31 1 3 30
M  V30 32 1 3 31
M  V30 33 1 4 32
M  V30 34 1 4 33
M  V30 35 1 5 34
M  V30 36 1 9 35
M  V30 37 1 10 36
M  V30 38 1 11 37
M  V30 39 1 12 38
M  V30 40 1 14 39
M  V30 41 1 18 40
M  V30 42 1 19 41
M  V30 43 1 20 42
M  V30 44 1 26 43
M  V30 45 1 26 44
M  V30 46 1 26 45
M  V30 END BOND
M  V30 END CTAB
M  END
>  <Dataset>  (784) 
ChEMBL_Kinases

>  <Ligand_Instance>  (784) 
nan

>  <PDB_ID>  (784) 
nan

>  <Standardized_SMILES>  (784) 
COCCNC(=O)c1ccccc1NC(=O)c1cccc([N+](=O)[O-])c1C

>  <Name>  (784) 
nan

>  <Pocket>  (784) 
nan

>  <ATP_Site>  (784) 
nan

>  <Peripheral>  (784) 
nan

>  <Num_H_Atoms_ProtBoundConf>  (784) 
nan

>  <Num_Resolved_Atoms>  (784) 
nan

>  <Num_Not_Resolved_Atoms>  (784) 
nan

$$$$
CHEMBL1600303
     RDKit          3D

  0  0  0  0  0  0  0  0  0  0999 V3000
M  V30 BEGIN CTAB
M  V30 COUNTS 19 19 0 0 0
M  V30 BEGIN ATOM
M  V30 1 O 0.206323 -2.214288 2.889326 0
M  V30 2 C 0.592773 -1.019996 3.067128 0
M  V30 3 O 0.019936 -0.490095 4.201924 0
M  V30 4 C 1.515285 -0.239887 2.232669 0
M  V30 5 O 1.672090 1.031317 2.800496 0
M  V30 6 C 1.085837 -0.137815 0.822525 0
M  V30 7 C 1.830816 0.818273 0.154877 0
M  V30 8 C 1.628741 1.115685 -1.193191 0
M  V30 9 C 0.641520 0.416864 -1.868936 0
M  V30 10 C -0.090733 -0.523889 -1.209940 0
M  V30 11 C 0.116142 -0.814810 0.132926 0
M  V30 12 H -0.888563 -0.751020 4.546945 0
M  V30 13 H 2.525278 -0.740932 2.211635 0
M  V30 14 H 1.063423 1.691169 2.356533 0
M  V30 15 H 2.639960 1.444357 0.562350 0
M  V30 16 H 2.174369 1.843527 -1.757947 0
M  V30 17 H 0.360346 0.527246 -2.911295 0
M  V30 18 H -0.888879 -1.126970 -1.651643 0
M  V30 19 H -0.406167 -1.537107 0.744549 0
M  V30 END ATOM
M  V30 BEGIN BOND
M  V30 1 2 1 2
M  V30 2 1 2 3
M  V30 3 1 2 4
M  V30 4 1 4 5
M  V30 5 1 4 6
M  V30 6 2 6 7
M  V30 7 1 7 8
M  V30 8 2 8 9
M  V30 9 1 9 10
M  V30 10 2 10 11
M  V30 11 1 11 6
M  V30 12 1 3 12
M  V30 13 1 4 13
M  V30 14 1 5 14
M  V30 15 1 7 15
M  V30 16 1 8 16
M  V30 17 1 9 17
M  V30 18 1 10 18
M  V30 19 1 11 19
M  V30 END BOND
M  V30 END CTAB
M  END
>  <Dataset>  (785) 
ChEMBL_Kinases

>  <Ligand_Instance>  (785) 
nan

>  <PDB_ID>  (785) 
nan

>  <Standardized_SMILES>  (785) 
O=C(O)C(O)c1ccccc1

>  <Name>  (785) 
nan

>  <Pocket>  (785) 
nan

>  <ATP_Site>  (785) 
nan

>  <Peripheral>  (785) 
nan

>  <Num_H_Atoms_ProtBoundConf>  (785) 
nan

>  <Num_Resolved_Atoms>  (785) 
nan

>  <Num_Not_Resolved_Atoms>  (785) 
nan

$$$$
CHEMBL1601458
     RDKit          3D

  0  0  0  0  0  0  0  0  0  0999 V3000
M  V30 BEGIN CTAB
M  V30 COUNTS 37 39 0 0 0
M  V30 BEGIN ATOM
M  V30 1 O 3.850377 0.863994 1.716404 0
M  V30 2 S 2.660899 -0.077676 1.629577 0
M  V30 3 O 1.980928 0.015477 2.967120 0
M  V30 4 C 3.253830 -1.698776 1.463061 0
M  V30 5 C 4.427217 -1.902758 0.721206 0
M  V30 6 C 4.805224 -3.228017 0.656337 0
M  V30 7 C 4.194575 -4.324800 1.208607 0
M  V30 8 C 3.048548 -4.025927 1.919362 0
M  V30 9 C 2.556275 -2.726806 2.062798 0
M  V30 10 N 1.563909 0.403059 0.417791 0
M  V30 11 C 1.779965 0.509559 -1.030127 0
M  V30 12 C 0.764811 1.578302 -1.426052 0
M  V30 13 N -0.250091 1.452356 -0.429976 0
M  V30 14 C 0.186531 0.809695 0.578238 0
M  V30 15 S -0.697054 0.398130 2.066052 0
M  V30 16 C -2.382365 0.979927 2.111635 0
M  V30 17 C -3.296953 0.378693 1.143449 0
M  V30 18 C -3.485591 0.982984 -0.098463 0
M  V30 19 C -4.341960 0.428534 -1.023170 0
M  V30 20 C -5.012295 -0.737344 -0.700856 0
M  V30 21 N -4.846078 -1.336113 0.488230 0
M  V30 22 C -4.003422 -0.797879 1.408547 0
M  V30 23 H 4.990042 -1.124698 0.244264 0
M  V30 24 H 5.719346 -3.404605 0.081351 0
M  V30 25 H 4.573053 -5.310038 1.096274 0
M  V30 26 H 2.474506 -4.815162 2.405265 0
M  V30 27 H 1.660102 -2.548987 2.626464 0
M  V30 28 H 2.796718 0.823368 -1.293930 0
M  V30 29 H 1.449823 -0.427950 -1.541347 0
M  V30 30 H 0.269782 1.339551 -2.407565 0
M  V30 31 H 1.203288 2.571210 -1.538422 0
M  V30 32 H -2.433018 2.106528 2.107266 0
M  V30 33 H -2.767425 0.722808 3.141943 0
M  V30 34 H -2.998558 1.893326 -0.415657 0
M  V30 35 H -4.569566 0.791164 -1.997253 0
M  V30 36 H -5.716670 -1.305282 -1.301824 0
M  V30 37 H -3.811057 -1.212267 2.386374 0
M  V30 END ATOM
M  V30 BEGIN BOND
M  V30 1 2 1 2
M  V30 2 2 2 3
M  V30 3 1 2 4
M  V30 4 2 4 5
M  V30 5 1 5 6
M  V30 6 2 6 7
M  V30 7 1 7 8
M  V30 8 2 8 9
M  V30 9 1 2 10
M  V30 10 1 10 11
M  V30 11 1 11 12
M  V30 12 1 12 13
M  V30 13 2 13 14
M  V30 14 1 14 15
M  V30 15 1 15 16
M  V30 16 1 16 17
M  V30 17 2 17 18
M  V30 18 1 18 19
M  V30 19 2 19 20
M  V30 20 1 20 21
M  V30 21 2 21 22
M  V30 22 1 9 4
M  V30 23 1 14 10
M  V30 24 1 22 17
M  V30 25 1 5 23
M  V30 26 1 6 24
M  V30 27 1 7 25
M  V30 28 1 8 26
M  V30 29 1 9 27
M  V30 30 1 11 28
M  V30 31 1 11 29
M  V30 32 1 12 30
M  V30 33 1 12 31
M  V30 34 1 16 32
M  V30 35 1 16 33
M  V30 36 1 18 34
M  V30 37 1 19 35
M  V30 38 1 20 36
M  V30 39 1 22 37
M  V30 END BOND
M  V30 END CTAB
M  END
>  <Dataset>  (786) 
ChEMBL_Kinases

>  <Ligand_Instance>  (786) 
nan

>  <PDB_ID>  (786) 
nan

>  <Standardized_SMILES>  (786) 
O=S(=O)(c1ccccc1)N1CCN=C1SCc1cccnc1

>  <Name>  (786) 
nan

>  <Pocket>  (786) 
nan

>  <ATP_Site>  (786) 
nan

>  <Peripheral>  (786) 
nan

>  <Num_H_Atoms_ProtBoundConf>  (786) 
nan

>  <Num_Resolved_Atoms>  (786) 
nan

>  <Num_Not_Resolved_Atoms>  (786) 
nan

$$$$
CHEMBL1605310
     RDKit          3D

  0  0  0  0  0  0  0  0  0  0999 V3000
M  V30 BEGIN CTAB
M  V30 COUNTS 50 53 0 0 0
M  V30 BEGIN ATOM
M  V30 1 O 0.377673 -4.878313 0.786664 0
M  V30 2 C -0.071239 -3.705224 1.033729 0
M  V30 3 C 1.026474 -2.784454 1.296722 0
M  V30 4 C 2.019879 -3.202510 2.185120 0
M  V30 5 C 3.098144 -2.384077 2.490678 0
M  V30 6 C 3.164281 -1.144411 1.892937 0
M  V30 7 C 2.208690 -0.688566 1.010998 0
M  V30 8 N 2.288018 0.589370 0.405123 0
M  V30 9 C 1.422311 1.236138 -0.517033 0
M  V30 10 O 0.262988 0.829504 -0.836327 0
M  V30 11 C 1.958175 2.457942 -1.114825 0
M  V30 12 C 1.010157 3.608603 -1.119992 0
M  V30 13 C 1.610774 4.938322 -1.011786 0
M  V30 14 C 2.744126 5.107448 -0.361291 0
M  V30 15 C 3.432429 3.973626 0.270297 0
M  V30 16 C 3.263078 2.661132 -0.443960 0
M  V30 17 C 3.294684 1.577423 0.575168 0
M  V30 18 O 4.184841 1.625214 1.476092 0
M  V30 19 C 1.160156 -1.533840 0.739769 0
M  V30 20 N -1.487266 -3.418535 1.031341 0
M  V30 21 C -1.933486 -2.065449 1.312278 0
M  V30 22 C -3.283396 -2.021513 1.949623 0
M  V30 23 C -4.390269 -2.207960 0.926429 0
M  V30 24 C -4.628784 -3.717681 0.885969 0
M  V30 25 C -3.561834 -4.298697 0.009235 0
M  V30 26 C -2.282348 -4.591238 0.736229 0
M  V30 27 H 1.965083 -4.184077 2.656036 0
M  V30 28 H 3.868182 -2.724407 3.183458 0
M  V30 29 H 4.028562 -0.559605 2.175150 0
M  V30 30 H 2.198234 2.203541 -2.191393 0
M  V30 31 H 0.192243 3.441343 -0.358347 0
M  V30 32 H 0.441417 3.582921 -2.095725 0
M  V30 33 H 1.133804 5.807964 -1.464046 0
M  V30 34 H 3.167827 6.122829 -0.295538 0
M  V30 35 H 3.136947 3.932236 1.347227 0
M  V30 36 H 4.536419 4.215318 0.239611 0
M  V30 37 H 4.145538 2.458143 -1.121380 0
M  V30 38 H 0.354579 -1.296156 0.073866 0
M  V30 39 H -1.224228 -1.573479 2.011727 0
M  V30 40 H -2.019582 -1.565117 0.331496 0
M  V30 41 H -3.413371 -0.980288 2.347919 0
M  V30 42 H -3.434833 -2.739476 2.775341 0
M  V30 43 H -4.041648 -1.827170 -0.055467 0
M  V30 44 H -5.279312 -1.655031 1.242087 0
M  V30 45 H -5.614057 -3.898392 0.416508 0
M  V30 46 H -4.614284 -4.157718 1.888985 0
M  V30 47 H -3.924598 -5.204195 -0.553258 0
M  V30 48 H -3.355063 -3.548478 -0.799426 0
M  V30 49 H -2.566993 -5.146738 1.676006 0
M  V30 50 H -1.667604 -5.307659 0.129242 0
M  V30 END ATOM
M  V30 BEGIN BOND
M  V30 1 2 1 2
M  V30 2 1 2 3
M  V30 3 2 3 4
M  V30 4 1 4 5
M  V30 5 2 5 6
M  V30 6 1 6 7
M  V30 7 1 7 8
M  V30 8 1 8 9
M  V30 9 2 9 10
M  V30 10 1 9 11
M  V30 11 1 11 12
M  V30 12 1 12 13
M  V30 13 2 13 14
M  V30 14 1 14 15
M  V30 15 1 15 16
M  V30 16 1 16 17
M  V30 17 2 17 18
M  V30 18 2 7 19
M  V30 19 1 2 20
M  V30 20 1 20 21
M  V30 21 1 21 22
M  V30 22 1 22 23
M  V30 23 1 23 24
M  V30 24 1 24 25
M  V30 25 1 25 26
M  V30 26 1 19 3
M  V30 27 1 26 20
M  V30 28 1 17 8
M  V30 29 1 16 11
M  V30 30 1 4 27
M  V30 31 1 5 28
M  V30 32 1 6 29
M  V30 33 1 11 30
M  V30 34 1 12 31
M  V30 35 1 12 32
M  V30 36 1 13 33
M  V30 37 1 14 34
M  V30 38 1 15 35
M  V30 39 1 15 36
M  V30 40 1 16 37
M  V30 41 1 19 38
M  V30 42 1 21 39
M  V30 43 1 21 40
M  V30 44 1 22 41
M  V30 45 1 22 42
M  V30 46 1 23 43
M  V30 47 1 23 44
M  V30 48 1 24 45
M  V30 49 1 24 46
M  V30 50 1 25 47
M  V30 51 1 25 48
M  V30 52 1 26 49
M  V30 53 1 26 50
M  V30 END BOND
M  V30 END CTAB
M  END
>  <Dataset>  (787) 
ChEMBL_Kinases

>  <Ligand_Instance>  (787) 
nan

>  <PDB_ID>  (787) 
nan

>  <Standardized_SMILES>  (787) 
O=C(c1cccc(N2C(=O)C3CC=CCC3C2=O)c1)N1CCCCCC1

>  <Name>  (787) 
nan

>  <Pocket>  (787) 
nan

>  <ATP_Site>  (787) 
nan

>  <Peripheral>  (787) 
nan

>  <Num_H_Atoms_ProtBoundConf>  (787) 
nan

>  <Num_Resolved_Atoms>  (787) 
nan

>  <Num_Not_Resolved_Atoms>  (787) 
nan

$$$$
CHEMBL1605290
     RDKit          3D

  0  0  0  0  0  0  0  0  0  0999 V3000
M  V30 BEGIN CTAB
M  V30 COUNTS 39 41 0 0 0
M  V30 BEGIN ATOM
M  V30 1 O 1.882047 -1.998026 3.415290 0
M  V30 2 C 1.497155 -3.174977 3.228282 0
M  V30 3 O 1.908096 -3.983922 4.292527 0
M  V30 4 C 0.723625 -3.680743 2.066963 0
M  V30 5 C 1.338648 -3.306275 0.745671 0
M  V30 6 C 1.492955 -1.850965 0.533674 0
M  V30 7 C 2.682486 -1.212513 0.897530 0
M  V30 8 C 2.632263 0.138937 0.603235 0
M  V30 9 C 1.353961 0.276603 0.043799 0
M  V30 10 C 0.909673 1.589143 -0.389720 0
M  V30 11 C 0.344226 1.848338 -1.611469 0
M  V30 12 C -0.098603 3.104871 -2.035324 0
M  V30 13 C 0.069589 4.144013 -1.108913 0
M  V30 14 Cl -0.491614 5.725375 -1.658629 0
M  V30 15 C 0.634891 3.924987 0.134454 0
M  V30 16 C 1.058588 2.654457 0.506141 0
M  V30 17 N 0.709957 -0.899357 0.016357 0
M  V30 18 C -0.597607 -1.246111 -0.430928 0
M  V30 19 C -1.545984 -1.124617 0.726794 0
M  V30 20 C -2.861811 -1.537155 0.608741 0
M  V30 21 C -3.462855 -1.297542 1.828089 0
M  V30 22 C -2.454890 -0.747030 2.615650 0
M  V30 23 O -1.332412 -0.653492 1.947155 0
M  V30 24 H 1.816869 -3.755243 5.265875 0
M  V30 25 H 0.701636 -4.803131 2.078585 0
M  V30 26 H -0.329600 -3.378662 2.186655 0
M  V30 27 H 0.725996 -3.775466 -0.084816 0
M  V30 28 H 2.320400 -3.841866 0.653844 0
M  V30 29 H 3.576264 -1.653343 1.346896 0
M  V30 30 H 3.417494 0.871612 0.781925 0
M  V30 31 H 0.215999 1.061381 -2.340259 0
M  V30 32 H -0.535052 3.252033 -3.005869 0
M  V30 33 H 0.716135 4.805067 0.774709 0
M  V30 34 H 1.489006 2.594472 1.510192 0
M  V30 35 H -0.975031 -0.613344 -1.232215 0
M  V30 36 H -0.637001 -2.303387 -0.851771 0
M  V30 37 H -3.444619 -1.971575 -0.198759 0
M  V30 38 H -4.468805 -1.435454 2.248852 0
M  V30 39 H -2.395115 -0.387901 3.636905 0
M  V30 END ATOM
M  V30 BEGIN BOND
M  V30 1 2 1 2
M  V30 2 1 2 3
M  V30 3 1 2 4
M  V30 4 1 4 5
M  V30 5 1 5 6
M  V30 6 2 6 7
M  V30 7 1 7 8
M  V30 8 2 8 9
M  V30 9 1 9 10
M  V30 10 2 10 11
M  V30 11 1 11 12
M  V30 12 2 12 13
M  V30 13 1 13 14
M  V30 14 1 13 15
M  V30 15 2 15 16
M  V30 16 1 9 17
M  V30 17 1 17 18
M  V30 18 1 18 19
M  V30 19 2 19 20
M  V30 20 1 20 21
M  V30 21 2 21 22
M  V30 22 1 22 23
M  V30 23 1 17 6
M  V30 24 1 23 19
M  V30 25 1 16 10
M  V30 26 1 3 24
M  V30 27 1 4 25
M  V30 28 1 4 26
M  V30 29 1 5 27
M  V30 30 1 5 28
M  V30 31 1 7 29
M  V30 32 1 8 30
M  V30 33 1 11 31
M  V30 34 1 12 32
M  V30 35 1 15 33
M  V30 36 1 16 34
M  V30 37 1 18 35
M  V30 38 1 18 36
M  V30 39 1 20 37
M  V30 40 1 21 38
M  V30 41 1 22 39
M  V30 END BOND
M  V30 END CTAB
M  END
>  <Dataset>  (788) 
ChEMBL_Kinases

>  <Ligand_Instance>  (788) 
nan

>  <PDB_ID>  (788) 
nan

>  <Standardized_SMILES>  (788) 
O=C(O)CCc1ccc(-c2ccc(Cl)cc2)n1Cc1ccco1

>  <Name>  (788) 
nan

>  <Pocket>  (788) 
nan

>  <ATP_Site>  (788) 
nan

>  <Peripheral>  (788) 
nan

>  <Num_H_Atoms_ProtBoundConf>  (788) 
nan

>  <Num_Resolved_Atoms>  (788) 
nan

>  <Num_Not_Resolved_Atoms>  (788) 
nan

$$$$
CHEMBL1605274
     RDKit          3D

  0  0  0  0  0  0  0  0  0  0999 V3000
M  V30 BEGIN CTAB
M  V30 COUNTS 35 38 0 0 0
M  V30 BEGIN ATOM
M  V30 1 C -1.543234 -3.700477 -0.082999 0
M  V30 2 C -0.067335 -3.767612 0.006383 0
M  V30 3 N 0.714976 -4.872958 -0.150976 0
M  V30 4 N 2.003171 -4.530804 0.003728 0
M  V30 5 C 2.070634 -3.199762 0.263139 0
M  V30 6 C 3.301922 -2.399049 0.501671 0
M  V30 7 C 0.782545 -2.698030 0.269946 0
M  V30 8 N 0.361954 -1.356597 0.497529 0
M  V30 9 C 0.256324 -0.500197 -0.658206 0
M  V30 10 O 0.527746 -0.938961 -1.801867 0
M  V30 11 C -0.176407 0.886721 -0.439736 0
M  V30 12 C -0.287894 1.738161 -1.537150 0
M  V30 13 C -0.691520 3.045850 -1.366250 0
M  V30 14 C -0.986181 3.502865 -0.079557 0
M  V30 15 C -0.870453 2.645965 0.996751 0
M  V30 16 C -1.178707 3.172143 2.230454 0
M  V30 17 Br -1.733265 4.989609 2.416717 0
M  V30 18 C -1.087114 2.377291 3.354619 0
M  V30 19 C -0.684990 1.065082 3.206268 0
M  V30 20 C -0.375016 0.534646 1.968736 0
M  V30 21 C -0.469114 1.338711 0.843091 0
M  V30 22 C 0.050612 -0.848253 1.797615 0
M  V30 23 O 0.149704 -1.617643 2.802403 0
M  V30 24 H -1.793891 -2.716951 -0.544466 0
M  V30 25 H -1.982203 -3.723766 0.934300 0
M  V30 26 H -1.920855 -4.505390 -0.749032 0
M  V30 27 H 2.827604 -5.191809 -0.065678 0
M  V30 28 H 3.171705 -1.409618 -0.011818 0
M  V30 29 H 3.386322 -2.119047 1.591713 0
M  V30 30 H 4.206967 -2.898708 0.164323 0
M  V30 31 H -0.057603 1.380134 -2.540824 0
M  V30 32 H -0.793576 3.746291 -2.186496 0
M  V30 33 H -1.305198 4.553118 0.016678 0
M  V30 34 H -1.324372 2.764915 4.344820 0
M  V30 35 H -0.589096 0.382674 4.033463 0
M  V30 END ATOM
M  V30 BEGIN BOND
M  V30 1 1 1 2
M  V30 2 2 2 3
M  V30 3 1 3 4
M  V30 4 1 4 5
M  V30 5 1 5 6
M  V30 6 2 5 7
M  V30 7 1 7 8
M  V30 8 1 8 9
M  V30 9 2 9 10
M  V30 10 1 9 11
M  V30 11 2 11 12
M  V30 12 1 12 13
M  V30 13 2 13 14
M  V30 14 1 14 15
M  V30 15 2 15 16
M  V30 16 1 16 17
M  V30 17 1 16 18
M  V30 18 2 18 19
M  V30 19 1 19 20
M  V30 20 2 20 21
M  V30 21 1 20 22
M  V30 22 2 22 23
M  V30 23 1 7 2
M  V30 24 1 22 8
M  V30 25 1 21 11
M  V30 26 1 21 15
M  V30 27 1 1 24
M  V30 28 1 1 25
M  V30 29 1 1 26
M  V30 30 1 4 27
M  V30 31 1 6 28
M  V30 32 1 6 29
M  V30 33 1 6 30
M  V30 34 1 12 31
M  V30 35 1 13 32
M  V30 36 1 14 33
M  V30 37 1 18 34
M  V30 38 1 19 35
M  V30 END BOND
M  V30 END CTAB
M  END
>  <Dataset>  (789) 
ChEMBL_Kinases

>  <Ligand_Instance>  (789) 
nan

>  <PDB_ID>  (789) 
nan

>  <Standardized_SMILES>  (789) 
Cc1n[nH]c(C)c1N1C(=O)c2cccc3c(Br)ccc(c23)C1=O

>  <Name>  (789) 
nan

>  <Pocket>  (789) 
nan

>  <ATP_Site>  (789) 
nan

>  <Peripheral>  (789) 
nan

>  <Num_H_Atoms_ProtBoundConf>  (789) 
nan

>  <Num_Resolved_Atoms>  (789) 
nan

>  <Num_Not_Resolved_Atoms>  (789) 
nan

$$$$
CHEMBL1605155
     RDKit          3D

  0  0  0  0  0  0  0  0  0  0999 V3000
M  V30 BEGIN CTAB
M  V30 COUNTS 43 45 0 0 0
M  V30 BEGIN ATOM
M  V30 1 C 3.856249 -6.754978 -2.695582 0
M  V30 2 C 4.932214 -5.841180 -2.192898 0
M  V30 3 C 4.380267 -4.782707 -1.273893 0
M  V30 4 N 4.122201 -4.542796 -0.036394 0
M  V30 5 N 3.621610 -3.430237 0.324199 0
M  V30 6 C 3.330106 -2.482883 -0.409813 0
M  V30 7 N 2.750385 -1.227191 0.110475 0
M  V30 8 C 1.351177 -1.322186 0.119047 0
M  V30 9 O 0.694907 -2.342772 -0.266383 0
M  V30 10 C 0.539466 -0.172211 0.604874 0
M  V30 11 C -0.935790 -0.446997 0.544753 0
M  V30 12 C -1.631632 0.896759 0.357975 0
M  V30 13 N -0.966808 1.840374 1.237603 0
M  V30 14 C -1.565311 2.382353 2.415055 0
M  V30 15 N -0.921115 3.266486 3.223000 0
M  V30 16 C -1.544286 3.751272 4.336446 0
M  V30 17 C -2.826916 3.319176 4.606116 0
M  V30 18 C -3.488555 2.414108 3.780549 0
M  V30 19 C -4.844765 2.058737 4.209266 0
M  V30 20 N -2.815922 1.965717 2.684604 0
M  V30 21 C 0.382389 2.229111 0.862594 0
M  V30 22 C 0.879493 1.129512 -0.078711 0
M  V30 23 S 3.815001 -3.152752 -2.044534 0
M  V30 24 H 2.844684 -6.484128 -2.285119 0
M  V30 25 H 3.996867 -7.819812 -2.469382 0
M  V30 26 H 3.742752 -6.665539 -3.801371 0
M  V30 27 H 5.462253 -5.354984 -3.040504 0
M  V30 28 H 5.606063 -6.423412 -1.550212 0
M  V30 29 H 3.293536 -0.418556 0.415091 0
M  V30 30 H 0.801963 -0.030511 1.674271 0
M  V30 31 H -1.246267 -0.946775 1.465836 0
M  V30 32 H -1.185350 -1.103934 -0.337112 0
M  V30 33 H -1.612817 1.202867 -0.702231 0
M  V30 34 H -2.687465 0.720679 0.682002 0
M  V30 35 H -1.012277 4.451985 4.962036 0
M  V30 36 H -3.291399 3.731416 5.508055 0
M  V30 37 H -5.363342 1.320200 3.576469 0
M  V30 38 H -5.479303 2.975785 4.222986 0
M  V30 39 H -4.816504 1.712988 5.267597 0
M  V30 40 H 1.046143 2.341508 1.745529 0
M  V30 41 H 0.371211 3.166474 0.285246 0
M  V30 42 H 0.401550 1.250087 -1.051680 0
M  V30 43 H 1.988306 1.239565 -0.097066 0
M  V30 END ATOM
M  V30 BEGIN BOND
M  V30 1 1 1 2
M  V30 2 1 2 3
M  V30 3 2 3 4
M  V30 4 1 4 5
M  V30 5 2 5 6
M  V30 6 1 6 7
M  V30 7 1 7 8
M  V30 8 2 8 9
M  V30 9 1 8 10
M  V30 10 1 10 11
M  V30 11 1 11 12
M  V30 12 1 12 13
M  V30 13 1 13 14
M  V30 14 2 14 15
M  V30 15 1 15 16
M  V30 16 2 16 17
M  V30 17 1 17 18
M  V30 18 1 18 19
M  V30 19 2 18 20
M  V30 20 1 13 21
M  V30 21 1 21 22
M  V30 22 1 6 23
M  V30 23 1 23 3
M  V30 24 1 22 10
M  V30 25 1 20 14
M  V30 26 1 1 24
M  V30 27 1 1 25
M  V30 28 1 1 26
M  V30 29 1 2 27
M  V30 30 1 2 28
M  V30 31 1 7 29
M  V30 32 1 10 30
M  V30 33 1 11 31
M  V30 34 1 11 32
M  V30 35 1 12 33
M  V30 36 1 12 34
M  V30 37 1 16 35
M  V30 38 1 17 36
M  V30 39 1 19 37
M  V30 40 1 19 38
M  V30 41 1 19 39
M  V30 42 1 21 40
M  V30 43 1 21 41
M  V30 44 1 22 42
M  V30 45 1 22 43
M  V30 END BOND
M  V30 END CTAB
M  END
>  <Dataset>  (790) 
ChEMBL_Kinases

>  <Ligand_Instance>  (790) 
nan

>  <PDB_ID>  (790) 
nan

>  <Standardized_SMILES>  (790) 
CCc1nnc(NC(=O)C2CCN(c3nccc(C)n3)CC2)s1

>  <Name>  (790) 
nan

>  <Pocket>  (790) 
nan

>  <ATP_Site>  (790) 
nan

>  <Peripheral>  (790) 
nan

>  <Num_H_Atoms_ProtBoundConf>  (790) 
nan

>  <Num_Resolved_Atoms>  (790) 
nan

>  <Num_Not_Resolved_Atoms>  (790) 
nan

$$$$
CHEMBL1605110
     RDKit          3D

  0  0  0  0  0  0  0  0  0  0999 V3000
M  V30 BEGIN CTAB
M  V30 COUNTS 38 40 0 0 0
M  V30 BEGIN ATOM
M  V30 1 C 3.668213 -4.429569 4.025998 0
M  V30 2 O 2.288303 -4.204071 3.804636 0
M  V30 3 C 1.922152 -3.172181 2.951147 0
M  V30 4 C 2.809556 -2.343283 2.297236 0
M  V30 5 C 2.411709 -1.326017 1.454849 0
M  V30 6 C 1.069739 -1.107239 1.239993 0
M  V30 7 C 0.527344 -0.066804 0.374814 0
M  V30 8 C 1.310740 0.821773 -0.330581 0
M  V30 9 C 0.799920 1.806897 -1.149670 0
M  V30 10 C 1.655121 2.759202 -1.905263 0
M  V30 11 F 2.965357 2.756067 -1.468841 0
M  V30 12 F 1.619354 2.406880 -3.250325 0
M  V30 13 F 1.118128 4.039966 -1.761672 0
M  V30 14 N -0.530153 1.936367 -1.291240 0
M  V30 15 N -1.324038 2.756454 -1.983033 0
M  V30 16 C -2.621149 2.409464 -1.734211 0
M  V30 17 C -3.813982 3.044933 -2.285845 0
M  V30 18 O -4.985563 2.673526 -2.013649 0
M  V30 19 O -3.698779 4.118806 -3.160791 0
M  V30 20 C -2.644502 1.341147 -0.861439 0
M  V30 21 C -1.296881 1.070215 -0.603727 0
M  V30 22 N -0.811911 0.104538 0.198764 0
M  V30 23 C 0.169139 -1.928194 1.887057 0
M  V30 24 C 0.584678 -2.929703 2.717032 0
M  V30 25 O -0.347078 -3.756236 3.367822 0
M  V30 26 C -1.734709 -3.588790 3.193712 0
M  V30 27 H 4.153532 -4.955300 3.177878 0
M  V30 28 H 4.159310 -3.467531 4.226312 0
M  V30 29 H 3.753167 -5.016195 4.968479 0
M  V30 30 H 3.864981 -2.499153 2.452972 0
M  V30 31 H 3.120861 -0.694896 0.957858 0
M  V30 32 H 2.381580 0.764984 -0.255394 0
M  V30 33 H -4.399296 4.388436 -3.831276 0
M  V30 34 H -3.524917 0.847173 -0.481262 0
M  V30 35 H -0.892824 -1.813638 1.764919 0
M  V30 36 H -1.922132 -3.641545 2.105459 0
M  V30 37 H -2.252606 -4.360971 3.766406 0
M  V30 38 H -2.077648 -2.566646 3.517052 0
M  V30 END ATOM
M  V30 BEGIN BOND
M  V30 1 1 1 2
M  V30 2 1 2 3
M  V30 3 2 3 4
M  V30 4 1 4 5
M  V30 5 2 5 6
M  V30 6 1 6 7
M  V30 7 1 7 8
M  V30 8 2 8 9
M  V30 9 1 9 10
M  V30 10 1 10 11
M  V30 11 1 10 12
M  V30 12 1 10 13
M  V30 13 1 9 14
M  V30 14 1 14 15
M  V30 15 2 15 16
M  V30 16 1 16 17
M  V30 17 2 17 18
M  V30 18 1 17 19
M  V30 19 1 16 20
M  V30 20 2 20 21
M  V30 21 1 21 22
M  V30 22 1 6 23
M  V30 23 2 23 24
M  V30 24 1 24 25
M  V30 25 1 25 26
M  V30 26 1 24 3
M  V30 27 2 22 7
M  V30 28 1 21 14
M  V30 29 1 1 27
M  V30 30 1 1 28
M  V30 31 1 1 29
M  V30 32 1 4 30
M  V30 33 1 5 31
M  V30 34 1 8 32
M  V30 35 1 19 33
M  V30 36 1 20 34
M  V30 37 1 23 35
M  V30 38 1 26 36
M  V30 39 1 26 37
M  V30 40 1 26 38
M  V30 END BOND
M  V30 END CTAB
M  END
>  <Dataset>  (791) 
ChEMBL_Kinases

>  <Ligand_Instance>  (791) 
nan

>  <PDB_ID>  (791) 
nan

>  <Standardized_SMILES>  (791) 
COc1ccc(-c2cc(C(F)(F)F)n3nc(C(=O)O)cc3n2)cc1OC

>  <Name>  (791) 
nan

>  <Pocket>  (791) 
nan

>  <ATP_Site>  (791) 
nan

>  <Peripheral>  (791) 
nan

>  <Num_H_Atoms_ProtBoundConf>  (791) 
nan

>  <Num_Resolved_Atoms>  (791) 
nan

>  <Num_Not_Resolved_Atoms>  (791) 
nan

$$$$
CHEMBL1605001
     RDKit          3D

  0  0  0  0  0  0  0  0  0  0999 V3000
M  V30 BEGIN CTAB
M  V30 COUNTS 58 60 0 0 0
M  V30 BEGIN ATOM
M  V30 1 C 2.290089 -4.180142 5.811648 0
M  V30 2 C 3.735072 -3.891472 5.457005 0
M  V30 3 O 3.908767 -2.746610 4.707131 0
M  V30 4 C 3.439091 -2.401831 3.481896 0
M  V30 5 C 3.893311 -1.129160 3.155512 0
M  V30 6 C 3.544493 -0.529706 1.925710 0
M  V30 7 C 2.724674 -1.259223 1.038716 0
M  V30 8 C 2.419130 -0.566915 -0.209622 0
M  V30 9 N 2.790827 0.595409 -0.732482 0
M  V30 10 C 2.228044 0.804337 -1.934426 0
M  V30 11 C 2.500458 2.092730 -2.597821 0
M  V30 12 S 1.361914 3.349633 -2.086980 0
M  V30 13 C -0.351234 3.123780 -2.463875 0
M  V30 14 C -1.050154 2.046703 -1.721175 0
M  V30 15 O -1.724576 1.201231 -2.337150 0
M  V30 16 N -1.016727 1.892561 -0.308818 0
M  V30 17 C -1.717180 0.796125 0.347967 0
M  V30 18 C -3.177377 0.738403 0.106487 0
M  V30 19 N -3.705571 -0.409611 0.835470 0
M  V30 20 C -5.120473 -0.599960 0.544873 0
M  V30 21 C -5.308997 -1.116137 -0.876563 0
M  V30 22 O -4.583684 -2.245935 -1.147191 0
M  V30 23 C -3.230960 -2.046871 -0.920817 0
M  V30 24 C -3.053394 -1.644399 0.529681 0
M  V30 25 C 1.455835 -0.348935 -2.129010 0
M  V30 26 C 0.677149 -0.478503 -3.380427 0
M  V30 27 O 1.604538 -1.119373 -1.086947 0
M  V30 28 C 2.282142 -2.514477 1.368256 0
M  V30 29 C 2.644081 -3.064963 2.579166 0
M  V30 30 H 2.135968 -5.292565 5.835435 0
M  V30 31 H 1.566178 -3.737831 5.122953 0
M  V30 32 H 2.050576 -3.793268 6.835431 0
M  V30 33 H 4.154608 -4.810959 5.001009 0
M  V30 34 H 4.272373 -3.715982 6.437188 0
M  V30 35 H 4.519752 -0.475107 3.746902 0
M  V30 36 H 3.889457 0.471003 1.653585 0
M  V30 37 H 2.392703 1.903918 -3.708602 0
M  V30 38 H 3.575147 2.397394 -2.458599 0
M  V30 39 H -0.901025 4.079477 -2.167127 0
M  V30 40 H -0.546061 3.035325 -3.561232 0
M  V30 41 H -0.452681 2.636691 0.204341 0
M  V30 42 H -1.556036 0.902956 1.442108 0
M  V30 43 H -1.257258 -0.123370 -0.077138 0
M  V30 44 H -3.734948 1.633731 0.492189 0
M  V30 45 H -3.407072 0.541262 -0.951236 0
M  V30 46 H -5.684315 0.332979 0.633945 0
M  V30 47 H -5.474059 -1.421251 1.208686 0
M  V30 48 H -5.122171 -0.312451 -1.609965 0
M  V30 49 H -6.393624 -1.440238 -0.910488 0
M  V30 50 H -2.745759 -1.342861 -1.610529 0
M  V30 51 H -2.772635 -3.074773 -0.991317 0
M  V30 52 H -2.020825 -1.724971 0.888657 0
M  V30 53 H -3.616283 -2.433519 1.111146 0
M  V30 54 H 1.265907 -1.054377 -4.151864 0
M  V30 55 H 0.461057 0.481729 -3.841653 0
M  V30 56 H -0.315905 -0.966213 -3.214786 0
M  V30 57 H 1.658124 -3.050743 0.675393 0
M  V30 58 H 2.344129 -4.030528 2.896622 0
M  V30 END ATOM
M  V30 BEGIN BOND
M  V30 1 1 1 2
M  V30 2 1 2 3
M  V30 3 1 3 4
M  V30 4 2 4 5
M  V30 5 1 5 6
M  V30 6 2 6 7
M  V30 7 1 7 8
M  V30 8 2 8 9
M  V30 9 1 9 10
M  V30 10 1 10 11
M  V30 11 1 11 12
M  V30 12 1 12 13
M  V30 13 1 13 14
M  V30 14 2 14 15
M  V30 15 1 14 16
M  V30 16 1 16 17
M  V30 17 1 17 18
M  V30 18 1 18 19
M  V30 19 1 19 20
M  V30 20 1 20 21
M  V30 21 1 21 22
M  V30 22 1 22 23
M  V30 23 1 23 24
M  V30 24 2 10 25
M  V30 25 1 25 26
M  V30 26 1 25 27
M  V30 27 1 7 28
M  V30 28 2 28 29
M  V30 29 1 29 4
M  V30 30 1 27 8
M  V30 31 1 24 19
M  V30 32 1 1 30
M  V30 33 1 1 31
M  V30 34 1 1 32
M  V30 35 1 2 33
M  V30 36 1 2 34
M  V30 37 1 5 35
M  V30 38 1 6 36
M  V30 39 1 11 37
M  V30 40 1 11 38
M  V30 41 1 13 39
M  V30 42 1 13 40
M  V30 43 1 16 41
M  V30 44 1 17 42
M  V30 45 1 17 43
M  V30 46 1 18 44
M  V30 47 1 18 45
M  V30 48 1 20 46
M  V30 49 1 20 47
M  V30 50 1 21 48
M  V30 51 1 21 49
M  V30 52 1 23 50
M  V30 53 1 23 51
M  V30 54 1 24 52
M  V30 55 1 24 53
M  V30 56 1 26 54
M  V30 57 1 26 55
M  V30 58 1 26 56
M  V30 59 1 28 57
M  V30 60 1 29 58
M  V30 END BOND
M  V30 END CTAB
M  END
>  <Dataset>  (792) 
ChEMBL_Kinases

>  <Ligand_Instance>  (792) 
nan

>  <PDB_ID>  (792) 
nan

>  <Standardized_SMILES>  (792) 
CCOc1ccc(-c2nc(CSCC(=O)NCCN3CCOCC3)c(C)o2)cc1

>  <Name>  (792) 
nan

>  <Pocket>  (792) 
nan

>  <ATP_Site>  (792) 
nan

>  <Peripheral>  (792) 
nan

>  <Num_H_Atoms_ProtBoundConf>  (792) 
nan

>  <Num_Resolved_Atoms>  (792) 
nan

>  <Num_Not_Resolved_Atoms>  (792) 
nan

$$$$
CHEMBL1604690
     RDKit          3D

  0  0  0  0  0  0  0  0  0  0999 V3000
M  V30 BEGIN CTAB
M  V30 COUNTS 51 53 0 0 0
M  V30 BEGIN ATOM
M  V30 1 C 1.993034 -7.881877 1.129990 0
M  V30 2 O 1.835168 -7.460702 -0.200481 0
M  V30 3 C 1.111076 -6.345751 -0.574827 0
M  V30 4 C 0.480294 -5.554817 0.363123 0
M  V30 5 C -0.213478 -4.469367 -0.116261 0
M  V30 6 C -0.330084 -4.105908 -1.465614 0
M  V30 7 C -1.098115 -2.921259 -1.842742 0
M  V30 8 N -0.914319 -1.794651 -1.151710 0
M  V30 9 C -1.556849 -0.759316 -1.442972 0
M  V30 10 N -1.505511 0.558422 -0.821640 0
M  V30 11 C -0.641995 0.781435 0.258567 0
M  V30 12 O 0.038179 -0.246855 0.595358 0
M  V30 13 C -0.445865 2.008181 1.006061 0
M  V30 14 C 0.459980 2.034712 2.049994 0
M  V30 15 C 0.467559 3.317891 2.606651 0
M  V30 16 C 1.261562 3.858485 3.742383 0
M  V30 17 C 2.161557 2.826610 4.326545 0
M  V30 18 C 1.967188 5.093249 3.257995 0
M  V30 19 C 0.325069 4.332419 4.861908 0
M  V30 20 N -0.427309 4.023445 1.887835 0
M  V30 21 N -0.953882 3.225565 0.946832 0
M  V30 22 C -1.954180 3.632265 -0.019698 0
M  V30 23 S -2.610543 -1.106558 -2.794079 0
M  V30 24 C -2.044622 -2.915091 -2.920507 0
M  V30 25 C -2.465565 -3.922162 -3.824635 0
M  V30 26 C 0.320151 -4.936988 -2.320899 0
M  V30 27 C 1.037396 -6.045681 -1.920241 0
M  V30 28 H 2.752228 -8.693151 1.152648 0
M  V30 29 H 1.025909 -8.235661 1.573425 0
M  V30 30 H 2.363453 -7.065420 1.783289 0
M  V30 31 H 0.519919 -5.762824 1.414683 0
M  V30 32 H -0.709132 -3.851076 0.643897 0
M  V30 33 H -2.085574 1.319300 -1.158394 0
M  V30 34 H 1.135993 1.298349 2.506181 0
M  V30 35 H 2.581041 3.204860 5.285667 0
M  V30 36 H 1.536765 1.911171 4.490067 0
M  V30 37 H 3.022398 2.536437 3.710463 0
M  V30 38 H 1.157628 5.729096 2.795663 0
M  V30 39 H 2.791804 4.883095 2.558475 0
M  V30 40 H 2.309528 5.642664 4.154877 0
M  V30 41 H 0.924702 4.912576 5.589234 0
M  V30 42 H -0.522755 4.905698 4.441039 0
M  V30 43 H -0.043393 3.423009 5.368239 0
M  V30 44 H -1.582694 3.634069 -1.068788 0
M  V30 45 H -2.223154 4.724027 0.139264 0
M  V30 46 H -2.934924 3.128836 0.115555 0
M  V30 47 H -2.867221 -4.840189 -3.360576 0
M  V30 48 H -3.320415 -3.525048 -4.450844 0
M  V30 49 H -1.706388 -4.217276 -4.573393 0
M  V30 50 H 0.285318 -4.733766 -3.364792 0
M  V30 51 H 1.540769 -6.681179 -2.638155 0
M  V30 END ATOM
M  V30 BEGIN BOND
M  V30 1 1 1 2
M  V30 2 1 2 3
M  V30 3 2 3 4
M  V30 4 1 4 5
M  V30 5 2 5 6
M  V30 6 1 6 7
M  V30 7 1 7 8
M  V30 8 2 8 9
M  V30 9 1 9 10
M  V30 10 1 10 11
M  V30 11 2 11 12
M  V30 12 1 11 13
M  V30 13 2 13 14
M  V30 14 1 14 15
M  V30 15 1 15 16
M  V30 16 1 16 17
M  V30 17 1 16 18
M  V30 18 1 16 19
M  V30 19 2 15 20
M  V30 20 1 20 21
M  V30 21 1 21 22
M  V30 22 1 9 23
M  V30 23 1 23 24
M  V30 24 1 24 25
M  V30 25 1 6 26
M  V30 26 2 26 27
M  V30 27 1 27 3
M  V30 28 2 24 7
M  V30 29 1 21 13
M  V30 30 1 1 28
M  V30 31 1 1 29
M  V30 32 1 1 30
M  V30 33 1 4 31
M  V30 34 1 5 32
M  V30 35 1 10 33
M  V30 36 1 14 34
M  V30 37 1 17 35
M  V30 38 1 17 36
M  V30 39 1 17 37
M  V30 40 1 18 38
M  V30 41 1 18 39
M  V30 42 1 18 40
M  V30 43 1 19 41
M  V30 44 1 19 42
M  V30 45 1 19 43
M  V30 46 1 22 44
M  V30 47 1 22 45
M  V30 48 1 22 46
M  V30 49 1 25 47
M  V30 50 1 25 48
M  V30 51 1 25 49
M  V30 52 1 26 50
M  V30 53 1 27 51
M  V30 END BOND
M  V30 END CTAB
M  END
>  <Dataset>  (793) 
ChEMBL_Kinases

>  <Ligand_Instance>  (793) 
nan

>  <PDB_ID>  (793) 
nan

>  <Standardized_SMILES>  (793) 
COc1ccc(-c2nc(NC(=O)c3cc(C(C)(C)C)nn3C)sc2C)cc1

>  <Name>  (793) 
nan

>  <Pocket>  (793) 
nan

>  <ATP_Site>  (793) 
nan

>  <Peripheral>  (793) 
nan

>  <Num_H_Atoms_ProtBoundConf>  (793) 
nan

>  <Num_Resolved_Atoms>  (793) 
nan

>  <Num_Not_Resolved_Atoms>  (793) 
nan

$$$$
CHEMBL1604672
     RDKit          3D

  0  0  0  0  0  0  0  0  0  0999 V3000
M  V30 BEGIN CTAB
M  V30 COUNTS 74 80 0 0 0
M  V30 BEGIN ATOM
M  V30 1 C 1.742898 -4.691240 1.961099 0
M  V30 2 C 2.380708 -3.369209 2.358773 0
M  V30 3 C 1.527700 -2.209220 2.087987 0
M  V30 4 C 1.829898 -1.187595 1.299313 0
M  V30 5 C 3.145546 -1.351820 0.693784 0
M  V30 6 C 3.493921 -0.345100 -0.365840 0
M  V30 7 C 2.993203 0.987099 0.036546 0 CFG=1
M  V30 8 C 3.176996 1.917353 -1.106560 0
M  V30 9 O 4.059504 2.842261 -1.155763 0
M  V30 10 N 2.174128 1.541426 -2.084721 0
M  V30 11 C 2.136916 2.122853 -3.435684 0
M  V30 12 C 1.321277 0.551983 -1.437912 0
M  V30 13 O 0.802687 -0.203403 -2.338263 0
M  V30 14 C 1.449982 0.877712 -0.047716 0 CFG=1
M  V30 15 C 1.038344 0.049705 1.072369 0 CFG=1
M  V30 16 C -0.331252 0.111625 1.633311 0 CFG=1
M  V30 17 C -0.458350 1.268431 2.569795 0
M  V30 18 C -1.690900 1.558599 3.253646 0
M  V30 19 C -2.143763 1.232670 4.517518 0
M  V30 20 C -3.369094 1.581587 5.039945 0
M  V30 21 C -4.254026 2.325033 4.267021 0
M  V30 22 C -3.832805 2.669652 2.995691 0
M  V30 23 C -2.597505 2.309583 2.486386 0
M  V30 24 C -1.473365 0.068419 0.662296 0
M  V30 25 N -1.761657 0.251849 -0.595008 0
M  V30 26 C -3.064907 0.102642 -1.174195 0
M  V30 27 C -3.475625 -1.228919 -1.652752 0
M  V30 28 C -2.640855 -1.840042 -2.707979 0
M  V30 29 C -2.885033 -1.831606 -4.064146 0
M  V30 30 N -1.880269 -2.477746 -4.720299 0
M  V30 31 C -1.032959 -2.876197 -3.772876 0
M  V30 32 C 0.133465 -3.589238 -4.024694 0
M  V30 33 C 0.899873 -3.935837 -2.908998 0
M  V30 34 C 0.471501 -3.564829 -1.659711 0
M  V30 35 C -0.673746 -2.865576 -1.404295 0
M  V30 36 C -1.444318 -2.513986 -2.516153 0
M  V30 37 O -2.586565 -0.314419 1.472961 0
M  V30 38 C -2.071121 -1.091306 2.551267 0
M  V30 39 O -2.707055 -1.638627 3.499163 0
M  V30 40 N -0.634566 -1.117624 2.313192 0
M  V30 41 C 0.172085 -2.253307 2.706539 0
M  V30 42 O -0.200314 -3.163349 3.464276 0
M  V30 43 H 1.562601 -5.357087 2.837076 0
M  V30 44 H 0.770157 -4.419403 1.458225 0
M  V30 45 H 2.325710 -5.261712 1.227181 0
M  V30 46 H 2.553429 -3.458737 3.474877 0
M  V30 47 H 3.375747 -3.365253 1.922105 0
M  V30 48 H 3.145203 -2.370471 0.199355 0
M  V30 49 H 4.003190 -1.295727 1.426538 0
M  V30 50 H 2.949934 -0.679735 -1.293067 0
M  V30 51 H 4.579953 -0.372505 -0.595772 0
M  V30 52 H 3.312344 1.357349 1.000527 0
M  V30 53 H 1.174438 2.596136 -3.654916 0
M  V30 54 H 2.325636 1.297907 -4.183617 0
M  V30 55 H 2.981182 2.828346 -3.544828 0
M  V30 56 H 1.139500 1.961135 0.065105 0
M  V30 57 H 1.571156 0.696463 1.925205 0
M  V30 58 H -0.113491 2.184646 1.982159 0
M  V30 59 H 0.350776 1.233358 3.373176 0
M  V30 60 H -1.395732 0.641327 5.075061 0
M  V30 61 H -3.620327 1.275172 6.027874 0
M  V30 62 H -5.213160 2.614401 4.633882 0
M  V30 63 H -4.535672 3.249645 2.404502 0
M  V30 64 H -2.396493 2.647218 1.475657 0
M  V30 65 H -3.196856 0.856868 -2.007125 0
M  V30 66 H -3.778725 0.443328 -0.346757 0
M  V30 67 H -3.622196 -1.965025 -0.823966 0
M  V30 68 H -4.507936 -1.106144 -2.101447 0
M  V30 69 H -3.780386 -1.350988 -4.469815 0
M  V30 70 H -1.860567 -2.590875 -5.762936 0
M  V30 71 H 0.504767 -3.900782 -4.988452 0
M  V30 72 H 1.824726 -4.492920 -3.038833 0
M  V30 73 H 1.103133 -3.858284 -0.843082 0
M  V30 74 H -1.036414 -2.563146 -0.431745 0
M  V30 END ATOM
M  V30 BEGIN BOND
M  V30 1 1 1 2
M  V30 2 1 2 3
M  V30 3 2 3 4
M  V30 4 1 4 5
M  V30 5 1 5 6
M  V30 6 1 6 7
M  V30 7 1 7 8
M  V30 8 2 8 9
M  V30 9 1 8 10
M  V30 10 1 10 11
M  V30 11 1 10 12
M  V30 12 2 12 13
M  V30 13 1 12 14
M  V30 14 1 14 15
M  V30 15 1 15 16
M  V30 16 1 16 17 CFG=1
M  V30 17 1 17 18
M  V30 18 2 18 19
M  V30 19 1 19 20
M  V30 20 2 20 21
M  V30 21 1 21 22
M  V30 22 2 22 23
M  V30 23 1 16 24
M  V30 24 2 24 25
M  V30 25 1 25 26
M  V30 26 1 26 27
M  V30 27 1 27 28
M  V30 28 2 28 29
M  V30 29 1 29 30
M  V30 30 1 30 31
M  V30 31 2 31 32
M  V30 32 1 32 33
M  V30 33 2 33 34
M  V30 34 1 34 35
M  V30 35 2 35 36
M  V30 36 1 24 37
M  V30 37 1 37 38
M  V30 38 2 38 39
M  V30 39 1 38 40
M  V30 40 1 40 41
M  V30 41 2 41 42
M  V30 42 1 41 3
M  V30 43 1 15 4
M  V30 44 1 40 16
M  V30 45 1 14 7
M  V30 46 1 23 18
M  V30 47 1 36 28
M  V30 48 1 36 31
M  V30 49 1 1 43
M  V30 50 1 1 44
M  V30 51 1 1 45
M  V30 52 1 2 46
M  V30 53 1 2 47
M  V30 54 1 5 48
M  V30 55 1 5 49
M  V30 56 1 6 50
M  V30 57 1 6 51
M  V30 58 1 7 52 CFG=1
M  V30 59 1 11 53
M  V30 60 1 11 54
M  V30 61 1 11 55
M  V30 62 1 14 56 CFG=3
M  V30 63 1 15 57 CFG=1
M  V30 64 1 17 58
M  V30 65 1 17 59
M  V30 66 1 19 60
M  V30 67 1 20 61
M  V30 68 1 21 62
M  V30 69 1 22 63
M  V30 70 1 23 64
M  V30 71 1 26 65
M  V30 72 1 26 66
M  V30 73 1 27 67
M  V30 74 1 27 68
M  V30 75 1 29 69
M  V30 76 1 30 70
M  V30 77 1 32 71
M  V30 78 1 33 72
M  V30 79 1 34 73
M  V30 80 1 35 74
M  V30 END BOND
M  V30 END CTAB
M  END
>  <Dataset>  (794) 
ChEMBL_Kinases

>  <Ligand_Instance>  (794) 
nan

>  <PDB_ID>  (794) 
nan

>  <Standardized_SMILES>  (794) 
CCC1=C2CC[C@H]3C(=O)N(C)C(=O)[C@H]3[C@H]2[C@@]2(Cc3ccccc3)/C(=N/CCc3c[nH]c4ccccc34)OC(=O)N2C1=O

>  <Name>  (794) 
nan

>  <Pocket>  (794) 
nan

>  <ATP_Site>  (794) 
nan

>  <Peripheral>  (794) 
nan

>  <Num_H_Atoms_ProtBoundConf>  (794) 
nan

>  <Num_Resolved_Atoms>  (794) 
nan

>  <Num_Not_Resolved_Atoms>  (794) 
nan

$$$$
CHEMBL1604606
     RDKit          3D

  0  0  0  0  0  0  0  0  0  0999 V3000
M  V30 BEGIN CTAB
M  V30 COUNTS 37 38 0 0 0
M  V30 BEGIN ATOM
M  V30 1 C -0.291764 -4.408049 2.430505 0
M  V30 2 S 1.238947 -4.624144 1.492377 0
M  V30 3 C 1.916352 -3.089298 0.932173 0
M  V30 4 N 2.780346 -2.481285 1.775724 0
M  V30 5 C 3.311603 -1.303446 1.366971 0
M  V30 6 N 4.234183 -0.596377 2.200611 0
M  V30 7 N 3.036977 -0.719238 0.202104 0
M  V30 8 C 2.197709 -1.236926 -0.701431 0
M  V30 9 S 1.609144 -0.783529 -2.272926 0
M  V30 10 C 0.135715 0.147176 -2.444307 0
M  V30 11 C 0.044329 1.559551 -2.070529 0
M  V30 12 S 0.301697 2.079973 -0.438317 0
M  V30 13 O 0.026468 3.604603 -0.338977 0
M  V30 14 O 1.710189 1.947899 0.013112 0
M  V30 15 C -0.785760 1.347056 0.707885 0
M  V30 16 C -0.563172 0.210922 1.448939 0
M  V30 17 C -1.433624 -0.359565 2.347441 0
M  V30 18 C -2.665120 0.256412 2.541357 0
M  V30 19 Cl -3.763202 -0.469641 3.680644 0
M  V30 20 C -2.932441 1.400833 1.818383 0
M  V30 21 C -2.031930 1.940430 0.927051 0
M  V30 22 C 1.645764 -2.454085 -0.284455 0
M  V30 23 C 0.700420 -3.239328 -1.069366 0
M  V30 24 N -0.057641 -3.858427 -1.716797 0
M  V30 25 H -0.407766 -5.319203 3.076725 0
M  V30 26 H -0.268424 -3.482358 3.033089 0
M  V30 27 H -1.151450 -4.426812 1.743920 0
M  V30 28 H 5.042938 -0.946702 2.738596 0
M  V30 29 H 4.286385 0.419499 2.442002 0
M  V30 30 H -0.773783 -0.445095 -2.062577 0
M  V30 31 H -0.113858 0.139013 -3.571638 0
M  V30 32 H -1.008870 1.911198 -2.353946 0
M  V30 33 H 0.699582 2.149026 -2.771761 0
M  V30 34 H 0.391721 -0.270591 1.305761 0
M  V30 35 H -1.174774 -1.252463 2.884784 0
M  V30 36 H -3.915488 1.848522 2.007036 0
M  V30 37 H -2.373755 2.848024 0.422805 0
M  V30 END ATOM
M  V30 BEGIN BOND
M  V30 1 1 1 2
M  V30 2 1 2 3
M  V30 3 2 3 4
M  V30 4 1 4 5
M  V30 5 1 5 6
M  V30 6 2 5 7
M  V30 7 1 7 8
M  V30 8 1 8 9
M  V30 9 1 9 10
M  V30 10 1 10 11
M  V30 11 1 11 12
M  V30 12 2 12 13
M  V30 13 2 12 14
M  V30 14 1 12 15
M  V30 15 2 15 16
M  V30 16 1 16 17
M  V30 17 2 17 18
M  V30 18 1 18 19
M  V30 19 1 18 20
M  V30 20 2 20 21
M  V30 21 2 8 22
M  V30 22 1 22 23
M  V30 23 3 23 24
M  V30 24 1 22 3
M  V30 25 1 21 15
M  V30 26 1 1 25
M  V30 27 1 1 26
M  V30 28 1 1 27
M  V30 29 1 6 28
M  V30 30 1 6 29
M  V30 31 1 10 30
M  V30 32 1 10 31
M  V30 33 1 11 32
M  V30 34 1 11 33
M  V30 35 1 16 34
M  V30 36 1 17 35
M  V30 37 1 20 36
M  V30 38 1 21 37
M  V30 END BOND
M  V30 END CTAB
M  END
>  <Dataset>  (795) 
ChEMBL_Kinases

>  <Ligand_Instance>  (795) 
nan

>  <PDB_ID>  (795) 
nan

>  <Standardized_SMILES>  (795) 
CSc1nc(N)nc(SCCS(=O)(=O)c2ccc(Cl)cc2)c1C#N

>  <Name>  (795) 
nan

>  <Pocket>  (795) 
nan

>  <ATP_Site>  (795) 
nan

>  <Peripheral>  (795) 
nan

>  <Num_H_Atoms_ProtBoundConf>  (795) 
nan

>  <Num_Resolved_Atoms>  (795) 
nan

>  <Num_Not_Resolved_Atoms>  (795) 
nan

$$$$
CHEMBL1604588
     RDKit          3D

  0  0  0  0  0  0  0  0  0  0999 V3000
M  V30 BEGIN CTAB
M  V30 COUNTS 55 58 0 0 0
M  V30 BEGIN ATOM
M  V30 1 C 2.206129 -4.224532 4.289579 0
M  V30 2 O 3.141520 -4.321979 3.220925 0
M  V30 3 C 3.085009 -3.357906 2.202437 0
M  V30 4 C 2.147318 -2.365633 2.266771 0
M  V30 5 C 2.106137 -1.432505 1.252801 0
M  V30 6 C 2.924736 -1.362194 0.131812 0
M  V30 7 C 2.923530 -0.412136 -0.951358 0
M  V30 8 C 3.825485 0.741273 -0.633956 0
M  V30 9 C 3.088946 1.970310 -0.166865 0
M  V30 10 O 3.707221 3.062546 -0.068371 0
M  V30 11 C 1.686899 1.919006 0.162307 0
M  V30 12 C 1.139916 2.740564 1.087281 0
M  V30 13 N -0.201248 2.599025 1.333528 0
M  V30 14 C -0.912564 1.676429 0.666309 0
M  V30 15 N -2.234941 1.645876 1.119130 0
M  V30 16 C -3.224549 1.009728 0.422983 0
M  V30 17 O -2.936655 0.494523 -0.700814 0
M  V30 18 C -4.536545 0.463347 0.093940 0
M  V30 19 C -4.964091 1.050083 1.442950 0
M  V30 20 C -6.243504 1.037336 2.130978 0
M  V30 21 C -7.269041 0.350154 1.415965 0
M  V30 22 C -6.962303 -0.226866 0.160476 0
M  V30 23 C -5.658642 0.093448 0.029402 0
M  V30 24 O -5.127792 -0.430021 -1.251842 0
M  V30 25 C -5.910013 -1.133938 -2.118685 0
M  V30 26 N -0.384905 0.854655 -0.256374 0
M  V30 27 C 0.927090 0.965050 -0.514727 0
M  V30 28 C 1.612885 0.077700 -1.466288 0
M  V30 29 C 3.845339 -2.406489 0.149391 0
M  V30 30 O 4.747141 -2.470735 -0.926716 0
M  V30 31 C 5.708741 -3.493500 -0.984466 0
M  V30 32 C 3.926957 -3.353258 1.125257 0
M  V30 33 H 1.983948 -5.197463 4.778751 0
M  V30 34 H 2.538476 -3.428816 4.972719 0
M  V30 35 H 1.245682 -3.911564 3.811925 0
M  V30 36 H 1.419515 -2.193786 3.022490 0
M  V30 37 H 1.347353 -0.632131 1.306355 0
M  V30 38 H 3.387922 -0.959303 -1.836595 0
M  V30 39 H 4.444117 1.005776 -1.541358 0
M  V30 40 H 4.556081 0.510765 0.167471 0
M  V30 41 H 1.762493 3.461249 1.581449 0
M  V30 42 H -2.785436 1.939157 1.916281 0
M  V30 43 H -4.588389 1.662944 2.373388 0
M  V30 44 H -6.764626 1.362217 3.055096 0
M  V30 45 H -8.317349 0.189748 1.688700 0
M  V30 46 H -7.551053 -0.757206 -0.532876 0
M  V30 47 H -6.433397 -2.021844 -1.653043 0
M  V30 48 H -6.690690 -0.525673 -2.653486 0
M  V30 49 H -5.252633 -1.629325 -2.905500 0
M  V30 50 H 1.853367 0.686051 -2.369936 0
M  V30 51 H 0.960219 -0.737957 -1.844111 0
M  V30 52 H 6.533639 -3.250731 -0.251659 0
M  V30 53 H 5.331277 -4.509004 -0.757210 0
M  V30 54 H 6.131365 -3.590583 -2.033777 0
M  V30 55 H 4.648997 -4.172816 1.148413 0
M  V30 END ATOM
M  V30 BEGIN BOND
M  V30 1 1 1 2
M  V30 2 1 2 3
M  V30 3 2 3 4
M  V30 4 1 4 5
M  V30 5 2 5 6
M  V30 6 1 6 7
M  V30 7 1 7 8
M  V30 8 1 8 9
M  V30 9 2 9 10
M  V30 10 1 9 11
M  V30 11 2 11 12
M  V30 12 1 12 13
M  V30 13 2 13 14
M  V30 14 1 14 15
M  V30 15 1 15 16
M  V30 16 2 16 17
M  V30 17 1 16 18
M  V30 18 2 18 19
M  V30 19 1 19 20
M  V30 20 2 20 21
M  V30 21 1 21 22
M  V30 22 2 22 23
M  V30 23 1 23 24
M  V30 24 1 24 25
M  V30 25 1 14 26
M  V30 26 2 26 27
M  V30 27 1 27 28
M  V30 28 1 6 29
M  V30 29 1 29 30
M  V30 30 1 30 31
M  V30 31 2 29 32
M  V30 32 1 32 3
M  V30 33 1 28 7
M  V30 34 1 27 11
M  V30 35 1 23 18
M  V30 36 1 1 33
M  V30 37 1 1 34
M  V30 38 1 1 35
M  V30 39 1 4 36
M  V30 40 1 5 37
M  V30 41 1 7 38
M  V30 42 1 8 39
M  V30 43 1 8 40
M  V30 44 1 12 41
M  V30 45 1 15 42
M  V30 46 1 19 43
M  V30 47 1 20 44
M  V30 48 1 21 45
M  V30 49 1 22 46
M  V30 50 1 25 47
M  V30 51 1 25 48
M  V30 52 1 25 49
M  V30 53 1 28 50
M  V30 54 1 28 51
M  V30 55 1 31 52
M  V30 56 1 31 53
M  V30 57 1 31 54
M  V30 58 1 32 55
M  V30 END BOND
M  V30 END CTAB
M  END
>  <Dataset>  (796) 
ChEMBL_Kinases

>  <Ligand_Instance>  (796) 
nan

>  <PDB_ID>  (796) 
nan

>  <Standardized_SMILES>  (796) 
COc1ccc(C2CC(=O)c3cnc(NC(=O)c4ccccc4OC)nc3C2)c(OC)c1

>  <Name>  (796) 
nan

>  <Pocket>  (796) 
nan

>  <ATP_Site>  (796) 
nan

>  <Peripheral>  (796) 
nan

>  <Num_H_Atoms_ProtBoundConf>  (796) 
nan

>  <Num_Resolved_Atoms>  (796) 
nan

>  <Num_Not_Resolved_Atoms>  (796) 
nan

$$$$
CHEMBL1604555
     RDKit          3D

  0  0  0  0  0  0  0  0  0  0999 V3000
M  V30 BEGIN CTAB
M  V30 COUNTS 41 43 0 0 0
M  V30 BEGIN ATOM
M  V30 1 O 0.176633 -3.545265 3.585278 0
M  V30 2 C 0.304461 -2.459809 2.985886 0
M  V30 3 N 1.115475 -2.363050 1.804749 0
M  V30 4 C 1.830623 -3.508022 1.228783 0
M  V30 5 C 2.571904 -3.001584 0.005880 0
M  V30 6 N 1.612427 -2.455988 -0.923316 0
M  V30 7 C 0.822626 -3.492226 -1.467353 0
M  V30 8 C 0.129195 -3.151439 -2.757917 0
M  V30 9 O 1.017273 -2.556943 -3.643695 0
M  V30 10 C 1.392330 -1.335059 -3.096873 0
M  V30 11 C 2.216084 -1.535407 -1.847019 0
M  V30 12 C -0.355204 -1.239233 3.443344 0
M  V30 13 C -0.309339 0.026291 2.843097 0
M  V30 14 C -1.057212 0.934813 3.557547 0
M  V30 15 C -1.223803 2.337037 3.209561 0
M  V30 16 C -2.002877 3.187530 4.000923 0
M  V30 17 C -2.121953 4.523742 3.596589 0
M  V30 18 C -1.499152 5.026627 2.449013 0
M  V30 19 Br -1.681135 6.840906 1.928228 0
M  V30 20 C -0.739926 4.171205 1.689259 0
M  V30 21 C -0.620657 2.856609 2.084838 0
M  V30 22 O -1.534279 0.227263 4.555292 0
M  V30 23 N -1.144599 -1.008438 4.504630 0
M  V30 24 H 1.192945 -1.411068 1.338281 0
M  V30 25 H 1.132689 -4.293900 0.889376 0
M  V30 26 H 2.495284 -4.002179 1.967903 0
M  V30 27 H 3.103076 -3.878339 -0.419295 0
M  V30 28 H 3.365501 -2.278440 0.276930 0
M  V30 29 H 1.421080 -4.432360 -1.654733 0
M  V30 30 H 0.050243 -3.798748 -0.731758 0
M  V30 31 H -0.163104 -4.126566 -3.247992 0
M  V30 32 H -0.816444 -2.600064 -2.630874 0
M  V30 33 H 2.042935 -0.822181 -3.839048 0
M  V30 34 H 0.532604 -0.663172 -2.910494 0
M  V30 35 H 2.282100 -0.544297 -1.340215 0
M  V30 36 H 3.237765 -1.836035 -2.106356 0
M  V30 37 H 0.233131 0.278154 1.940978 0
M  V30 38 H -2.501562 2.831072 4.901128 0
M  V30 39 H -2.720811 5.231491 4.180071 0
M  V30 40 H -0.238068 4.532842 0.781444 0
M  V30 41 H 0.004575 2.238182 1.423015 0
M  V30 END ATOM
M  V30 BEGIN BOND
M  V30 1 2 1 2
M  V30 2 1 2 3
M  V30 3 1 3 4
M  V30 4 1 4 5
M  V30 5 1 5 6
M  V30 6 1 6 7
M  V30 7 1 7 8
M  V30 8 1 8 9
M  V30 9 1 9 10
M  V30 10 1 10 11
M  V30 11 1 2 12
M  V30 12 1 12 13
M  V30 13 2 13 14
M  V30 14 1 14 15
M  V30 15 2 15 16
M  V30 16 1 16 17
M  V30 17 2 17 18
M  V30 18 1 18 19
M  V30 19 1 18 20
M  V30 20 2 20 21
M  V30 21 1 14 22
M  V30 22 1 22 23
M  V30 23 1 11 6
M  V30 24 2 23 12
M  V30 25 1 21 15
M  V30 26 1 3 24
M  V30 27 1 4 25
M  V30 28 1 4 26
M  V30 29 1 5 27
M  V30 30 1 5 28
M  V30 31 1 7 29
M  V30 32 1 7 30
M  V30 33 1 8 31
M  V30 34 1 8 32
M  V30 35 1 10 33
M  V30 36 1 10 34
M  V30 37 1 11 35
M  V30 38 1 11 36
M  V30 39 1 13 37
M  V30 40 1 16 38
M  V30 41 1 17 39
M  V30 42 1 20 40
M  V30 43 1 21 41
M  V30 END BOND
M  V30 END CTAB
M  END
>  <Dataset>  (797) 
ChEMBL_Kinases

>  <Ligand_Instance>  (797) 
nan

>  <PDB_ID>  (797) 
nan

>  <Standardized_SMILES>  (797) 
O=C(NCCN1CCOCC1)c1cc(-c2ccc(Br)cc2)on1

>  <Name>  (797) 
nan

>  <Pocket>  (797) 
nan

>  <ATP_Site>  (797) 
nan

>  <Peripheral>  (797) 
nan

>  <Num_H_Atoms_ProtBoundConf>  (797) 
nan

>  <Num_Resolved_Atoms>  (797) 
nan

>  <Num_Not_Resolved_Atoms>  (797) 
nan

$$$$
CHEMBL1604546
     RDKit          3D

  0  0  0  0  0  0  0  0  0  0999 V3000
M  V30 BEGIN CTAB
M  V30 COUNTS 54 57 0 0 0
M  V30 BEGIN ATOM
M  V30 1 C 1.500255 -3.580553 4.474696 0
M  V30 2 C 1.261288 -2.856611 3.167051 0
M  V30 3 C -0.170350 -2.981565 2.726955 0
M  V30 4 C 2.248229 -3.343007 2.107121 0
M  V30 5 C 2.438342 -2.271448 1.064630 0
M  V30 6 O 3.356533 -2.441815 0.221500 0
M  V30 7 C 1.588551 -1.085984 1.039091 0
M  V30 8 C 1.149174 -0.642141 2.214902 0
M  V30 9 C 1.567190 -1.396060 3.426978 0
M  V30 10 O 0.343199 0.475679 2.239401 0
M  V30 11 C -0.048811 1.181817 1.111339 0
M  V30 12 C 0.394521 0.726838 -0.024645 0
M  V30 13 C 0.053688 1.383188 -1.302032 0
M  V30 14 O 0.532173 1.102677 -2.443565 0
M  V30 15 C -0.934966 2.487686 -1.346942 0
M  V30 16 C -1.713738 2.611584 -0.072520 0
M  V30 17 C -2.184152 4.071787 -0.023869 0
M  V30 18 C -3.004706 1.794719 -0.085470 0
M  V30 19 C -0.918018 2.383523 1.165171 0
M  V30 20 C 1.278011 -0.469833 -0.262708 0
M  V30 21 C 0.480235 -1.405290 -1.133351 0
M  V30 22 C -0.840745 -1.553290 -0.694516 0
M  V30 23 C -1.688927 -2.381977 -1.394662 0
M  V30 24 C -1.302781 -3.081852 -2.517515 0
M  V30 25 O -2.140259 -3.921762 -3.237763 0
M  V30 26 C 0.024230 -2.903275 -2.918390 0
M  V30 27 C 0.905522 -2.087734 -2.251859 0
M  V30 28 O 2.212957 -1.874931 -2.597838 0
M  V30 29 H 2.381156 -3.101130 4.961554 0
M  V30 30 H 1.673339 -4.654963 4.369186 0
M  V30 31 H 0.597086 -3.426692 5.097827 0
M  V30 32 H -0.740843 -2.044494 2.925270 0
M  V30 33 H -0.273946 -3.193087 1.652608 0
M  V30 34 H -0.696731 -3.761232 3.340850 0
M  V30 35 H 1.799039 -4.260319 1.681654 0
M  V30 36 H 3.201356 -3.626776 2.572861 0
M  V30 37 H 1.109801 -1.019558 4.342687 0
M  V30 38 H 2.691579 -1.364004 3.532970 0
M  V30 39 H -0.379572 3.435487 -1.519486 0
M  V30 40 H -1.650049 2.405908 -2.187343 0
M  V30 41 H -2.441478 4.405651 -1.054419 0
M  V30 42 H -1.290491 4.646913 0.316470 0
M  V30 43 H -2.983264 4.225399 0.703012 0
M  V30 44 H -2.909954 0.850586 0.490064 0
M  V30 45 H -3.375977 1.645536 -1.113013 0
M  V30 46 H -3.835351 2.352857 0.438020 0
M  V30 47 H -1.617154 2.250210 2.015488 0
M  V30 48 H -0.290546 3.270751 1.414468 0
M  V30 49 H 2.181321 -0.204974 -0.820178 0
M  V30 50 H -1.325398 -1.100414 0.145285 0
M  V30 51 H -2.740338 -2.564265 -1.131719 0
M  V30 52 H -2.743744 -4.541041 -2.688741 0
M  V30 53 H 0.418703 -3.417040 -3.796092 0
M  V30 54 H 2.745770 -2.673130 -2.931772 0
M  V30 END ATOM
M  V30 BEGIN BOND
M  V30 1 1 1 2
M  V30 2 1 2 3
M  V30 3 1 2 4
M  V30 4 1 4 5
M  V30 5 2 5 6
M  V30 6 1 5 7
M  V30 7 2 7 8
M  V30 8 1 8 9
M  V30 9 1 8 10
M  V30 10 1 10 11
M  V30 11 2 11 12
M  V30 12 1 12 13
M  V30 13 2 13 14
M  V30 14 1 13 15
M  V30 15 1 15 16
M  V30 16 1 16 17
M  V30 17 1 16 18
M  V30 18 1 16 19
M  V30 19 1 12 20
M  V30 20 1 20 21
M  V30 21 2 21 22
M  V30 22 1 22 23
M  V30 23 2 23 24
M  V30 24 1 24 25
M  V30 25 1 24 26
M  V30 26 2 26 27
M  V30 27 1 27 28
M  V30 28 1 9 2
M  V30 29 1 19 11
M  V30 30 1 27 21
M  V30 31 1 20 7
M  V30 32 1 1 29
M  V30 33 1 1 30
M  V30 34 1 1 31
M  V30 35 1 3 32
M  V30 36 1 3 33
M  V30 37 1 3 34
M  V30 38 1 4 35
M  V30 39 1 4 36
M  V30 40 1 9 37
M  V30 41 1 9 38
M  V30 42 1 15 39
M  V30 43 1 15 40
M  V30 44 1 17 41
M  V30 45 1 17 42
M  V30 46 1 17 43
M  V30 47 1 18 44
M  V30 48 1 18 45
M  V30 49 1 18 46
M  V30 50 1 19 47
M  V30 51 1 19 48
M  V30 52 1 20 49
M  V30 53 1 22 50
M  V30 54 1 23 51
M  V30 55 1 25 52
M  V30 56 1 26 53
M  V30 57 1 28 54
M  V30 END BOND
M  V30 END CTAB
M  END
>  <Dataset>  (798) 
ChEMBL_Kinases

>  <Ligand_Instance>  (798) 
nan

>  <PDB_ID>  (798) 
nan

>  <Standardized_SMILES>  (798) 
CC1(C)CC(=O)C2=C(C1)OC1=C(C(=O)CC(C)(C)C1)C2c1ccc(O)cc1O

>  <Name>  (798) 
nan

>  <Pocket>  (798) 
nan

>  <ATP_Site>  (798) 
nan

>  <Peripheral>  (798) 
nan

>  <Num_H_Atoms_ProtBoundConf>  (798) 
nan

>  <Num_Resolved_Atoms>  (798) 
nan

>  <Num_Not_Resolved_Atoms>  (798) 
nan

$$$$
CHEMBL1604391
     RDKit          3D

  0  0  0  0  0  0  0  0  0  0999 V3000
M  V30 BEGIN CTAB
M  V30 COUNTS 34 35 0 0 0
M  V30 BEGIN ATOM
M  V30 1 C -1.446829 -2.494018 4.621247 0
M  V30 2 O -2.148358 -2.272494 3.415065 0
M  V30 3 C -1.423705 -2.081376 2.251595 0
M  V30 4 C -0.046266 -2.108969 2.282578 0
M  V30 5 C 0.724062 -1.926114 1.162357 0
M  V30 6 C 0.159939 -1.701542 -0.072169 0
M  V30 7 S 0.937955 -1.432336 -1.616618 0
M  V30 8 O 2.314315 -2.048016 -1.580609 0
M  V30 9 O 0.079717 -2.079710 -2.656006 0
M  V30 10 N 1.025764 0.251778 -1.964116 0
M  V30 11 C 1.688610 1.293974 -1.268119 0
M  V30 12 C 2.429163 1.113147 -0.140224 0
M  V30 13 C 3.092768 2.091367 0.560658 0
M  V30 14 C 3.026041 3.377693 0.113545 0
M  V30 15 C 2.288510 3.571518 -1.013863 0
M  V30 16 N 1.653522 2.597345 -1.673978 0
M  V30 17 C -1.237831 -1.679627 -0.069625 0
M  V30 18 C -2.032577 -1.859461 1.034700 0
M  V30 19 O -3.418982 -1.822877 0.952058 0
M  V30 20 C -4.056880 -1.596485 -0.287929 0
M  V30 21 H -0.949875 -3.469608 4.636233 0
M  V30 22 H -2.198761 -2.521507 5.457002 0
M  V30 23 H -0.702588 -1.683155 4.790198 0
M  V30 24 H 0.485457 -2.280235 3.215962 0
M  V30 25 H 1.806346 -1.946848 1.145940 0
M  V30 26 H 0.518376 0.609436 -2.825929 0
M  V30 27 H 2.543149 0.127101 0.284515 0
M  V30 28 H 3.675657 1.880336 1.467407 0
M  V30 29 H 3.514618 4.192810 0.603759 0
M  V30 30 H 2.178580 4.562904 -1.443855 0
M  V30 31 H -1.782268 -1.509174 -0.997338 0
M  V30 32 H -3.659690 -2.305777 -1.050233 0
M  V30 33 H -3.902676 -0.553840 -0.675268 0
M  V30 34 H -5.136870 -1.839724 -0.200696 0
M  V30 END ATOM
M  V30 BEGIN BOND
M  V30 1 1 1 2
M  V30 2 1 2 3
M  V30 3 2 3 4
M  V30 4 1 4 5
M  V30 5 2 5 6
M  V30 6 1 6 7
M  V30 7 2 7 8
M  V30 8 2 7 9
M  V30 9 1 7 10
M  V30 10 1 10 11
M  V30 11 2 11 12
M  V30 12 1 12 13
M  V30 13 2 13 14
M  V30 14 1 14 15
M  V30 15 2 15 16
M  V30 16 1 6 17
M  V30 17 2 17 18
M  V30 18 1 18 19
M  V30 19 1 19 20
M  V30 20 1 18 3
M  V30 21 1 16 11
M  V30 22 1 1 21
M  V30 23 1 1 22
M  V30 24 1 1 23
M  V30 25 1 4 24
M  V30 26 1 5 25
M  V30 27 1 10 26
M  V30 28 1 12 27
M  V30 29 1 13 28
M  V30 30 1 14 29
M  V30 31 1 15 30
M  V30 32 1 17 31
M  V30 33 1 20 32
M  V30 34 1 20 33
M  V30 35 1 20 34
M  V30 END BOND
M  V30 END CTAB
M  END
>  <Dataset>  (799) 
ChEMBL_Kinases

>  <Ligand_Instance>  (799) 
nan

>  <PDB_ID>  (799) 
nan

>  <Standardized_SMILES>  (799) 
COc1ccc(S(=O)(=O)Nc2ccccn2)cc1OC

>  <Name>  (799) 
nan

>  <Pocket>  (799) 
nan

>  <ATP_Site>  (799) 
nan

>  <Peripheral>  (799) 
nan

>  <Num_H_Atoms_ProtBoundConf>  (799) 
nan

>  <Num_Resolved_Atoms>  (799) 
nan

>  <Num_Not_Resolved_Atoms>  (799) 
nan

$$$$
CHEMBL1604166
     RDKit          3D

  0  0  0  0  0  0  0  0  0  0999 V3000
M  V30 BEGIN CTAB
M  V30 COUNTS 30 31 0 0 0
M  V30 BEGIN ATOM
M  V30 1 C -1.181261 -0.903120 5.114133 0
M  V30 2 C -0.832917 -0.807283 3.714577 0
M  V30 3 S 0.780507 -0.458999 3.094924 0
M  V30 4 C 0.410532 -0.508418 1.369047 0
M  V30 5 N 1.388628 -0.286715 0.346074 0
M  V30 6 C 2.206067 -1.229016 -0.291607 0
M  V30 7 O 2.199887 -2.462609 -0.047901 0
M  V30 8 C 3.105376 -0.740337 -1.286684 0
M  V30 9 C 3.358487 0.476075 -1.773780 0
M  V30 10 C 4.285014 0.717952 -2.747841 0
M  V30 11 C 4.974051 -0.530979 -3.197761 0
M  V30 12 S 4.191261 -1.862608 -2.158305 0
M  V30 13 C -0.988842 -0.801291 1.345015 0
M  V30 14 C -1.590108 -0.904232 0.033181 0
M  V30 15 N -2.892190 -1.168027 -0.382367 0
M  V30 16 O -0.921866 -0.747627 -1.002524 0
M  V30 17 C -1.582115 -0.945597 2.562369 0
M  V30 18 C -3.025903 -1.254199 2.714785 0
M  V30 19 H -2.261769 -0.668082 5.210349 0
M  V30 20 H -0.925471 -1.863643 5.608708 0
M  V30 21 H -0.649006 -0.105470 5.676990 0
M  V30 22 H 1.406153 0.735407 0.131557 0
M  V30 23 H 2.788422 1.295844 -1.361788 0
M  V30 24 H 4.532126 1.667856 -3.177684 0
M  V30 25 H 5.793010 -0.365955 -4.049021 0
M  V30 26 H -3.579211 -1.962195 -0.544573 0
M  V30 27 H -3.545388 -0.395060 -0.670028 0
M  V30 28 H -3.528612 -0.290098 2.985351 0
M  V30 29 H -3.203494 -1.980907 3.535979 0
M  V30 30 H -3.508495 -1.667810 1.831728 0
M  V30 END ATOM
M  V30 BEGIN BOND
M  V30 1 1 1 2
M  V30 2 1 2 3
M  V30 3 1 3 4
M  V30 4 1 4 5
M  V30 5 1 5 6
M  V30 6 2 6 7
M  V30 7 1 6 8
M  V30 8 2 8 9
M  V30 9 1 9 10
M  V30 10 2 10 11
M  V30 11 1 11 12
M  V30 12 2 4 13
M  V30 13 1 13 14
M  V30 14 1 14 15
M  V30 15 2 14 16
M  V30 16 1 13 17
M  V30 17 1 17 18
M  V30 18 2 17 2
M  V30 19 1 12 8
M  V30 20 1 1 19
M  V30 21 1 1 20
M  V30 22 1 1 21
M  V30 23 1 5 22
M  V30 24 1 9 23
M  V30 25 1 10 24
M  V30 26 1 11 25
M  V30 27 1 15 26
M  V30 28 1 15 27
M  V30 29 1 18 28
M  V30 30 1 18 29
M  V30 31 1 18 30
M  V30 END BOND
M  V30 END CTAB
M  END
>  <Dataset>  (800) 
ChEMBL_Kinases

>  <Ligand_Instance>  (800) 
nan

>  <PDB_ID>  (800) 
nan

>  <Standardized_SMILES>  (800) 
Cc1sc(NC(=O)c2cccs2)c(C(N)=O)c1C

>  <Name>  (800) 
nan

>  <Pocket>  (800) 
nan

>  <ATP_Site>  (800) 
nan

>  <Peripheral>  (800) 
nan

>  <Num_H_Atoms_ProtBoundConf>  (800) 
nan

>  <Num_Resolved_Atoms>  (800) 
nan

>  <Num_Not_Resolved_Atoms>  (800) 
nan

$$$$
CHEMBL1604045
     RDKit          3D

  0  0  0  0  0  0  0  0  0  0999 V3000
M  V30 BEGIN CTAB
M  V30 COUNTS 33 35 0 0 0
M  V30 BEGIN ATOM
M  V30 1 C -2.547882 -2.294774 2.019775 0
M  V30 2 C -1.733305 -2.991958 3.092947 0
M  V30 3 N -0.834086 -1.979652 3.621926 0
M  V30 4 C -0.020031 -1.546788 2.528419 0
M  V30 5 N 1.097705 -2.298598 2.497214 0
M  V30 6 C 2.068054 -2.113876 1.554733 0
M  V30 7 C 1.809143 -1.105574 0.650106 0
M  V30 8 N 2.734250 -0.873751 -0.308006 0
M  V30 9 C 2.485668 0.107276 -1.189851 0
M  V30 10 C 3.553715 0.311540 -2.223773 0
M  V30 11 C 1.334932 0.900405 -1.179138 0
M  V30 12 O 1.172653 1.801518 -2.039639 0
M  V30 13 N 0.428187 0.636850 -0.200225 0
M  V30 14 C -0.745296 1.468066 -0.216236 0
M  V30 15 C -2.112329 0.974798 -0.017917 0
M  V30 16 C -1.616044 1.219906 -1.454310 0
M  V30 17 C 0.660892 -0.341864 0.691406 0
M  V30 18 N -0.275766 -0.555315 1.639575 0
M  V30 19 H -2.040261 -2.478368 1.052049 0
M  V30 20 H -2.641993 -1.192802 2.251991 0
M  V30 21 H -3.576047 -2.655698 1.942977 0
M  V30 22 H -2.439355 -3.381206 3.846672 0
M  V30 23 H -1.163664 -3.847545 2.678577 0
M  V30 24 H -0.855320 -1.695201 4.613093 0
M  V30 25 H 2.979409 -2.689372 1.487906 0
M  V30 26 H 3.245197 1.027577 -2.990504 0
M  V30 27 H 4.477960 0.694268 -1.711044 0
M  V30 28 H 3.765258 -0.691458 -2.642653 0
M  V30 29 H -0.555348 2.543709 -0.038974 0
M  V30 30 H -2.371756 -0.068934 0.154614 0
M  V30 31 H -2.856399 1.693279 0.383767 0
M  V30 32 H -1.404440 0.363516 -2.099109 0
M  V30 33 H -2.082722 2.077956 -1.961261 0
M  V30 END ATOM
M  V30 BEGIN BOND
M  V30 1 1 1 2
M  V30 2 1 2 3
M  V30 3 1 3 4
M  V30 4 2 4 5
M  V30 5 1 5 6
M  V30 6 2 6 7
M  V30 7 1 7 8
M  V30 8 2 8 9
M  V30 9 1 9 10
M  V30 10 1 9 11
M  V30 11 2 11 12
M  V30 12 1 11 13
M  V30 13 1 13 14
M  V30 14 1 14 15
M  V30 15 1 15 16
M  V30 16 1 13 17
M  V30 17 2 17 18
M  V30 18 1 18 4
M  V30 19 1 17 7
M  V30 20 1 16 14
M  V30 21 1 1 19
M  V30 22 1 1 20
M  V30 23 1 1 21
M  V30 24 1 2 22
M  V30 25 1 2 23
M  V30 26 1 3 24
M  V30 27 1 6 25
M  V30 28 1 10 26
M  V30 29 1 10 27
M  V30 30 1 10 28
M  V30 31 1 14 29
M  V30 32 1 15 30
M  V30 33 1 15 31
M  V30 34 1 16 32
M  V30 35 1 16 33
M  V30 END BOND
M  V30 END CTAB
M  END
>  <Dataset>  (801) 
ChEMBL_Kinases

>  <Ligand_Instance>  (801) 
nan

>  <PDB_ID>  (801) 
nan

>  <Standardized_SMILES>  (801) 
CCNc1ncc2nc(C)c(=O)n(C3CC3)c2n1

>  <Name>  (801) 
nan

>  <Pocket>  (801) 
nan

>  <ATP_Site>  (801) 
nan

>  <Peripheral>  (801) 
nan

>  <Num_H_Atoms_ProtBoundConf>  (801) 
nan

>  <Num_Resolved_Atoms>  (801) 
nan

>  <Num_Not_Resolved_Atoms>  (801) 
nan

$$$$
CHEMBL1602896
     RDKit          3D

  0  0  0  0  0  0  0  0  0  0999 V3000
M  V30 BEGIN CTAB
M  V30 COUNTS 28 29 0 0 0
M  V30 BEGIN ATOM
M  V30 1 C -2.457632 -4.606386 2.303867 0
M  V30 2 C -1.243920 -3.992584 1.598174 0
M  V30 3 O -0.095147 -4.154805 2.324557 0
M  V30 4 C 1.047928 -3.632863 1.765325 0
M  V30 5 C 0.975308 -2.167745 1.536602 0
M  V30 6 O 0.084503 -1.283213 1.744674 0
M  V30 7 N 2.120803 -1.555791 0.960492 0
M  V30 8 C 1.855609 -0.076116 0.807895 0
M  V30 9 N 1.373593 0.379724 -0.164844 0
M  V30 10 C 1.084077 1.626824 -0.446067 0
M  V30 11 C 0.522959 2.219524 -1.559099 0
M  V30 12 C 0.320103 3.580541 -1.604434 0
M  V30 13 C 0.643439 4.452322 -0.585302 0
M  V30 14 C 1.209216 3.966999 0.571932 0
M  V30 15 C 1.392546 2.545152 0.553180 0
M  V30 16 S 2.118395 1.400110 1.875195 0
M  V30 17 H -2.391644 -4.401624 3.391024 0
M  V30 18 H -3.401175 -4.099179 1.953372 0
M  V30 19 H -2.493278 -5.665426 2.032569 0
M  V30 20 H -1.226082 -4.485316 0.588646 0
M  V30 21 H -1.545153 -2.928665 1.427804 0
M  V30 22 H 1.873267 -3.808104 2.484301 0
M  V30 23 H 1.275858 -4.193806 0.851368 0
M  V30 24 H 3.007362 -2.009277 0.678128 0
M  V30 25 H 0.223164 1.654623 -2.428233 0
M  V30 26 H -0.128843 4.055774 -2.494622 0
M  V30 27 H 0.517480 5.520383 -0.544026 0
M  V30 28 H 1.542867 4.405936 1.480132 0
M  V30 END ATOM
M  V30 BEGIN BOND
M  V30 1 1 1 2
M  V30 2 1 2 3
M  V30 3 1 3 4
M  V30 4 1 4 5
M  V30 5 2 5 6
M  V30 6 1 5 7
M  V30 7 1 7 8
M  V30 8 2 8 9
M  V30 9 1 9 10
M  V30 10 2 10 11
M  V30 11 1 11 12
M  V30 12 2 12 13
M  V30 13 1 13 14
M  V30 14 2 14 15
M  V30 15 1 15 16
M  V30 16 1 16 8
M  V30 17 1 15 10
M  V30 18 1 1 17
M  V30 19 1 1 18
M  V30 20 1 1 19
M  V30 21 1 2 20
M  V30 22 1 2 21
M  V30 23 1 4 22
M  V30 24 1 4 23
M  V30 25 1 7 24
M  V30 26 1 11 25
M  V30 27 1 12 26
M  V30 28 1 13 27
M  V30 29 1 14 28
M  V30 END BOND
M  V30 END CTAB
M  END
>  <Dataset>  (802) 
ChEMBL_Kinases

>  <Ligand_Instance>  (802) 
nan

>  <PDB_ID>  (802) 
nan

>  <Standardized_SMILES>  (802) 
CCOCC(=O)Nc1nc2ccccc2s1

>  <Name>  (802) 
nan

>  <Pocket>  (802) 
nan

>  <ATP_Site>  (802) 
nan

>  <Peripheral>  (802) 
nan

>  <Num_H_Atoms_ProtBoundConf>  (802) 
nan

>  <Num_Resolved_Atoms>  (802) 
nan

>  <Num_Not_Resolved_Atoms>  (802) 
nan

$$$$
CHEMBL1602926
     RDKit          3D

  0  0  0  0  0  0  0  0  0  0999 V3000
M  V30 BEGIN CTAB
M  V30 COUNTS 40 43 0 0 0
M  V30 BEGIN ATOM
M  V30 1 C -0.587873 -4.295354 0.927064 0
M  V30 2 C 0.381198 -4.242283 -0.050360 0
M  V30 3 C 1.472179 -3.406753 0.044005 0
M  V30 4 C 1.663235 -2.569558 1.123763 0
M  V30 5 S 2.909348 -1.417710 1.522080 0
M  V30 6 C 2.666618 0.278643 1.054512 0
M  V30 7 S 2.675236 0.658358 -0.678334 0
M  V30 8 C 1.378750 0.053641 -1.669568 0
M  V30 9 C 1.255513 -1.097258 -2.420282 0
M  V30 10 C 0.132717 -1.420068 -3.152182 0
M  V30 11 C -0.948964 -0.563868 -3.156225 0
M  V30 12 C -0.886045 0.603139 -2.425262 0
M  V30 13 C 0.255580 0.893739 -1.703649 0
M  V30 14 C 1.554905 0.941051 1.802256 0
M  V30 15 C 1.825812 1.947642 2.739582 0
M  V30 16 C 0.878724 2.617726 3.478473 0
M  V30 17 C -0.425631 2.292825 3.299888 0
M  V30 18 C -0.767485 1.311238 2.393821 0
M  V30 19 C 0.211481 0.664696 1.674305 0
M  V30 20 O -2.144798 1.190354 2.418394 0
M  V30 21 C -2.654291 1.855288 3.584962 0
M  V30 22 O -1.599419 2.758631 3.865964 0
M  V30 23 C 0.674828 -2.624763 2.119874 0
M  V30 24 C -0.433632 -3.474581 2.022934 0
M  V30 25 H -1.430273 -4.957315 0.828538 0
M  V30 26 H 0.321473 -4.858533 -0.934699 0
M  V30 27 H 2.280735 -3.303310 -0.659747 0
M  V30 28 H 3.599271 0.808300 1.463201 0
M  V30 29 H 2.148095 -1.702502 -2.368890 0
M  V30 30 H 0.174779 -2.368774 -3.702045 0
M  V30 31 H -1.805110 -0.863088 -3.746117 0
M  V30 32 H -1.754523 1.230218 -2.465233 0
M  V30 33 H 0.170878 1.840715 -1.175783 0
M  V30 34 H 2.863577 2.261968 2.935593 0
M  V30 35 H 1.149863 3.382291 4.183388 0
M  V30 36 H -0.071102 -0.098119 0.972065 0
M  V30 37 H -3.612993 2.364028 3.396328 0
M  V30 38 H -2.742502 1.053127 4.345113 0
M  V30 39 H 0.635054 -2.047473 3.052447 0
M  V30 40 H -1.211728 -3.544755 2.765654 0
M  V30 END ATOM
M  V30 BEGIN BOND
M  V30 1 2 1 2
M  V30 2 1 2 3
M  V30 3 2 3 4
M  V30 4 1 4 5
M  V30 5 1 5 6
M  V30 6 1 6 7
M  V30 7 1 7 8
M  V30 8 2 8 9
M  V30 9 1 9 10
M  V30 10 2 10 11
M  V30 11 1 11 12
M  V30 12 2 12 13
M  V30 13 1 6 14
M  V30 14 2 14 15
M  V30 15 1 15 16
M  V30 16 2 16 17
M  V30 17 1 17 18
M  V30 18 2 18 19
M  V30 19 1 18 20
M  V30 20 1 20 21
M  V30 21 1 21 22
M  V30 22 1 4 23
M  V30 23 2 23 24
M  V30 24 1 24 1
M  V30 25 1 13 8
M  V30 26 1 19 14
M  V30 27 1 22 17
M  V30 28 1 1 25
M  V30 29 1 2 26
M  V30 30 1 3 27
M  V30 31 1 6 28
M  V30 32 1 9 29
M  V30 33 1 10 30
M  V30 34 1 11 31
M  V30 35 1 12 32
M  V30 36 1 13 33
M  V30 37 1 15 34
M  V30 38 1 16 35
M  V30 39 1 19 36
M  V30 40 1 21 37
M  V30 41 1 21 38
M  V30 42 1 23 39
M  V30 43 1 24 40
M  V30 END BOND
M  V30 END CTAB
M  END
>  <Dataset>  (803) 
ChEMBL_Kinases

>  <Ligand_Instance>  (803) 
nan

>  <PDB_ID>  (803) 
nan

>  <Standardized_SMILES>  (803) 
c1ccc(SC(Sc2ccccc2)c2ccc3c(c2)OCO3)cc1

>  <Name>  (803) 
nan

>  <Pocket>  (803) 
nan

>  <ATP_Site>  (803) 
nan

>  <Peripheral>  (803) 
nan

>  <Num_H_Atoms_ProtBoundConf>  (803) 
nan

>  <Num_Resolved_Atoms>  (803) 
nan

>  <Num_Not_Resolved_Atoms>  (803) 
nan

$$$$
CHEMBL1603074
     RDKit          3D

  0  0  0  0  0  0  0  0  0  0999 V3000
M  V30 BEGIN CTAB
M  V30 COUNTS 41 43 0 0 0
M  V30 BEGIN ATOM
M  V30 1 C 3.332478 -0.520146 3.945105 0
M  V30 2 C 2.767992 -0.728413 2.565053 0
M  V30 3 N 3.334450 -1.124069 1.475257 0
M  V30 4 N 2.481366 -1.192376 0.398243 0
M  V30 5 C 2.810374 -1.592612 -0.932231 0
M  V30 6 C 2.753599 -2.882818 -1.425127 0
M  V30 7 C 3.100296 -3.138945 -2.739095 0
M  V30 8 C 3.506823 -2.118984 -3.578044 0
M  V30 9 C 3.889355 -2.337741 -4.993853 0
M  V30 10 C 3.554944 -0.827058 -3.054834 0
M  V30 11 C 3.210332 -0.535162 -1.728940 0
M  V30 12 C 1.199934 -0.784869 0.868190 0
M  V30 13 O 0.185897 -0.729546 0.146696 0
M  V30 14 C 1.359931 -0.475621 2.283428 0
M  V30 15 C 0.378535 -0.060560 3.064787 0
M  V30 16 C -0.994479 0.144404 2.620178 0
M  V30 17 C -1.910708 0.563187 3.477677 0
M  V30 18 C -3.297167 0.814398 3.209757 0
M  V30 19 C -4.166769 1.253506 4.193954 0
M  V30 20 C -5.497020 1.501937 3.967095 0
M  V30 21 C -6.050776 1.323261 2.718103 0
M  V30 22 C -5.220305 0.885266 1.701883 0
M  V30 23 C -3.898558 0.652919 1.986623 0
M  V30 24 H 4.363290 -0.950868 3.977352 0
M  V30 25 H 3.418874 0.563479 4.121198 0
M  V30 26 H 2.683407 -1.017423 4.682521 0
M  V30 27 H 2.430220 -3.650856 -0.734752 0
M  V30 28 H 3.055104 -4.148597 -3.122254 0
M  V30 29 H 3.337472 -3.205883 -5.425903 0
M  V30 30 H 3.624700 -1.472713 -5.644582 0
M  V30 31 H 4.971603 -2.509313 -5.053728 0
M  V30 32 H 3.877000 -0.017235 -3.718492 0
M  V30 33 H 3.277788 0.501255 -1.407219 0
M  V30 34 H 0.640284 0.127894 4.080783 0
M  V30 35 H -1.402621 -0.002690 1.636644 0
M  V30 36 H -1.561771 0.735503 4.509123 0
M  V30 37 H -3.790748 1.414376 5.203925 0
M  V30 38 H -6.116024 1.845238 4.793458 0
M  V30 39 H -7.101398 1.540764 2.626064 0
M  V30 40 H -5.655381 0.745095 0.721448 0
M  V30 41 H -3.329485 0.315964 1.139587 0
M  V30 END ATOM
M  V30 BEGIN BOND
M  V30 1 1 1 2
M  V30 2 2 2 3
M  V30 3 1 3 4
M  V30 4 1 4 5
M  V30 5 2 5 6
M  V30 6 1 6 7
M  V30 7 2 7 8
M  V30 8 1 8 9
M  V30 9 1 8 10
M  V30 10 2 10 11
M  V30 11 1 4 12
M  V30 12 2 12 13
M  V30 13 1 12 14
M  V30 14 2 14 15
M  V30 15 1 15 16
M  V30 16 2 16 17
M  V30 17 1 17 18
M  V30 18 2 18 19
M  V30 19 1 19 20
M  V30 20 2 20 21
M  V30 21 1 21 22
M  V30 22 2 22 23
M  V30 23 1 14 2
M  V30 24 1 23 18
M  V30 25 1 11 5
M  V30 26 1 1 24
M  V30 27 1 1 25
M  V30 28 1 1 26
M  V30 29 1 6 27
M  V30 30 1 7 28
M  V30 31 1 9 29
M  V30 32 1 9 30
M  V30 33 1 9 31
M  V30 34 1 10 32
M  V30 35 1 11 33
M  V30 36 1 15 34
M  V30 37 1 16 35
M  V30 38 1 17 36
M  V30 39 1 19 37
M  V30 40 1 20 38
M  V30 41 1 21 39
M  V30 42 1 22 40
M  V30 43 1 23 41
M  V30 END BOND
M  V30 END CTAB
M  END
>  <Dataset>  (804) 
ChEMBL_Kinases

>  <Ligand_Instance>  (804) 
nan

>  <PDB_ID>  (804) 
nan

>  <Standardized_SMILES>  (804) 
CC1=NN(c2ccc(C)cc2)C(=O)/C1=C\C=C\c1ccccc1

>  <Name>  (804) 
nan

>  <Pocket>  (804) 
nan

>  <ATP_Site>  (804) 
nan

>  <Peripheral>  (804) 
nan

>  <Num_H_Atoms_ProtBoundConf>  (804) 
nan

>  <Num_Resolved_Atoms>  (804) 
nan

>  <Num_Not_Resolved_Atoms>  (804) 
nan

$$$$
CHEMBL1603176
     RDKit          3D

  0  0  0  0  0  0  0  0  0  0999 V3000
M  V30 BEGIN CTAB
M  V30 COUNTS 39 39 0 0 0
M  V30 BEGIN ATOM
M  V30 1 C -2.400449 -5.923047 1.270264 0
M  V30 2 O -2.087924 -4.706027 1.955422 0
M  V30 3 C -1.038138 -3.885729 1.573817 0
M  V30 4 C -0.204385 -4.160910 0.509904 0
M  V30 5 C 0.840485 -3.346451 0.128496 0
M  V30 6 C 1.079862 -2.188307 0.838844 0
M  V30 7 S 2.363588 -1.057317 0.477681 0
M  V30 8 O 2.804038 -0.374458 1.752371 0
M  V30 9 O 3.563162 -1.791542 -0.097326 0
M  V30 10 N 1.861271 0.167054 -0.633905 0
M  V30 11 C 0.787765 0.909892 -0.031873 0
M  V30 12 C 0.254190 2.004103 -0.884508 0
M  V30 13 C 1.256727 3.047182 -1.257792 0
M  V30 14 C 1.893670 3.781983 -0.139243 0
M  V30 15 C 0.941438 4.527495 0.706224 0
M  V30 16 O -0.325622 4.592574 0.548000 0
M  V30 17 O 0.281151 5.298078 1.643606 0
M  V30 18 C 0.267105 -1.873566 1.914114 0
M  V30 19 C -0.773806 -2.719157 2.265978 0
M  V30 20 C -1.633553 -2.371410 3.415710 0
M  V30 21 O -2.569271 -3.160310 3.708556 0
M  V30 22 O -1.389801 -1.207280 4.126504 0
M  V30 23 H -2.883173 -5.648554 0.332720 0
M  V30 24 H -3.006607 -6.567147 1.939456 0
M  V30 25 H -1.423196 -6.404127 1.035103 0
M  V30 26 H -0.359630 -5.058517 -0.071153 0
M  V30 27 H 1.489588 -3.570250 -0.707668 0
M  V30 28 H 1.592017 -0.250817 -1.528573 0
M  V30 29 H 1.019299 1.234331 0.984081 0
M  V30 30 H -0.056930 0.168625 0.088014 0
M  V30 31 H -0.595882 2.480361 -0.369959 0
M  V30 32 H -0.190936 1.550093 -1.808729 0
M  V30 33 H 2.049499 2.605937 -1.868101 0
M  V30 34 H 0.765269 3.812839 -1.912523 0
M  V30 35 H 2.557735 3.162044 0.495497 0
M  V30 36 H 2.562821 4.544716 -0.588875 0
M  V30 37 H 0.717949 5.779836 2.424612 0
M  V30 38 H 0.416178 -0.989599 2.490093 0
M  V30 39 H -1.838539 -1.053424 5.021274 0
M  V30 END ATOM
M  V30 BEGIN BOND
M  V30 1 1 1 2
M  V30 2 1 2 3
M  V30 3 2 3 4
M  V30 4 1 4 5
M  V30 5 2 5 6
M  V30 6 1 6 7
M  V30 7 2 7 8
M  V30 8 2 7 9
M  V30 9 1 7 10
M  V30 10 1 10 11
M  V30 11 1 11 12
M  V30 12 1 12 13
M  V30 13 1 13 14
M  V30 14 1 14 15
M  V30 15 2 15 16
M  V30 16 1 15 17
M  V30 17 1 6 18
M  V30 18 2 18 19
M  V30 19 1 19 20
M  V30 20 2 20 21
M  V30 21 1 20 22
M  V30 22 1 19 3
M  V30 23 1 1 23
M  V30 24 1 1 24
M  V30 25 1 1 25
M  V30 26 1 4 26
M  V30 27 1 5 27
M  V30 28 1 10 28
M  V30 29 1 11 29
M  V30 30 1 11 30
M  V30 31 1 12 31
M  V30 32 1 12 32
M  V30 33 1 13 33
M  V30 34 1 13 34
M  V30 35 1 14 35
M  V30 36 1 14 36
M  V30 37 1 17 37
M  V30 38 1 18 38
M  V30 39 1 22 39
M  V30 END BOND
M  V30 END CTAB
M  END
>  <Dataset>  (805) 
ChEMBL_Kinases

>  <Ligand_Instance>  (805) 
nan

>  <PDB_ID>  (805) 
nan

>  <Standardized_SMILES>  (805) 
COc1ccc(S(=O)(=O)NCCCCC(=O)O)cc1C(=O)O

>  <Name>  (805) 
nan

>  <Pocket>  (805) 
nan

>  <ATP_Site>  (805) 
nan

>  <Peripheral>  (805) 
nan

>  <Num_H_Atoms_ProtBoundConf>  (805) 
nan

>  <Num_Resolved_Atoms>  (805) 
nan

>  <Num_Not_Resolved_Atoms>  (805) 
nan

$$$$
CHEMBL1603285
     RDKit          3D

  0  0  0  0  0  0  0  0  0  0999 V3000
M  V30 BEGIN CTAB
M  V30 COUNTS 41 43 0 0 0
M  V30 BEGIN ATOM
M  V30 1 O -0.710921 -1.268901 -0.843840 0
M  V30 2 C 0.334603 -1.274767 -1.602476 0
M  V30 3 C -0.041320 -1.817615 -2.862076 0
M  V30 4 C 0.537180 -2.110817 -3.997988 0
M  V30 5 C 1.945536 -1.885146 -4.162272 0
M  V30 6 C 3.055847 -1.734717 -3.388488 0
M  V30 7 C 4.320469 -1.371974 -3.745156 0
M  V30 8 C 4.542099 -1.114320 -5.079836 0
M  V30 9 C 3.477847 -1.243097 -5.940042 0
M  V30 10 C 2.234934 -1.611599 -5.507650 0
M  V30 11 N 1.114717 -0.713365 -0.583696 0
M  V30 12 C 0.538417 -0.426731 0.682499 0
M  V30 13 C 0.575052 -1.414515 1.644455 0
M  V30 14 C 0.039420 -1.214224 2.896876 0
M  V30 15 C -0.558213 -0.029146 3.260046 0
M  V30 16 N -1.091833 0.119393 4.562704 0
M  V30 17 C -1.739409 1.194758 5.180767 0
M  V30 18 O -1.902732 2.239706 4.504431 0
M  V30 19 C -2.225646 1.156955 6.553974 0
M  V30 20 C -2.108873 0.058892 7.414823 0
M  V30 21 C -2.691853 0.433627 8.609514 0
M  V30 22 C -3.131527 1.741274 8.408205 0
M  V30 23 O -2.837666 2.126386 7.188710 0
M  V30 24 C -0.571729 0.923754 2.272112 0
M  V30 25 C -0.051871 0.778271 1.003957 0
M  V30 26 H -1.109581 -2.081744 -2.968348 0
M  V30 27 H -0.059823 -2.535338 -4.805637 0
M  V30 28 H 2.810562 -2.005152 -2.383776 0
M  V30 29 H 5.034338 -1.320602 -2.940281 0
M  V30 30 H 5.543535 -0.826872 -5.360802 0
M  V30 31 H 3.718079 -1.023903 -6.969120 0
M  V30 32 H 1.519085 -1.659984 -6.346243 0
M  V30 33 H 2.031943 -0.589820 -1.002058 0
M  V30 34 H 1.026820 -2.374624 1.439028 0
M  V30 35 H 0.096341 -2.032197 3.620648 0
M  V30 36 H -1.002672 -0.714236 5.215005 0
M  V30 37 H -1.646342 -0.909222 7.188341 0
M  V30 38 H -2.733260 -0.243270 9.450928 0
M  V30 39 H -3.626578 2.237707 9.231051 0
M  V30 40 H -1.013512 1.880475 2.453698 0
M  V30 41 H -0.088627 1.560648 0.263099 0
M  V30 END ATOM
M  V30 BEGIN BOND
M  V30 1 2 1 2
M  V30 2 1 2 3
M  V30 3 2 3 4
M  V30 4 1 4 5
M  V30 5 2 5 6
M  V30 6 1 6 7
M  V30 7 2 7 8
M  V30 8 1 8 9
M  V30 9 2 9 10
M  V30 10 1 2 11
M  V30 11 1 11 12
M  V30 12 2 12 13
M  V30 13 1 13 14
M  V30 14 2 14 15
M  V30 15 1 15 16
M  V30 16 1 16 17
M  V30 17 2 17 18
M  V30 18 1 17 19
M  V30 19 2 19 20
M  V30 20 1 20 21
M  V30 21 2 21 22
M  V30 22 1 22 23
M  V30 23 1 15 24
M  V30 24 2 24 25
M  V30 25 1 10 5
M  V30 26 1 25 12
M  V30 27 1 23 19
M  V30 28 1 3 26
M  V30 29 1 4 27
M  V30 30 1 6 28
M  V30 31 1 7 29
M  V30 32 1 8 30
M  V30 33 1 9 31
M  V30 34 1 10 32
M  V30 35 1 11 33
M  V30 36 1 13 34
M  V30 37 1 14 35
M  V30 38 1 16 36
M  V30 39 1 20 37
M  V30 40 1 21 38
M  V30 41 1 22 39
M  V30 42 1 24 40
M  V30 43 1 25 41
M  V30 END BOND
M  V30 END CTAB
M  END
>  <Dataset>  (806) 
ChEMBL_Kinases

>  <Ligand_Instance>  (806) 
nan

>  <PDB_ID>  (806) 
nan

>  <Standardized_SMILES>  (806) 
O=C(/C=C\c1ccccc1)Nc1ccc(NC(=O)c2ccco2)cc1

>  <Name>  (806) 
nan

>  <Pocket>  (806) 
nan

>  <ATP_Site>  (806) 
nan

>  <Peripheral>  (806) 
nan

>  <Num_H_Atoms_ProtBoundConf>  (806) 
nan

>  <Num_Resolved_Atoms>  (806) 
nan

>  <Num_Not_Resolved_Atoms>  (806) 
nan

$$$$
CHEMBL1603418
     RDKit          3D

  0  0  0  0  0  0  0  0  0  0999 V3000
M  V30 BEGIN CTAB
M  V30 COUNTS 35 38 0 0 0
M  V30 BEGIN ATOM
M  V30 1 F 1.348467 -3.463522 5.028092 0
M  V30 2 C 1.299226 -3.172117 3.703166 0
M  V30 3 C 0.824396 -4.158441 2.863001 0
M  V30 4 C 0.787496 -3.825088 1.521738 0
M  V30 5 C 1.193018 -2.597876 1.039013 0
M  V30 6 N 1.132226 -2.278554 -0.360880 0
M  V30 7 C 1.665263 -1.010439 -0.772454 0
M  V30 8 N 2.952153 -1.060120 -1.225507 0
M  V30 9 C 3.571027 0.067294 -1.640681 0
M  V30 10 N 2.880297 1.217285 -1.589675 0
M  V30 11 C 1.617577 1.302639 -1.151633 0
M  V30 12 C 0.887014 2.489880 -1.088892 0
M  V30 13 C -0.418935 2.460785 -0.612112 0
M  V30 14 C -1.050291 1.307366 -0.188213 0
M  V30 15 C -2.425729 1.314823 0.302464 0
M  V30 16 C -3.395683 0.316684 0.228992 0
M  V30 17 C -4.535392 0.833143 0.840057 0
M  V30 18 O -4.253280 2.042306 1.241331 0
M  V30 19 C -3.028991 2.396511 0.960357 0
M  V30 20 C -0.342400 0.121915 -0.242760 0
M  V30 21 C 0.951330 0.168653 -0.718324 0
M  V30 22 C 1.656480 -1.671314 1.966778 0
M  V30 23 C 1.730328 -1.909594 3.319576 0
M  V30 24 H 0.516882 -5.098614 3.261587 0
M  V30 25 H 0.419442 -4.586715 0.846668 0
M  V30 26 H 0.710818 -2.977123 -0.988481 0
M  V30 27 H 4.588276 0.007859 -1.995621 0
M  V30 28 H 1.379649 3.388041 -1.419270 0
M  V30 29 H -0.984845 3.386294 -0.564817 0
M  V30 30 H -3.121383 -0.630701 -0.256891 0
M  V30 31 H -5.357114 0.132170 0.837139 0
M  V30 32 H -2.578802 3.349324 1.197056 0
M  V30 33 H -0.780647 -0.821434 0.075462 0
M  V30 34 H 1.969171 -0.717994 1.566954 0
M  V30 35 H 2.087120 -1.194781 4.046073 0
M  V30 END ATOM
M  V30 BEGIN BOND
M  V30 1 1 1 2
M  V30 2 2 2 3
M  V30 3 1 3 4
M  V30 4 2 4 5
M  V30 5 1 5 6
M  V30 6 1 6 7
M  V30 7 2 7 8
M  V30 8 1 8 9
M  V30 9 2 9 10
M  V30 10 1 10 11
M  V30 11 2 11 12
M  V30 12 1 12 13
M  V30 13 2 13 14
M  V30 14 1 14 15
M  V30 15 1 15 16
M  V30 16 2 16 17
M  V30 17 1 17 18
M  V30 18 1 18 19
M  V30 19 1 14 20
M  V30 20 2 20 21
M  V30 21 1 5 22
M  V30 22 2 22 23
M  V30 23 1 23 2
M  V30 24 1 21 7
M  V30 25 1 21 11
M  V30 26 2 19 15
M  V30 27 1 3 24
M  V30 28 1 4 25
M  V30 29 1 6 26
M  V30 30 1 9 27
M  V30 31 1 12 28
M  V30 32 1 13 29
M  V30 33 1 16 30
M  V30 34 1 17 31
M  V30 35 1 19 32
M  V30 36 1 20 33
M  V30 37 1 22 34
M  V30 38 1 23 35
M  V30 END BOND
M  V30 END CTAB
M  END
>  <Dataset>  (807) 
ChEMBL_Kinases

>  <Ligand_Instance>  (807) 
nan

>  <PDB_ID>  (807) 
nan

>  <Standardized_SMILES>  (807) 
Fc1ccc(Nc2ncnc3ccc(-c4ccoc4)cc23)cc1

>  <Name>  (807) 
nan

>  <Pocket>  (807) 
nan

>  <ATP_Site>  (807) 
nan

>  <Peripheral>  (807) 
nan

>  <Num_H_Atoms_ProtBoundConf>  (807) 
nan

>  <Num_Resolved_Atoms>  (807) 
nan

>  <Num_Not_Resolved_Atoms>  (807) 
nan

$$$$
CHEMBL1603420
     RDKit          3D

  0  0  0  0  0  0  0  0  0  0999 V3000
M  V30 BEGIN CTAB
M  V30 COUNTS 40 42 0 0 0
M  V30 BEGIN ATOM
M  V30 1 C -1.694289 -3.158857 -2.293436 0
M  V30 2 O -0.431923 -2.545401 -2.085227 0
M  V30 3 C 0.581850 -3.343594 -1.572364 0
M  V30 4 C 0.400849 -4.696256 -1.263364 0
M  V30 5 C 1.457750 -5.453894 -0.748582 0
M  V30 6 C 2.689219 -4.867139 -0.542468 0
M  V30 7 C 2.804473 -3.547188 -0.862057 0
M  V30 8 C 1.809281 -2.743867 -1.370871 0
M  V30 9 C 2.076129 -1.312363 -1.674956 0
M  V30 10 N 1.504493 -0.451290 -0.665733 0
M  V30 11 C 1.634886 0.961038 -0.747597 0
M  V30 12 O 2.274306 1.442811 -1.742551 0
M  V30 13 C 1.066733 1.857684 0.258796 0
M  V30 14 C 1.159198 3.226887 0.242835 0
M  V30 15 C 0.461094 3.572874 1.405765 0
M  V30 16 C -0.000512 2.438886 2.041574 0
M  V30 17 C -0.772006 2.389115 3.284538 0
M  V30 18 C -1.138992 3.520505 3.984206 0
M  V30 19 C -1.872636 3.443325 5.164990 0
M  V30 20 C -2.241534 2.195932 5.646145 0
M  V30 21 C -1.871465 1.051800 4.940350 0
M  V30 22 C -1.144458 1.134644 3.770743 0
M  V30 23 Cl -0.662493 -0.299070 2.855612 0
M  V30 24 O 0.393107 1.430194 1.306538 0
M  V30 25 H -2.128125 -3.494431 -1.306482 0
M  V30 26 H -2.429638 -2.467692 -2.750221 0
M  V30 27 H -1.579147 -4.118948 -2.865866 0
M  V30 28 H -0.567274 -5.149569 -1.427427 0
M  V30 29 H 1.243695 -6.483828 -0.535919 0
M  V30 30 H 3.485381 -5.471012 -0.145599 0
M  V30 31 H 3.777907 -3.070813 -0.702590 0
M  V30 32 H 3.175495 -1.162179 -1.684238 0
M  V30 33 H 1.716398 -1.100303 -2.691986 0
M  V30 34 H 0.994153 -0.885939 0.123531 0
M  V30 35 H 1.652081 3.843077 -0.494058 0
M  V30 36 H 0.318604 4.613051 1.738168 0
M  V30 37 H -0.850846 4.493590 3.608104 0
M  V30 38 H -2.170717 4.316220 5.729281 0
M  V30 39 H -2.805941 2.014115 6.542985 0
M  V30 40 H -2.111608 0.029439 5.235262 0
M  V30 END ATOM
M  V30 BEGIN BOND
M  V30 1 1 1 2
M  V30 2 1 2 3
M  V30 3 2 3 4
M  V30 4 1 4 5
M  V30 5 2 5 6
M  V30 6 1 6 7
M  V30 7 2 7 8
M  V30 8 1 8 9
M  V30 9 1 9 10
M  V30 10 1 10 11
M  V30 11 2 11 12
M  V30 12 1 11 13
M  V30 13 2 13 14
M  V30 14 1 14 15
M  V30 15 2 15 16
M  V30 16 1 16 17
M  V30 17 2 17 18
M  V30 18 1 18 19
M  V30 19 2 19 20
M  V30 20 1 20 21
M  V30 21 2 21 22
M  V30 22 1 22 23
M  V30 23 1 16 24
M  V30 24 1 8 3
M  V30 25 1 24 13
M  V30 26 1 22 17
M  V30 27 1 1 25
M  V30 28 1 1 26
M  V30 29 1 1 27
M  V30 30 1 4 28
M  V30 31 1 5 29
M  V30 32 1 6 30
M  V30 33 1 7 31
M  V30 34 1 9 32
M  V30 35 1 9 33
M  V30 36 1 10 34
M  V30 37 1 14 35
M  V30 38 1 15 36
M  V30 39 1 18 37
M  V30 40 1 19 38
M  V30 41 1 20 39
M  V30 42 1 21 40
M  V30 END BOND
M  V30 END CTAB
M  END
>  <Dataset>  (808) 
ChEMBL_Kinases

>  <Ligand_Instance>  (808) 
nan

>  <PDB_ID>  (808) 
nan

>  <Standardized_SMILES>  (808) 
COc1ccccc1CNC(=O)c1ccc(-c2ccccc2Cl)o1

>  <Name>  (808) 
nan

>  <Pocket>  (808) 
nan

>  <ATP_Site>  (808) 
nan

>  <Peripheral>  (808) 
nan

>  <Num_H_Atoms_ProtBoundConf>  (808) 
nan

>  <Num_Resolved_Atoms>  (808) 
nan

>  <Num_Not_Resolved_Atoms>  (808) 
nan

$$$$
CHEMBL1603476
     RDKit          3D

  0  0  0  0  0  0  0  0  0  0999 V3000
M  V30 BEGIN CTAB
M  V30 COUNTS 25 28 0 0 0
M  V30 BEGIN ATOM
M  V30 1 C -2.294298 -2.140720 2.674520 0
M  V30 2 C -2.103987 -0.773975 2.685231 0
M  V30 3 C -0.894695 -0.309015 2.202610 0
M  V30 4 C 0.108843 -1.114405 1.721814 0
M  V30 5 C 1.371803 -0.625279 1.197384 0
M  V30 6 C 2.494601 -1.203357 1.811331 0
M  V30 7 S 3.954040 -0.367460 0.971912 0
M  V30 8 C 2.880754 0.686241 -0.132878 0
M  V30 9 N 3.215097 1.570494 -1.048541 0
M  V30 10 C 2.246455 2.198484 -1.722956 0
M  V30 11 N 1.001033 1.861436 -1.396554 0
M  V30 12 N -0.088735 2.376716 -1.963375 0
M  V30 13 N -1.151721 1.824207 -1.412944 0
M  V30 14 N -0.726905 0.968325 -0.506887 0
M  V30 15 C 0.602444 0.973284 -0.477648 0
M  V30 16 C 1.577756 0.312296 0.232296 0
M  V30 17 C -0.160236 -2.459069 1.746353 0
M  V30 18 C -1.331586 -3.007001 2.207510 0
M  V30 19 H -3.227371 -2.561359 3.042728 0
M  V30 20 H -2.858169 -0.103501 3.050561 0
M  V30 21 H -0.769301 0.755923 2.232007 0
M  V30 22 H 2.601663 -1.974809 2.608686 0
M  V30 23 H 2.521454 2.921863 -2.471792 0
M  V30 24 H 0.620794 -3.132815 1.369475 0
M  V30 25 H -1.504284 -4.081141 2.209120 0
M  V30 END ATOM
M  V30 BEGIN BOND
M  V30 1 2 1 2
M  V30 2 1 2 3
M  V30 3 2 3 4
M  V30 4 1 4 5
M  V30 5 2 5 6
M  V30 6 1 6 7
M  V30 7 1 7 8
M  V30 8 1 8 9
M  V30 9 2 9 10
M  V30 10 1 10 11
M  V30 11 1 11 12
M  V30 12 2 12 13
M  V30 13 1 13 14
M  V30 14 2 14 15
M  V30 15 1 15 16
M  V30 16 1 4 17
M  V30 17 2 17 18
M  V30 18 1 18 1
M  V30 19 1 16 5
M  V30 20 2 16 8
M  V30 21 1 15 11
M  V30 22 1 1 19
M  V30 23 1 2 20
M  V30 24 1 3 21
M  V30 25 1 6 22
M  V30 26 1 10 23
M  V30 27 1 17 24
M  V30 28 1 18 25
M  V30 END BOND
M  V30 END CTAB
M  END
>  <Dataset>  (809) 
ChEMBL_Kinases

>  <Ligand_Instance>  (809) 
nan

>  <PDB_ID>  (809) 
nan

>  <Standardized_SMILES>  (809) 
c1ccc(-c2csc3ncn4nnnc4c23)cc1

>  <Name>  (809) 
nan

>  <Pocket>  (809) 
nan

>  <ATP_Site>  (809) 
nan

>  <Peripheral>  (809) 
nan

>  <Num_H_Atoms_ProtBoundConf>  (809) 
nan

>  <Num_Resolved_Atoms>  (809) 
nan

>  <Num_Not_Resolved_Atoms>  (809) 
nan

$$$$
CHEMBL1604017
     RDKit          3D

  0  0  0  0  0  0  0  0  0  0999 V3000
M  V30 BEGIN CTAB
M  V30 COUNTS 43 45 0 0 0
M  V30 BEGIN ATOM
M  V30 1 C 3.602002 -6.039439 1.734216 0
M  V30 2 O 2.403636 -5.604085 1.159352 0
M  V30 3 C 2.183796 -4.321291 0.700208 0
M  V30 4 C 3.195353 -3.375912 0.799442 0
M  V30 5 C 3.019090 -2.083954 0.353851 0
M  V30 6 C 1.795166 -1.760651 -0.197588 0
M  V30 7 C 1.602559 -0.393978 -0.671237 0
M  V30 8 N 2.491990 0.532486 -0.612022 0
M  V30 9 O 2.020451 1.705102 -1.132610 0
M  V30 10 C 0.608693 1.677605 -1.212267 0
M  V30 11 C 0.078058 2.267894 0.047656 0
M  V30 12 O 1.222753 2.482343 0.524530 0
M  V30 13 N -1.310994 2.406014 0.324360 0
M  V30 14 C -1.476101 3.011863 1.622938 0
M  V30 15 C -1.531453 4.391128 1.582353 0
M  V30 16 C -1.689859 5.099195 2.777180 0
M  V30 17 Br -1.777332 7.003203 2.824473 0
M  V30 18 C -1.784027 4.371579 3.952296 0
M  V30 19 C -1.727023 2.991357 3.977802 0
M  V30 20 C -1.569002 2.275301 2.789843 0
M  V30 21 O -1.498061 0.901385 2.682530 0
M  V30 22 C 0.371123 0.180025 -1.299111 0
M  V30 23 C 0.809119 -2.702622 -0.288308 0
M  V30 24 C 0.959893 -4.000268 0.149444 0
M  V30 25 O -0.001600 -4.991891 0.082459 0
M  V30 26 C -1.287921 -4.862668 -0.435340 0
M  V30 27 H 4.508588 -5.612666 1.240079 0
M  V30 28 H 3.670576 -7.136551 1.639239 0
M  V30 29 H 3.651098 -5.699455 2.799614 0
M  V30 30 H 4.163825 -3.596538 1.225441 0
M  V30 31 H 3.806379 -1.351455 0.432047 0
M  V30 32 H 0.188043 2.174253 -2.089218 0
M  V30 33 H -1.910762 2.043668 -0.462267 0
M  V30 34 H -1.461413 4.979752 0.688966 0
M  V30 35 H -1.909189 4.878397 4.917709 0
M  V30 36 H -1.796394 2.387595 4.870942 0
M  V30 37 H -2.295988 0.336851 2.925166 0
M  V30 38 H -0.547119 -0.039089 -0.753347 0
M  V30 39 H 0.289089 -0.117845 -2.366777 0
M  V30 40 H -0.127527 -2.427577 -0.718390 0
M  V30 41 H -1.966983 -4.558564 0.387814 0
M  V30 42 H -1.669334 -5.789059 -0.910928 0
M  V30 43 H -1.328231 -4.010817 -1.173750 0
M  V30 END ATOM
M  V30 BEGIN BOND
M  V30 1 1 1 2
M  V30 2 1 2 3
M  V30 3 2 3 4
M  V30 4 1 4 5
M  V30 5 2 5 6
M  V30 6 1 6 7
M  V30 7 2 7 8
M  V30 8 1 8 9
M  V30 9 1 9 10
M  V30 10 1 10 11
M  V30 11 2 11 12
M  V30 12 1 11 13
M  V30 13 1 13 14
M  V30 14 2 14 15
M  V30 15 1 15 16
M  V30 16 1 16 17
M  V30 17 2 16 18
M  V30 18 1 18 19
M  V30 19 2 19 20
M  V30 20 1 20 21
M  V30 21 1 10 22
M  V30 22 1 6 23
M  V30 23 2 23 24
M  V30 24 1 24 25
M  V30 25 1 25 26
M  V30 26 1 24 3
M  V30 27 1 22 7
M  V30 28 1 20 14
M  V30 29 1 1 27
M  V30 30 1 1 28
M  V30 31 1 1 29
M  V30 32 1 4 30
M  V30 33 1 5 31
M  V30 34 1 10 32
M  V30 35 1 13 33
M  V30 36 1 15 34
M  V30 37 1 18 35
M  V30 38 1 19 36
M  V30 39 1 21 37
M  V30 40 1 22 38
M  V30 41 1 22 39
M  V30 42 1 23 40
M  V30 43 1 26 41
M  V30 44 1 26 42
M  V30 45 1 26 43
M  V30 END BOND
M  V30 END CTAB
M  END
>  <Dataset>  (810) 
ChEMBL_Kinases

>  <Ligand_Instance>  (810) 
nan

>  <PDB_ID>  (810) 
nan

>  <Standardized_SMILES>  (810) 
COc1ccc(C2=NOC(C(=O)Nc3cc(Br)ccc3O)C2)cc1OC

>  <Name>  (810) 
nan

>  <Pocket>  (810) 
nan

>  <ATP_Site>  (810) 
nan

>  <Peripheral>  (810) 
nan

>  <Num_H_Atoms_ProtBoundConf>  (810) 
nan

>  <Num_Resolved_Atoms>  (810) 
nan

>  <Num_Not_Resolved_Atoms>  (810) 
nan

$$$$
CHEMBL1603589
     RDKit          3D

  0  0  0  0  0  0  0  0  0  0999 V3000
M  V30 BEGIN CTAB
M  V30 COUNTS 44 44 0 0 0
M  V30 BEGIN ATOM
M  V30 1 C -1.790479 -2.606534 2.585996 0
M  V30 2 C -0.879376 -3.807187 2.540186 0
M  V30 3 O -0.967093 -4.549766 1.348899 0
M  V30 4 C -0.687864 -4.071271 0.088052 0
M  V30 5 C -0.811431 -4.862150 -1.045541 0
M  V30 6 C -0.507615 -4.304100 -2.291335 0
M  V30 7 C -0.092814 -2.980957 -2.363525 0
M  V30 8 C 0.037340 -2.168003 -1.229927 0
M  V30 9 O 0.461613 -0.947296 -1.661106 0
M  V30 10 C 0.676921 0.178587 -0.798069 0
M  V30 11 C -0.608811 0.598155 -0.227063 0
M  V30 12 C -0.644313 1.724348 0.768436 0
M  V30 13 N -0.176844 2.978092 0.449703 0
M  V30 14 C 1.125482 3.408412 0.296522 0
M  V30 15 C 2.031644 3.562850 1.459129 0
M  V30 16 C 2.343260 2.358529 2.284564 0
M  V30 17 O 2.954682 1.321571 1.568643 0
M  V30 18 C 3.178730 0.267651 2.479796 0
M  V30 19 C -0.274292 -2.782507 -0.066674 0
M  V30 20 H -1.259630 -1.663316 2.818997 0
M  V30 21 H -2.339016 -2.477325 1.634371 0
M  V30 22 H -2.509832 -2.750593 3.438765 0
M  V30 23 H 0.184835 -3.453672 2.645941 0
M  V30 24 H -1.063200 -4.478347 3.410094 0
M  V30 25 H -1.145506 -5.878457 -0.847480 0
M  V30 26 H -0.641026 -5.010240 -3.078116 0
M  V30 27 H 0.085353 -2.759234 -3.419594 0
M  V30 28 H 1.026334 1.010814 -1.483936 0
M  V30 29 H 1.438030 -0.149269 -0.094621 0
M  V30 30 H -1.310900 0.917392 -1.067222 0
M  V30 31 H -1.166429 -0.251248 0.224525 0
M  V30 32 H -1.790159 1.847652 0.944765 0
M  V30 33 H -0.348756 1.355081 1.793387 0
M  V30 34 H -0.922305 3.717775 0.285668 0
M  V30 35 H 1.050941 4.469677 -0.166638 0
M  V30 36 H 1.735295 2.904548 -0.515560 0
M  V30 37 H 3.041198 3.947361 1.098729 0
M  V30 38 H 1.714234 4.366504 2.167764 0
M  V30 39 H 3.159858 2.646251 3.038745 0
M  V30 40 H 1.537763 1.975104 2.915802 0
M  V30 41 H 3.828201 0.570334 3.314533 0
M  V30 42 H 2.219897 -0.089742 2.911000 0
M  V30 43 H 3.645396 -0.591375 1.937822 0
M  V30 44 H -0.141431 -2.164922 0.783162 0
M  V30 END ATOM
M  V30 BEGIN BOND
M  V30 1 1 1 2
M  V30 2 1 2 3
M  V30 3 1 3 4
M  V30 4 2 4 5
M  V30 5 1 5 6
M  V30 6 2 6 7
M  V30 7 1 7 8
M  V30 8 1 8 9
M  V30 9 1 9 10
M  V30 10 1 10 11
M  V30 11 1 11 12
M  V30 12 1 12 13
M  V30 13 1 13 14
M  V30 14 1 14 15
M  V30 15 1 15 16
M  V30 16 1 16 17
M  V30 17 1 17 18
M  V30 18 2 8 19
M  V30 19 1 19 4
M  V30 20 1 1 20
M  V30 21 1 1 21
M  V30 22 1 1 22
M  V30 23 1 2 23
M  V30 24 1 2 24
M  V30 25 1 5 25
M  V30 26 1 6 26
M  V30 27 1 7 27
M  V30 28 1 10 28
M  V30 29 1 10 29
M  V30 30 1 11 30
M  V30 31 1 11 31
M  V30 32 1 12 32
M  V30 33 1 12 33
M  V30 34 1 13 34
M  V30 35 1 14 35
M  V30 36 1 14 36
M  V30 37 1 15 37
M  V30 38 1 15 38
M  V30 39 1 16 39
M  V30 40 1 16 40
M  V30 41 1 18 41
M  V30 42 1 18 42
M  V30 43 1 18 43
M  V30 44 1 19 44
M  V30 END BOND
M  V30 END CTAB
M  END
>  <Dataset>  (811) 
ChEMBL_Kinases

>  <Ligand_Instance>  (811) 
nan

>  <PDB_ID>  (811) 
nan

>  <Standardized_SMILES>  (811) 
CCOc1cccc(OCCCNCCCOC)c1

>  <Name>  (811) 
nan

>  <Pocket>  (811) 
nan

>  <ATP_Site>  (811) 
nan

>  <Peripheral>  (811) 
nan

>  <Num_H_Atoms_ProtBoundConf>  (811) 
nan

>  <Num_Resolved_Atoms>  (811) 
nan

>  <Num_Not_Resolved_Atoms>  (811) 
nan

$$$$
CHEMBL1603623
     RDKit          3D

  0  0  0  0  0  0  0  0  0  0999 V3000
M  V30 BEGIN CTAB
M  V30 COUNTS 46 48 0 0 0
M  V30 BEGIN ATOM
M  V30 1 C -0.983550 -5.294106 2.914865 0
M  V30 2 O -1.974589 -4.361586 2.494121 0
M  V30 3 C -1.595562 -3.248881 1.755305 0
M  V30 4 C -0.260258 -3.082415 1.450562 0
M  V30 5 C 0.072206 -1.963850 0.716106 0
M  V30 6 C -0.808740 -1.014234 0.269300 0
M  V30 7 N -0.448393 0.130304 -0.480817 0
M  V30 8 C 0.405767 0.019034 -1.444320 0
M  V30 9 S 1.264383 -1.464599 -2.016125 0
M  V30 10 N 0.662268 1.272857 -2.115315 0
M  V30 11 C 0.519296 2.580904 -1.548918 0
M  V30 12 C 1.498711 3.011999 -0.522131 0
M  V30 13 C 1.617486 2.195583 0.692914 0
M  V30 14 C 0.906121 2.489160 1.856874 0
M  V30 15 N 1.139359 1.601157 2.837687 0
M  V30 16 C 2.013257 0.687845 2.360145 0
M  V30 17 C 2.618594 -0.428615 2.903443 0
M  V30 18 C 3.504023 -1.159520 2.131475 0
M  V30 19 C 3.787696 -0.790354 0.835517 0
M  V30 20 C 3.187797 0.314903 0.296552 0
M  V30 21 C 2.296649 1.056004 1.062393 0
M  V30 22 C -2.154534 -1.200634 0.587761 0
M  V30 23 O -3.056658 -0.255528 0.146836 0
M  V30 24 C -4.431246 -0.236813 0.344939 0
M  V30 25 C -2.513626 -2.327052 1.331069 0
M  V30 26 H -1.410615 -6.156341 3.426085 0
M  V30 27 H -0.503689 -5.672257 1.975016 0
M  V30 28 H -0.203538 -4.749306 3.478827 0
M  V30 29 H 0.467819 -3.795513 1.775611 0
M  V30 30 H 1.123106 -1.854818 0.491329 0
M  V30 31 H 0.328991 -2.214022 -2.760742 0
M  V30 32 H 0.984205 1.138527 -3.114977 0
M  V30 33 H 0.639876 3.308996 -2.415197 0
M  V30 34 H -0.544362 2.770554 -1.227829 0
M  V30 35 H 1.232331 4.083024 -0.242821 0
M  V30 36 H 2.500023 3.142262 -1.022113 0
M  V30 37 H 0.220674 3.339278 2.000600 0
M  V30 38 H 0.721012 1.617759 3.790810 0
M  V30 39 H 2.333845 -0.643571 3.932602 0
M  V30 40 H 3.951624 -2.033664 2.616300 0
M  V30 41 H 4.492398 -1.382993 0.241796 0
M  V30 42 H 3.400758 0.627829 -0.737512 0
M  V30 43 H -4.775293 -0.960756 1.107313 0
M  V30 44 H -4.792480 0.761530 0.734911 0
M  V30 45 H -5.006564 -0.414536 -0.608349 0
M  V30 46 H -3.538283 -2.490012 1.586001 0
M  V30 END ATOM
M  V30 BEGIN BOND
M  V30 1 1 1 2
M  V30 2 1 2 3
M  V30 3 2 3 4
M  V30 4 1 4 5
M  V30 5 2 5 6
M  V30 6 1 6 7
M  V30 7 2 7 8 CFG=2
M  V30 8 1 8 9
M  V30 9 1 8 10
M  V30 10 1 10 11
M  V30 11 1 11 12
M  V30 12 1 12 13
M  V30 13 2 13 14
M  V30 14 1 14 15
M  V30 15 1 15 16
M  V30 16 2 16 17
M  V30 17 1 17 18
M  V30 18 2 18 19
M  V30 19 1 19 20
M  V30 20 2 20 21
M  V30 21 1 6 22
M  V30 22 1 22 23
M  V30 23 1 23 24
M  V30 24 2 22 25
M  V30 25 1 25 3
M  V30 26 1 21 13
M  V30 27 1 21 16
M  V30 28 1 1 26
M  V30 29 1 1 27
M  V30 30 1 1 28
M  V30 31 1 4 29
M  V30 32 1 5 30
M  V30 33 1 9 31
M  V30 34 1 10 32
M  V30 35 1 11 33
M  V30 36 1 11 34
M  V30 37 1 12 35
M  V30 38 1 12 36
M  V30 39 1 14 37
M  V30 40 1 15 38
M  V30 41 1 17 39
M  V30 42 1 18 40
M  V30 43 1 19 41
M  V30 44 1 20 42
M  V30 45 1 24 43
M  V30 46 1 24 44
M  V30 47 1 24 45
M  V30 48 1 25 46
M  V30 END BOND
M  V30 END CTAB
M  END
>  <Dataset>  (812) 
ChEMBL_Kinases

>  <Ligand_Instance>  (812) 
nan

>  <PDB_ID>  (812) 
nan

>  <Standardized_SMILES>  (812) 
COc1ccc(N=C(S)NCCc2c[nH]c3ccccc23)c(OC)c1

>  <Name>  (812) 
nan

>  <Pocket>  (812) 
nan

>  <ATP_Site>  (812) 
nan

>  <Peripheral>  (812) 
nan

>  <Num_H_Atoms_ProtBoundConf>  (812) 
nan

>  <Num_Resolved_Atoms>  (812) 
nan

>  <Num_Not_Resolved_Atoms>  (812) 
nan

$$$$
CHEMBL1603718
     RDKit          3D

  0  0  0  0  0  0  0  0  0  0999 V3000
M  V30 BEGIN CTAB
M  V30 COUNTS 39 42 0 0 0
M  V30 BEGIN ATOM
M  V30 1 C 0.171646 -5.132542 3.593825 0
M  V30 2 O 1.415202 -4.676651 3.143448 0
M  V30 3 C 1.600078 -3.506816 2.419519 0
M  V30 4 N 2.862281 -3.219293 2.066840 0
M  V30 5 C 3.224093 -2.129439 1.365172 0
M  V30 6 C 2.220640 -1.259331 0.990582 0
M  V30 7 N 2.510959 -0.149241 0.287124 0
M  V30 8 C 1.515324 0.709776 -0.081970 0
M  V30 9 C 1.719253 1.937616 -0.843208 0
M  V30 10 C 2.534438 1.959296 -1.949634 0
M  V30 11 C 2.713540 3.148820 -2.662247 0
M  V30 12 C 2.063908 4.286092 -2.238072 0
M  V30 13 C 1.241513 4.237143 -1.111128 0
M  V30 14 C 1.054933 3.063493 -0.394734 0
M  V30 15 C 0.226757 0.404395 0.285143 0
M  V30 16 O -0.753041 1.163311 -0.026550 0
M  V30 17 N -0.078953 -0.698782 0.986690 0
M  V30 18 C -1.452212 -0.968043 1.344438 0
M  V30 19 C -2.119581 -1.671737 0.362606 0
M  V30 20 C -3.462888 -2.019556 0.542192 0
M  V30 21 C -4.047702 -1.620079 1.731789 0
M  V30 22 C -3.382832 -0.916379 2.715270 0
M  V30 23 C -2.058639 -0.581091 2.522948 0
M  V30 24 C 0.914155 -1.531605 1.340534 0
M  V30 25 N 0.613396 -2.644425 2.047124 0
M  V30 26 H 0.153783 -5.100968 4.699825 0
M  V30 27 H -0.063964 -6.173450 3.273585 0
M  V30 28 H -0.621593 -4.443406 3.235493 0
M  V30 29 H 4.217113 -1.873976 1.070263 0
M  V30 30 H 3.042707 1.074838 -2.283615 0
M  V30 31 H 3.340539 3.235308 -3.540926 0
M  V30 32 H 2.162124 5.240444 -2.748551 0
M  V30 33 H 0.744105 5.160923 -0.807373 0
M  V30 34 H 0.398380 3.138576 0.459701 0
M  V30 35 H -1.687581 -1.994440 -0.571852 0
M  V30 36 H -3.991903 -2.572025 -0.225313 0
M  V30 37 H -5.084977 -1.875621 1.896729 0
M  V30 38 H -3.842297 -0.606762 3.641359 0
M  V30 39 H -1.425738 -0.035175 3.209089 0
M  V30 END ATOM
M  V30 BEGIN BOND
M  V30 1 1 1 2
M  V30 2 1 2 3
M  V30 3 2 3 4
M  V30 4 1 4 5
M  V30 5 2 5 6
M  V30 6 1 6 7
M  V30 7 2 7 8
M  V30 8 1 8 9
M  V30 9 2 9 10
M  V30 10 1 10 11
M  V30 11 2 11 12
M  V30 12 1 12 13
M  V30 13 2 13 14
M  V30 14 1 8 15
M  V30 15 2 15 16
M  V30 16 1 15 17
M  V30 17 1 17 18
M  V30 18 2 18 19
M  V30 19 1 19 20
M  V30 20 2 20 21
M  V30 21 1 21 22
M  V30 22 2 22 23
M  V30 23 1 17 24
M  V30 24 2 24 25
M  V30 25 1 25 3
M  V30 26 1 24 6
M  V30 27 1 14 9
M  V30 28 1 23 18
M  V30 29 1 1 26
M  V30 30 1 1 27
M  V30 31 1 1 28
M  V30 32 1 5 29
M  V30 33 1 10 30
M  V30 34 1 11 31
M  V30 35 1 12 32
M  V30 36 1 13 33
M  V30 37 1 14 34
M  V30 38 1 19 35
M  V30 39 1 20 36
M  V30 40 1 21 37
M  V30 41 1 22 38
M  V30 42 1 23 39
M  V30 END BOND
M  V30 END CTAB
M  END
>  <Dataset>  (813) 
ChEMBL_Kinases

>  <Ligand_Instance>  (813) 
nan

>  <PDB_ID>  (813) 
nan

>  <Standardized_SMILES>  (813) 
COc1ncc2nc(-c3ccccc3)c(=O)n(-c3ccccc3)c2n1

>  <Name>  (813) 
nan

>  <Pocket>  (813) 
nan

>  <ATP_Site>  (813) 
nan

>  <Peripheral>  (813) 
nan

>  <Num_H_Atoms_ProtBoundConf>  (813) 
nan

>  <Num_Resolved_Atoms>  (813) 
nan

>  <Num_Not_Resolved_Atoms>  (813) 
nan

$$$$
CHEMBL160375
     RDKit          3D

  0  0  0  0  0  0  0  0  0  0999 V3000
M  V30 BEGIN CTAB
M  V30 COUNTS 68 69 0 0 0
M  V30 BEGIN ATOM
M  V30 1 C 3.367248 0.313213 7.293330 0
M  V30 2 C 3.174439 -0.230652 5.915380 0
M  V30 3 C 3.651871 0.740274 4.832078 0
M  V30 4 C 3.448337 0.173122 3.458528 0
M  V30 5 C 3.911685 1.112186 2.365721 0
M  V30 6 C 3.667406 0.452426 0.992230 0
M  V30 7 C 4.097686 1.319472 -0.113066 0
M  V30 8 C 3.949672 0.780843 -1.460960 0
M  V30 9 C 2.695820 0.455963 -2.115138 0
M  V30 10 C 1.745562 -0.543995 -1.587430 0
M  V30 11 C 0.559266 -0.715032 -2.578372 0
M  V30 12 C -0.417457 -1.753075 -2.071932 0
M  V30 13 C -1.016432 -1.444517 -0.798476 0 CFG=1
M  V30 14 C -1.746430 -0.127739 -0.963994 0
M  V30 15 O -1.337532 0.852127 -0.255818 0
M  V30 16 N -2.839230 0.295868 -1.766601 0
M  V30 17 C -3.939915 -0.428703 -2.376796 0 CFG=2
M  V30 18 C -4.539830 0.367608 -3.516144 0
M  V30 19 O -5.606025 -0.366257 -4.084962 0
M  V30 20 C -4.977511 -0.768988 -1.345512 0
M  V30 21 C -4.490800 -1.760921 -0.367310 0
M  V30 22 C -5.720112 -2.056297 0.233130 0
M  V30 23 C -5.814145 -2.985879 1.275147 0
M  V30 24 C -4.640675 -3.600772 1.686995 0
M  V30 25 C -3.417449 -3.322089 1.106439 0
M  V30 26 C -3.357558 -2.400861 0.081052 0
M  V30 27 N -1.974497 -2.375807 -0.256810 0
M  V30 28 C -1.402377 -3.669469 0.047164 0
M  V30 29 H 3.980894 1.235578 7.296163 0
M  V30 30 H 3.832874 -0.440756 7.980529 0
M  V30 31 H 2.419163 0.596424 7.793138 0
M  V30 32 H 3.726724 -1.189247 5.833048 0
M  V30 33 H 2.089270 -0.445496 5.782103 0
M  V30 34 H 3.142540 1.701441 4.962279 0
M  V30 35 H 4.753953 0.858553 5.038817 0
M  V30 36 H 2.369322 -0.068746 3.367357 0
M  V30 37 H 4.009872 -0.778481 3.382961 0
M  V30 38 H 3.406939 2.079114 2.411618 0
M  V30 39 H 4.995881 1.276001 2.493411 0
M  V30 40 H 4.289113 -0.484253 0.951069 0
M  V30 41 H 2.627809 0.143830 0.998039 0
M  V30 42 H 5.183709 1.617954 0.112712 0
M  V30 43 H 3.598108 2.334328 -0.094768 0
M  V30 44 H 4.663870 -0.107907 -1.632286 0
M  V30 45 H 4.462529 1.562661 -2.152252 0
M  V30 46 H 2.107485 1.392950 -2.382776 0
M  V30 47 H 2.975125 0.080960 -3.169019 0
M  V30 48 H 1.315704 -0.154275 -0.637188 0
M  V30 49 H 2.222199 -1.505362 -1.378928 0
M  V30 50 H 1.027265 -1.071806 -3.529786 0
M  V30 51 H 0.106813 0.263186 -2.771574 0
M  V30 52 H 0.130219 -2.693100 -2.246161 0
M  V30 53 H -1.199419 -1.788871 -2.894727 0
M  V30 54 H -0.237360 -1.199066 -0.048333 0
M  V30 55 H -2.895518 1.333271 -1.981872 0
M  V30 56 H -3.533753 -1.350840 -2.839028 0
M  V30 57 H -4.969971 1.331946 -3.191945 0
M  V30 58 H -3.812094 0.484058 -4.333432 0
M  V30 59 H -5.393175 -1.336934 -3.949428 0
M  V30 60 H -5.309206 0.156244 -0.834204 0
M  V30 61 H -5.833667 -1.227973 -1.922135 0
M  V30 62 H -6.645507 -1.617959 -0.040123 0
M  V30 63 H -6.762124 -3.219574 1.744686 0
M  V30 64 H -4.703285 -4.320661 2.491745 0
M  V30 65 H -2.567518 -3.854716 1.508197 0
M  V30 66 H -0.681703 -3.808940 -0.826145 0
M  V30 67 H -2.027651 -4.532394 -0.247296 0
M  V30 68 H -0.713668 -3.744057 0.862429 0
M  V30 END ATOM
M  V30 BEGIN BOND
M  V30 1 1 1 2
M  V30 2 1 2 3
M  V30 3 1 3 4
M  V30 4 1 4 5
M  V30 5 1 5 6
M  V30 6 1 6 7
M  V30 7 1 7 8
M  V30 8 1 8 9
M  V30 9 1 9 10
M  V30 10 1 10 11
M  V30 11 1 11 12
M  V30 12 1 12 13
M  V30 13 1 13 14
M  V30 14 2 14 15
M  V30 15 1 14 16
M  V30 16 1 16 17
M  V30 17 1 17 18
M  V30 18 1 18 19
M  V30 19 1 17 20
M  V30 20 1 20 21
M  V30 21 2 21 22
M  V30 22 1 22 23
M  V30 23 2 23 24
M  V30 24 1 24 25
M  V30 25 2 25 26
M  V30 26 1 26 27
M  V30 27 1 27 28
M  V30 28 1 27 13
M  V30 29 1 26 21
M  V30 30 1 1 29
M  V30 31 1 1 30
M  V30 32 1 1 31
M  V30 33 1 2 32
M  V30 34 1 2 33
M  V30 35 1 3 34
M  V30 36 1 3 35
M  V30 37 1 4 36
M  V30 38 1 4 37
M  V30 39 1 5 38
M  V30 40 1 5 39
M  V30 41 1 6 40
M  V30 42 1 6 41
M  V30 43 1 7 42
M  V30 44 1 7 43
M  V30 45 1 8 44
M  V30 46 1 8 45
M  V30 47 1 9 46
M  V30 48 1 9 47
M  V30 49 1 10 48
M  V30 50 1 10 49
M  V30 51 1 11 50
M  V30 52 1 11 51
M  V30 53 1 12 52
M  V30 54 1 12 53
M  V30 55 1 13 54 CFG=1
M  V30 56 1 16 55
M  V30 57 1 17 56 CFG=3
M  V30 58 1 18 57
M  V30 59 1 18 58
M  V30 60 1 19 59
M  V30 61 1 20 60
M  V30 62 1 20 61
M  V30 63 1 22 62
M  V30 64 1 23 63
M  V30 65 1 24 64
M  V30 66 1 25 65
M  V30 67 1 28 66
M  V30 68 1 28 67
M  V30 69 1 28 68
M  V30 END BOND
M  V30 END CTAB
M  END
>  <Dataset>  (814) 
ChEMBL_Kinases

>  <Ligand_Instance>  (814) 
nan

>  <PDB_ID>  (814) 
nan

>  <Standardized_SMILES>  (814) 
CCCCCCCCCCCC[C@H]1C(=O)N[C@H](CO)Cc2ccccc2N1C

>  <Name>  (814) 
nan

>  <Pocket>  (814) 
nan

>  <ATP_Site>  (814) 
nan

>  <Peripheral>  (814) 
nan

>  <Num_H_Atoms_ProtBoundConf>  (814) 
nan

>  <Num_Resolved_Atoms>  (814) 
nan

>  <Num_Not_Resolved_Atoms>  (814) 
nan

$$$$
CHEMBL1603898
     RDKit          3D

  0  0  0  0  0  0  0  0  0  0999 V3000
M  V30 BEGIN CTAB
M  V30 COUNTS 39 40 0 0 0
M  V30 BEGIN ATOM
M  V30 1 C 2.609515 -4.534335 2.831815 0
M  V30 2 O 2.893800 -3.148682 2.872771 0
M  V30 3 C 3.955490 -2.578461 3.530857 0
M  V30 4 O 4.910775 -3.045838 4.230157 0
M  V30 5 C 4.085493 -1.096187 3.457209 0
M  V30 6 N 3.027148 -0.493871 2.675399 0
M  V30 7 C 2.905982 0.903145 2.440326 0
M  V30 8 O 3.748665 1.661290 2.926987 0
M  V30 9 C 1.831276 1.491309 1.649289 0
M  V30 10 C 1.825887 2.860822 1.494291 0
M  V30 11 C 0.796056 3.425292 0.736046 0
M  V30 12 C -0.225132 2.692407 0.126929 0
M  V30 13 C -0.171956 1.327979 0.313576 0
M  V30 14 C -1.228903 0.516813 -0.311425 0
M  V30 15 C -1.842499 0.852019 -1.501014 0
M  V30 16 C -2.831661 0.000823 -1.989488 0
M  V30 17 C -3.192414 -1.157813 -1.296463 0
M  V30 18 O -4.158776 -2.026908 -1.735238 0
M  V30 19 C -4.894327 -1.853466 -2.927009 0
M  V30 20 C -2.559066 -1.480285 -0.092754 0
M  V30 21 C -1.565907 -0.633129 0.405192 0
M  V30 22 C 0.834594 0.748781 1.057789 0
M  V30 23 H 2.673935 -4.910680 1.785536 0
M  V30 24 H 1.547809 -4.679691 3.184957 0
M  V30 25 H 3.249721 -5.062712 3.546394 0
M  V30 26 H 3.973343 -0.726143 4.499992 0
M  V30 27 H 5.083744 -0.843705 3.103251 0
M  V30 28 H 2.320485 -1.143320 2.268308 0
M  V30 29 H 2.562836 3.526609 1.918635 0
M  V30 30 H 0.755505 4.508036 0.588956 0
M  V30 31 H -0.983799 3.212588 -0.443388 0
M  V30 32 H -1.535886 1.753296 -2.004171 0
M  V30 33 H -3.317309 0.239715 -2.904344 0
M  V30 34 H -4.331707 -2.043112 -3.843525 0
M  V30 35 H -5.204709 -0.778935 -2.929883 0
M  V30 36 H -5.819490 -2.487487 -2.863335 0
M  V30 37 H -2.846710 -2.386479 0.441717 0
M  V30 38 H -1.114988 -0.935212 1.336448 0
M  V30 39 H 0.820142 -0.315278 1.165326 0
M  V30 END ATOM
M  V30 BEGIN BOND
M  V30 1 1 1 2
M  V30 2 1 2 3
M  V30 3 2 3 4
M  V30 4 1 3 5
M  V30 5 1 5 6
M  V30 6 1 6 7
M  V30 7 2 7 8
M  V30 8 1 7 9
M  V30 9 2 9 10
M  V30 10 1 10 11
M  V30 11 2 11 12
M  V30 12 1 12 13
M  V30 13 1 13 14
M  V30 14 2 14 15
M  V30 15 1 15 16
M  V30 16 2 16 17
M  V30 17 1 17 18
M  V30 18 1 18 19
M  V30 19 1 17 20
M  V30 20 2 20 21
M  V30 21 2 13 22
M  V30 22 1 22 9
M  V30 23 1 21 14
M  V30 24 1 1 23
M  V30 25 1 1 24
M  V30 26 1 1 25
M  V30 27 1 5 26
M  V30 28 1 5 27
M  V30 29 1 6 28
M  V30 30 1 10 29
M  V30 31 1 11 30
M  V30 32 1 12 31
M  V30 33 1 15 32
M  V30 34 1 16 33
M  V30 35 1 19 34
M  V30 36 1 19 35
M  V30 37 1 19 36
M  V30 38 1 20 37
M  V30 39 1 21 38
M  V30 40 1 22 39
M  V30 END BOND
M  V30 END CTAB
M  END
>  <Dataset>  (815) 
ChEMBL_Kinases

>  <Ligand_Instance>  (815) 
nan

>  <PDB_ID>  (815) 
nan

>  <Standardized_SMILES>  (815) 
COC(=O)CNC(=O)c1cccc(-c2ccc(OC)cc2)c1

>  <Name>  (815) 
nan

>  <Pocket>  (815) 
nan

>  <ATP_Site>  (815) 
nan

>  <Peripheral>  (815) 
nan

>  <Num_H_Atoms_ProtBoundConf>  (815) 
nan

>  <Num_Resolved_Atoms>  (815) 
nan

>  <Num_Not_Resolved_Atoms>  (815) 
nan

$$$$
CHEMBL1603965
     RDKit          3D

  0  0  0  0  0  0  0  0  0  0999 V3000
M  V30 BEGIN CTAB
M  V30 COUNTS 41 44 0 0 0
M  V30 BEGIN ATOM
M  V30 1 O 1.291120 -4.162662 3.991878 0
M  V30 2 C 1.607766 -4.400976 2.772815 0
M  V30 3 O 0.515310 -5.001122 2.162721 0
M  V30 4 C 3.001260 -3.933923 2.547902 0
M  V30 5 S 3.005946 -2.143629 2.461372 0
M  V30 6 C 2.208063 -1.583476 0.982439 0
M  V30 7 N 3.044509 -1.457751 -0.062813 0
M  V30 8 N 2.353912 -1.019460 -1.128910 0
M  V30 9 C 1.064752 -0.868742 -0.744189 0
M  V30 10 C 0.151189 -0.384653 -1.766607 0
M  V30 11 C -1.247897 -0.107877 -1.362544 0
M  V30 12 O -1.339311 1.081854 -0.574429 0
M  V30 13 C -0.287892 2.001612 -0.586780 0
M  V30 14 C -0.465056 2.966357 0.381162 0
M  V30 15 C 0.515190 3.953034 0.483713 0
M  V30 16 C 1.585360 3.906214 -0.374742 0
M  V30 17 C 1.781591 2.957158 -1.345022 0
M  V30 18 C 0.809393 1.960738 -1.461466 0
M  V30 19 O 0.699998 0.848190 -2.333309 0
M  V30 20 N 1.005288 -1.213428 0.525888 0
M  V30 21 C -0.112002 -1.216659 1.388475 0
M  V30 22 C -0.378358 -0.154816 2.266956 0
M  V30 23 C -1.475144 -0.141429 3.128016 0
M  V30 24 C -2.329343 -1.199143 3.125109 0
M  V30 25 C -2.132383 -2.261976 2.300444 0
M  V30 26 C -1.030369 -2.249478 1.451341 0
M  V30 27 H 0.051264 -5.767013 2.656707 0
M  V30 28 H 3.649791 -4.288887 3.361664 0
M  V30 29 H 3.401196 -4.352037 1.583693 0
M  V30 30 H 0.179502 -1.109853 -2.608706 0
M  V30 31 H -1.786949 -0.959853 -0.970918 0
M  V30 32 H -1.787495 0.167335 -2.324029 0
M  V30 33 H -1.285872 3.038816 1.069837 0
M  V30 34 H 0.536333 4.767186 1.176363 0
M  V30 35 H 2.389865 4.648936 -0.340877 0
M  V30 36 H 2.549535 2.794930 -2.070789 0
M  V30 37 H 0.286859 0.693348 2.285647 0
M  V30 38 H -1.715399 0.644655 3.810286 0
M  V30 39 H -3.223024 -1.323950 3.744569 0
M  V30 40 H -2.734841 -3.162718 2.197584 0
M  V30 41 H -0.800821 -3.060903 0.754632 0
M  V30 END ATOM
M  V30 BEGIN BOND
M  V30 1 2 1 2
M  V30 2 1 2 3
M  V30 3 1 2 4
M  V30 4 1 4 5
M  V30 5 1 5 6
M  V30 6 2 6 7
M  V30 7 1 7 8
M  V30 8 2 8 9
M  V30 9 1 9 10
M  V30 10 1 10 11
M  V30 11 1 11 12
M  V30 12 1 12 13
M  V30 13 2 13 14
M  V30 14 1 14 15
M  V30 15 2 15 16
M  V30 16 1 16 17
M  V30 17 2 17 18
M  V30 18 1 18 19
M  V30 19 1 9 20
M  V30 20 1 20 21
M  V30 21 2 21 22
M  V30 22 1 22 23
M  V30 23 2 23 24
M  V30 24 1 24 25
M  V30 25 2 25 26
M  V30 26 1 20 6
M  V30 27 1 26 21
M  V30 28 1 19 10
M  V30 29 1 18 13
M  V30 30 1 3 27
M  V30 31 1 4 28
M  V30 32 1 4 29
M  V30 33 1 10 30
M  V30 34 1 11 31
M  V30 35 1 11 32
M  V30 36 1 14 33
M  V30 37 1 15 34
M  V30 38 1 16 35
M  V30 39 1 17 36
M  V30 40 1 22 37
M  V30 41 1 23 38
M  V30 42 1 24 39
M  V30 43 1 25 40
M  V30 44 1 26 41
M  V30 END BOND
M  V30 END CTAB
M  END
>  <Dataset>  (816) 
ChEMBL_Kinases

>  <Ligand_Instance>  (816) 
nan

>  <PDB_ID>  (816) 
nan

>  <Standardized_SMILES>  (816) 
O=C(O)CSc1nnc(C2COc3ccccc3O2)n1-c1ccccc1

>  <Name>  (816) 
nan

>  <Pocket>  (816) 
nan

>  <ATP_Site>  (816) 
nan

>  <Peripheral>  (816) 
nan

>  <Num_H_Atoms_ProtBoundConf>  (816) 
nan

>  <Num_Resolved_Atoms>  (816) 
nan

>  <Num_Not_Resolved_Atoms>  (816) 
nan

$$$$
CHEMBL1603989
     RDKit          3D

  0  0  0  0  0  0  0  0  0  0999 V3000
M  V30 BEGIN CTAB
M  V30 COUNTS 40 42 0 0 0
M  V30 BEGIN ATOM
M  V30 1 C -0.431806 -4.681221 0.471523 0
M  V30 2 C 0.441667 -4.160068 1.568948 0
M  V30 3 C 0.342432 -2.612125 1.626429 0
M  V30 4 C 0.799158 -2.137508 0.308006 0
M  V30 5 C 0.824537 -0.724816 0.006975 0
M  V30 6 N 1.290120 -0.533238 -1.244372 0
M  V30 7 C 1.444508 0.641857 -1.851285 0
M  V30 8 C 1.925248 0.835763 -3.142437 0
M  V30 9 C 2.042883 2.104386 -3.669065 0
M  V30 10 C 1.701877 3.245340 -2.973790 0
M  V30 11 C 1.226739 3.041876 -1.695659 0
M  V30 12 C 1.106244 1.785851 -1.163736 0
M  V30 13 C 0.627507 1.621162 0.116853 0
M  V30 14 O 0.315747 2.648692 0.755111 0
M  V30 15 N 0.505172 0.395391 0.648184 0
M  V30 16 C -0.006140 0.362499 1.959972 0
M  V30 17 C -1.397481 0.311674 1.915409 0
M  V30 18 C -2.174301 0.291154 3.078130 0
M  V30 19 C -1.543896 0.322151 4.302141 0
M  V30 20 O -2.218946 0.305718 5.524371 0
M  V30 21 C -0.169757 0.372438 4.359075 0
M  V30 22 C 0.595307 0.392708 3.223817 0
M  V30 23 H 0.036717 -4.746249 -0.514271 0
M  V30 24 H -1.377707 -4.108291 0.379943 0
M  V30 25 H -0.704859 -5.734908 0.760336 0
M  V30 26 H 0.006272 -4.494398 2.539994 0
M  V30 27 H 1.473545 -4.475347 1.414704 0
M  V30 28 H 1.044143 -2.261221 2.408947 0
M  V30 29 H -0.676985 -2.428635 1.931447 0
M  V30 30 H 1.873005 -2.512862 0.209930 0
M  V30 31 H 0.295555 -2.721615 -0.530013 0
M  V30 32 H 2.197294 -0.062362 -3.699189 0
M  V30 33 H 2.429209 2.133603 -4.684809 0
M  V30 34 H 1.835505 4.176151 -3.483956 0
M  V30 35 H 0.953720 3.932013 -1.134981 0
M  V30 36 H -2.046079 0.282255 1.032509 0
M  V30 37 H -3.244229 0.252500 3.109002 0
M  V30 38 H -3.228819 0.260366 5.465895 0
M  V30 39 H 0.414683 0.399729 5.276264 0
M  V30 40 H 1.675692 0.431140 3.099476 0
M  V30 END ATOM
M  V30 BEGIN BOND
M  V30 1 1 1 2
M  V30 2 1 2 3
M  V30 3 1 3 4
M  V30 4 1 4 5
M  V30 5 2 5 6
M  V30 6 1 6 7
M  V30 7 2 7 8
M  V30 8 1 8 9
M  V30 9 2 9 10
M  V30 10 1 10 11
M  V30 11 2 11 12
M  V30 12 1 12 13
M  V30 13 2 13 14
M  V30 14 1 13 15
M  V30 15 1 15 16
M  V30 16 2 16 17
M  V30 17 1 17 18
M  V30 18 2 18 19
M  V30 19 1 19 20
M  V30 20 1 19 21
M  V30 21 2 21 22
M  V30 22 1 15 5
M  V30 23 1 22 16
M  V30 24 1 12 7
M  V30 25 1 1 23
M  V30 26 1 1 24
M  V30 27 1 1 25
M  V30 28 1 2 26
M  V30 29 1 2 27
M  V30 30 1 3 28
M  V30 31 1 3 29
M  V30 32 1 4 30
M  V30 33 1 4 31
M  V30 34 1 8 32
M  V30 35 1 9 33
M  V30 36 1 10 34
M  V30 37 1 11 35
M  V30 38 1 17 36
M  V30 39 1 18 37
M  V30 40 1 20 38
M  V30 41 1 21 39
M  V30 42 1 22 40
M  V30 END BOND
M  V30 END CTAB
M  END
>  <Dataset>  (817) 
ChEMBL_Kinases

>  <Ligand_Instance>  (817) 
nan

>  <PDB_ID>  (817) 
nan

>  <Standardized_SMILES>  (817) 
CCCCc1nc2ccccc2c(=O)n1-c1ccc(O)cc1

>  <Name>  (817) 
nan

>  <Pocket>  (817) 
nan

>  <ATP_Site>  (817) 
nan

>  <Peripheral>  (817) 
nan

>  <Num_H_Atoms_ProtBoundConf>  (817) 
nan

>  <Num_Resolved_Atoms>  (817) 
nan

>  <Num_Not_Resolved_Atoms>  (817) 
nan

$$$$
CHEMBL1603994
     RDKit          3D

  0  0  0  0  0  0  0  0  0  0999 V3000
M  V30 BEGIN CTAB
M  V30 COUNTS 27 28 0 0 0
M  V30 BEGIN ATOM
M  V30 1 C -1.016080 -2.863109 4.247101 0
M  V30 2 C -0.695713 -2.187470 2.981407 0
M  V30 3 N 0.505007 -2.041652 2.416083 0
M  V30 4 C 0.788594 -1.434645 1.279709 0
M  V30 5 S 2.515065 -1.459871 0.887550 0
M  V30 6 C 3.312156 -0.035975 1.637623 0
M  V30 7 C 2.885262 1.242329 1.089300 0
M  V30 8 N 2.565447 2.259326 0.648364 0
M  V30 9 C -0.170418 -0.857747 0.515032 0
M  V30 10 C -0.142142 -0.200243 -0.652062 0
M  V30 11 C 1.045388 0.082502 -1.475521 0
M  V30 12 C -1.299871 0.313719 -1.257770 0
M  V30 13 C -1.675277 1.032899 -2.428315 0
M  V30 14 S -2.631911 -0.165661 -0.068300 0
M  V30 15 C -1.464404 -1.014845 1.125163 0
M  V30 16 N -1.767293 -1.677305 2.364769 0
M  V30 17 H -0.949545 -2.104956 5.059502 0
M  V30 18 H -2.019022 -3.298129 4.278971 0
M  V30 19 H -0.217398 -3.626991 4.431771 0
M  V30 20 H 4.414781 -0.106007 1.434488 0
M  V30 21 H 3.241073 -0.029187 2.747365 0
M  V30 22 H 0.832993 -0.340794 -2.509519 0
M  V30 23 H 1.971350 -0.393823 -1.189811 0
M  V30 24 H 1.156859 1.176083 -1.683242 0
M  V30 25 H -1.753769 2.129169 -2.332866 0
M  V30 26 H -2.650248 0.657854 -2.821122 0
M  V30 27 H -0.935226 0.800169 -3.247436 0
M  V30 END ATOM
M  V30 BEGIN BOND
M  V30 1 1 1 2
M  V30 2 2 2 3
M  V30 3 1 3 4
M  V30 4 1 4 5
M  V30 5 1 5 6
M  V30 6 1 6 7
M  V30 7 3 7 8
M  V30 8 2 4 9
M  V30 9 1 9 10
M  V30 10 1 10 11
M  V30 11 2 10 12
M  V30 12 1 12 13
M  V30 13 1 12 14
M  V30 14 1 14 15
M  V30 15 2 15 16
M  V30 16 1 16 2
M  V30 17 1 15 9
M  V30 18 1 1 17
M  V30 19 1 1 18
M  V30 20 1 1 19
M  V30 21 1 6 20
M  V30 22 1 6 21
M  V30 23 1 11 22
M  V30 24 1 11 23
M  V30 25 1 11 24
M  V30 26 1 13 25
M  V30 27 1 13 26
M  V30 28 1 13 27
M  V30 END BOND
M  V30 END CTAB
M  END
>  <Dataset>  (818) 
ChEMBL_Kinases

>  <Ligand_Instance>  (818) 
nan

>  <PDB_ID>  (818) 
nan

>  <Standardized_SMILES>  (818) 
Cc1nc(SCC#N)c2c(C)c(C)sc2n1

>  <Name>  (818) 
nan

>  <Pocket>  (818) 
nan

>  <ATP_Site>  (818) 
nan

>  <Peripheral>  (818) 
nan

>  <Num_H_Atoms_ProtBoundConf>  (818) 
nan

>  <Num_Resolved_Atoms>  (818) 
nan

>  <Num_Not_Resolved_Atoms>  (818) 
nan

$$$$
CHEMBL1603586
     RDKit          3D

  0  0  0  0  0  0  0  0  0  0999 V3000
M  V30 BEGIN CTAB
M  V30 COUNTS 28 29 0 0 0
M  V30 BEGIN ATOM
M  V30 1 C -1.706881 -1.655989 4.197532 0
M  V30 2 C -0.872470 -1.176100 3.061246 0
M  V30 3 C 0.187467 -0.334411 3.268518 0
M  V30 4 C 0.970378 0.115247 2.198016 0
M  V30 5 C 0.686552 -0.285231 0.897260 0
M  V30 6 C 1.556442 0.238217 -0.122923 0
M  V30 7 O 2.463189 1.002414 0.363089 0
M  V30 8 N 1.622720 0.091992 -1.519914 0
M  V30 9 C 0.899140 -0.589638 -2.416535 0
M  V30 10 N 1.336326 -0.431748 -3.675124 0
M  V30 11 N 2.379997 0.382087 -3.582272 0
M  V30 12 C 2.542824 0.688648 -2.294615 0
M  V30 13 N 3.617438 1.558608 -1.972190 0
M  V30 14 C -0.390173 -1.126228 0.786414 0
M  V30 15 C -1.192045 -1.599240 1.794203 0
M  V30 16 C -2.330718 -2.509766 1.526569 0
M  V30 17 H -1.510415 -1.022914 5.065488 0
M  V30 18 H -1.498985 -2.709387 4.437079 0
M  V30 19 H -2.771668 -1.602335 3.890920 0
M  V30 20 H 0.362564 -0.055310 4.298826 0
M  V30 21 H 1.755570 0.768567 2.563554 0
M  V30 22 H 0.052223 -1.221290 -2.287848 0
M  V30 23 H 4.612921 1.482114 -1.609167 0
M  V30 24 H 3.921231 2.538907 -1.934589 0
M  V30 25 H -0.657303 -1.468232 -0.189779 0
M  V30 26 H -3.239527 -1.986027 1.170718 0
M  V30 27 H -2.048836 -3.249588 0.726675 0
M  V30 28 H -2.542356 -3.096355 2.461459 0
M  V30 END ATOM
M  V30 BEGIN BOND
M  V30 1 1 1 2
M  V30 2 2 2 3
M  V30 3 1 3 4
M  V30 4 2 4 5
M  V30 5 1 5 6
M  V30 6 2 6 7
M  V30 7 1 6 8
M  V30 8 1 8 9
M  V30 9 2 9 10
M  V30 10 1 10 11
M  V30 11 2 11 12
M  V30 12 1 12 13
M  V30 13 1 5 14
M  V30 14 2 14 15
M  V30 15 1 15 16
M  V30 16 1 15 2
M  V30 17 1 12 8
M  V30 18 1 1 17
M  V30 19 1 1 18
M  V30 20 1 1 19
M  V30 21 1 3 20
M  V30 22 1 4 21
M  V30 23 1 9 22
M  V30 24 1 13 23
M  V30 25 1 13 24
M  V30 26 1 14 25
M  V30 27 1 16 26
M  V30 28 1 16 27
M  V30 29 1 16 28
M  V30 END BOND
M  V30 END CTAB
M  END
>  <Dataset>  (819) 
ChEMBL_Kinases

>  <Ligand_Instance>  (819) 
nan

>  <PDB_ID>  (819) 
nan

>  <Standardized_SMILES>  (819) 
Cc1ccc(C(=O)n2cnnc2N)cc1C

>  <Name>  (819) 
nan

>  <Pocket>  (819) 
nan

>  <ATP_Site>  (819) 
nan

>  <Peripheral>  (819) 
nan

>  <Num_H_Atoms_ProtBoundConf>  (819) 
nan

>  <Num_Resolved_Atoms>  (819) 
nan

>  <Num_Not_Resolved_Atoms>  (819) 
nan

$$$$
CHEMBL1597022
     RDKit          3D

  0  0  0  0  0  0  0  0  0  0999 V3000
M  V30 BEGIN CTAB
M  V30 COUNTS 46 48 0 0 0
M  V30 BEGIN ATOM
M  V30 1 C 2.496891 -4.915624 -0.748385 0
M  V30 2 C 1.319123 -4.260811 -1.470372 0
M  V30 3 O 0.808596 -3.201732 -0.676563 0
M  V30 4 C -0.232654 -2.381136 -1.004015 0
M  V30 5 O -0.792590 -2.587429 -2.125538 0
M  V30 6 C -0.541483 -1.381195 0.001875 0
M  V30 7 C 0.163725 -0.182792 -0.171807 0
M  V30 8 N 1.151451 0.476810 -1.013627 0
M  V30 9 C 0.670104 1.166653 -2.148028 0
M  V30 10 O -0.558875 1.186351 -2.395914 0
M  V30 11 C 1.595914 1.868498 -3.046521 0
M  V30 12 C 1.115949 2.513978 -4.164532 0
M  V30 13 C 2.237084 3.066603 -4.786546 0
M  V30 14 C 3.339143 2.716004 -3.995182 0
M  V30 15 O 2.896976 2.003577 -2.973452 0
M  V30 16 S -0.465210 0.843531 1.242366 0
M  V30 17 C -1.534678 -0.356988 1.877180 0
M  V30 18 C -2.315600 -0.036321 3.061905 0
M  V30 19 O -3.534876 0.192170 3.228353 0
M  V30 20 N -1.570644 0.040394 4.291082 0
M  V30 21 C -1.807658 0.333702 5.713657 0
M  V30 22 C -0.791815 1.412589 6.067918 0
M  V30 23 C 0.378955 1.042222 5.164947 0
M  V30 24 C -0.124029 -0.215899 4.469180 0
M  V30 25 C -1.394343 -1.421021 1.059648 0
M  V30 26 C -2.174931 -2.659026 1.306316 0
M  V30 27 H 2.419899 -6.020049 -0.724374 0
M  V30 28 H 3.456350 -4.631346 -1.234765 0
M  V30 29 H 2.489520 -4.568268 0.320534 0
M  V30 30 H 1.664479 -3.958523 -2.455524 0
M  V30 31 H 0.536479 -5.043502 -1.641973 0
M  V30 32 H 2.160518 0.451568 -0.804774 0
M  V30 33 H 0.136964 2.628426 -4.560281 0
M  V30 34 H 2.226148 3.651357 -5.704643 0
M  V30 35 H 4.378516 2.994274 -4.204559 0
M  V30 36 H -2.821624 0.742980 5.893647 0
M  V30 37 H -1.554600 -0.566207 6.288135 0
M  V30 38 H -0.436526 1.340986 7.102859 0
M  V30 39 H -1.172986 2.430385 5.898315 0
M  V30 40 H 0.582501 1.861762 4.476500 0
M  V30 41 H 1.295067 0.796895 5.728409 0
M  V30 42 H 0.066492 -1.132476 5.032007 0
M  V30 43 H 0.373880 -0.291928 3.483225 0
M  V30 44 H -2.287876 -3.318872 0.441997 0
M  V30 45 H -3.206352 -2.412404 1.637985 0
M  V30 46 H -1.753079 -3.264632 2.151235 0
M  V30 END ATOM
M  V30 BEGIN BOND
M  V30 1 1 1 2
M  V30 2 1 2 3
M  V30 3 1 3 4
M  V30 4 2 4 5
M  V30 5 1 4 6
M  V30 6 2 6 7
M  V30 7 1 7 8
M  V30 8 1 8 9
M  V30 9 2 9 10
M  V30 10 1 9 11
M  V30 11 2 11 12
M  V30 12 1 12 13
M  V30 13 2 13 14
M  V30 14 1 14 15
M  V30 15 1 7 16
M  V30 16 1 16 17
M  V30 17 1 17 18
M  V30 18 2 18 19
M  V30 19 1 18 20
M  V30 20 1 20 21
M  V30 21 1 21 22
M  V30 22 1 22 23
M  V30 23 1 23 24
M  V30 24 2 17 25
M  V30 25 1 25 26
M  V30 26 1 25 6
M  V30 27 1 15 11
M  V30 28 1 24 20
M  V30 29 1 1 27
M  V30 30 1 1 28
M  V30 31 1 1 29
M  V30 32 1 2 30
M  V30 33 1 2 31
M  V30 34 1 8 32
M  V30 35 1 12 33
M  V30 36 1 13 34
M  V30 37 1 14 35
M  V30 38 1 21 36
M  V30 39 1 21 37
M  V30 40 1 22 38
M  V30 41 1 22 39
M  V30 42 1 23 40
M  V30 43 1 23 41
M  V30 44 1 24 42
M  V30 45 1 24 43
M  V30 46 1 26 44
M  V30 47 1 26 45
M  V30 48 1 26 46
M  V30 END BOND
M  V30 END CTAB
M  END
>  <Dataset>  (820) 
ChEMBL_Kinases

>  <Ligand_Instance>  (820) 
nan

>  <PDB_ID>  (820) 
nan

>  <Standardized_SMILES>  (820) 
CCOC(=O)c1c(NC(=O)c2ccco2)sc(C(=O)N2CCCC2)c1C

>  <Name>  (820) 
nan

>  <Pocket>  (820) 
nan

>  <ATP_Site>  (820) 
nan

>  <Peripheral>  (820) 
nan

>  <Num_H_Atoms_ProtBoundConf>  (820) 
nan

>  <Num_Resolved_Atoms>  (820) 
nan

>  <Num_Not_Resolved_Atoms>  (820) 
nan

$$$$
CHEMBL1596752
     RDKit          3D

  0  0  0  0  0  0  0  0  0  0999 V3000
M  V30 BEGIN CTAB
M  V30 COUNTS 41 42 0 0 0
M  V30 BEGIN ATOM
M  V30 1 C -1.933319 -1.772314 5.045853 0
M  V30 2 N -0.933648 -2.062409 4.043394 0
M  V30 3 C -0.974692 -1.635234 2.690716 0
M  V30 4 N -0.454727 -0.453987 2.317654 0
M  V30 5 C -0.486605 -0.050587 1.028850 0
M  V30 6 N 0.080042 1.217544 0.754678 0
M  V30 7 C 1.369995 1.775260 0.558960 0
M  V30 8 C 1.413558 3.096970 0.174871 0
M  V30 9 C 2.659933 3.658505 0.000789 0
M  V30 10 C 3.793698 2.872122 0.218770 0
M  V30 11 C 5.091608 3.504570 0.029889 0
M  V30 12 C 6.366340 2.771326 0.241354 0
M  V30 13 O 5.125978 4.732521 -0.330210 0
M  V30 14 C 3.761047 1.551424 0.601620 0
M  V30 15 C 2.503378 1.007539 0.770756 0
M  V30 16 N -1.045037 -0.841464 0.113520 0
M  V30 17 C -1.574909 -2.035238 0.468401 0
M  V30 18 O -2.099986 -2.689960 -0.632722 0
M  V30 19 C -2.697251 -3.942009 -0.481923 0
M  V30 20 C -4.122098 -3.831926 -1.017706 0
M  V30 21 F -4.873294 -2.907802 -0.356149 0
M  V30 22 F -4.708986 -5.065306 -0.870612 0
M  V30 23 F -3.984669 -3.539801 -2.364519 0
M  V30 24 C -2.027948 -5.014700 -1.300532 0
M  V30 25 F -2.727094 -6.192021 -1.048572 0
M  V30 26 F -2.125386 -4.776916 -2.659391 0
M  V30 27 F -0.721903 -5.239881 -0.887679 0
M  V30 28 N -1.536353 -2.426382 1.759304 0
M  V30 29 H -2.251283 -0.698997 4.888591 0
M  V30 30 H -1.530869 -1.828748 6.070235 0
M  V30 31 H -2.871624 -2.349605 4.928959 0
M  V30 32 H -0.047609 -2.612806 4.136054 0
M  V30 33 H -0.792468 1.758897 0.719886 0
M  V30 34 H 0.567096 3.733111 -0.003711 0
M  V30 35 H 2.748201 4.685453 -0.300216 0
M  V30 36 H 6.471473 2.437407 1.303925 0
M  V30 37 H 6.476271 1.885645 -0.417111 0
M  V30 38 H 7.218491 3.451471 -0.016637 0
M  V30 39 H 4.685854 1.029318 0.744258 0
M  V30 40 H 2.418201 -0.013001 1.066270 0
M  V30 41 H -2.676567 -4.284040 0.565217 0
M  V30 END ATOM
M  V30 BEGIN BOND
M  V30 1 1 1 2
M  V30 2 1 2 3
M  V30 3 2 3 4
M  V30 4 1 4 5
M  V30 5 1 5 6
M  V30 6 1 6 7
M  V30 7 2 7 8
M  V30 8 1 8 9
M  V30 9 2 9 10
M  V30 10 1 10 11
M  V30 11 1 11 12
M  V30 12 2 11 13
M  V30 13 1 10 14
M  V30 14 2 14 15
M  V30 15 2 5 16
M  V30 16 1 16 17
M  V30 17 1 17 18
M  V30 18 1 18 19
M  V30 19 1 19 20
M  V30 20 1 20 21
M  V30 21 1 20 22
M  V30 22 1 20 23
M  V30 23 1 19 24
M  V30 24 1 24 25
M  V30 25 1 24 26
M  V30 26 1 24 27
M  V30 27 2 17 28
M  V30 28 1 28 3
M  V30 29 1 15 7
M  V30 30 1 1 29
M  V30 31 1 1 30
M  V30 32 1 1 31
M  V30 33 1 2 32
M  V30 34 1 6 33
M  V30 35 1 8 34
M  V30 36 1 9 35
M  V30 37 1 12 36
M  V30 38 1 12 37
M  V30 39 1 12 38
M  V30 40 1 14 39
M  V30 41 1 15 40
M  V30 42 1 19 41
M  V30 END BOND
M  V30 END CTAB
M  END
>  <Dataset>  (821) 
ChEMBL_Kinases

>  <Ligand_Instance>  (821) 
nan

>  <PDB_ID>  (821) 
nan

>  <Standardized_SMILES>  (821) 
CNc1nc(Nc2ccc(C(C)=O)cc2)nc(OC(C(F)(F)F)C(F)(F)F)n1

>  <Name>  (821) 
nan

>  <Pocket>  (821) 
nan

>  <ATP_Site>  (821) 
nan

>  <Peripheral>  (821) 
nan

>  <Num_H_Atoms_ProtBoundConf>  (821) 
nan

>  <Num_Resolved_Atoms>  (821) 
nan

>  <Num_Not_Resolved_Atoms>  (821) 
nan

$$$$
CHEMBL1596737
     RDKit          3D

  0  0  0  0  0  0  0  0  0  0999 V3000
M  V30 BEGIN CTAB
M  V30 COUNTS 38 40 0 0 0
M  V30 BEGIN ATOM
M  V30 1 C -0.463090 -3.096587 4.013636 0
M  V30 2 C -0.475916 -2.769858 2.554567 0
M  V30 3 C 0.653083 -2.883009 1.773929 0
M  V30 4 C 0.218137 -2.483728 0.532569 0
M  V30 5 C 1.120730 -2.436922 -0.602598 0
M  V30 6 O 2.343074 -2.784235 -0.460940 0
M  V30 7 C 1.227809 -2.108661 -2.038421 0
M  V30 8 S 2.695922 -1.032900 -2.294000 0
M  V30 9 C 2.444954 0.511251 -1.416154 0
M  V30 10 N 3.174514 1.591115 -1.130414 0
M  V30 11 C 2.502442 2.472109 -0.378975 0
M  V30 12 C 2.914670 3.683133 0.118452 0
M  V30 13 C 1.959110 4.339146 0.874324 0
M  V30 14 C 0.693126 3.903379 1.154948 0
M  V30 15 C 0.314773 2.660149 0.625694 0
M  V30 16 C 1.211489 1.946074 -0.136076 0
M  V30 17 N 1.284950 0.785246 -0.795549 0
M  V30 18 C -1.122666 -2.164041 0.650431 0
M  V30 19 C -2.031257 -1.683167 -0.416747 0
M  V30 20 N -1.560159 -2.340265 1.905667 0
M  V30 21 C -2.874217 -2.113042 2.474642 0
M  V30 22 H -1.288732 -3.804678 4.243828 0
M  V30 23 H -0.716526 -2.155912 4.552774 0
M  V30 24 H 0.493520 -3.534161 4.336758 0
M  V30 25 H 1.638712 -3.226252 2.120623 0
M  V30 26 H 0.347648 -1.656693 -2.498939 0
M  V30 27 H 1.434978 -3.046128 -2.629807 0
M  V30 28 H 3.899092 4.067045 -0.073468 0
M  V30 29 H 2.237240 5.317057 1.304057 0
M  V30 30 H 0.003742 4.476483 1.752525 0
M  V30 31 H -0.652825 2.225426 0.781065 0
M  V30 32 H 0.393643 0.207757 -0.752176 0
M  V30 33 H -2.779122 -2.460085 -0.690806 0
M  V30 34 H -2.641987 -0.845458 0.008808 0
M  V30 35 H -1.569193 -1.308888 -1.311844 0
M  V30 36 H -3.292245 -3.037352 2.916325 0
M  V30 37 H -3.532060 -1.655977 1.719823 0
M  V30 38 H -2.732643 -1.378505 3.293647 0
M  V30 END ATOM
M  V30 BEGIN BOND
M  V30 1 1 1 2
M  V30 2 2 2 3
M  V30 3 1 3 4
M  V30 4 1 4 5
M  V30 5 2 5 6
M  V30 6 1 5 7
M  V30 7 1 7 8
M  V30 8 1 8 9
M  V30 9 2 9 10
M  V30 10 1 10 11
M  V30 11 2 11 12
M  V30 12 1 12 13
M  V30 13 2 13 14
M  V30 14 1 14 15
M  V30 15 2 15 16
M  V30 16 1 16 17
M  V30 17 2 4 18
M  V30 18 1 18 19
M  V30 19 1 18 20
M  V30 20 1 20 21
M  V30 21 1 20 2
M  V30 22 1 17 9
M  V30 23 1 16 11
M  V30 24 1 1 22
M  V30 25 1 1 23
M  V30 26 1 1 24
M  V30 27 1 3 25
M  V30 28 1 7 26
M  V30 29 1 7 27
M  V30 30 1 12 28
M  V30 31 1 13 29
M  V30 32 1 14 30
M  V30 33 1 15 31
M  V30 34 1 17 32
M  V30 35 1 19 33
M  V30 36 1 19 34
M  V30 37 1 19 35
M  V30 38 1 21 36
M  V30 39 1 21 37
M  V30 40 1 21 38
M  V30 END BOND
M  V30 END CTAB
M  END
>  <Dataset>  (822) 
ChEMBL_Kinases

>  <Ligand_Instance>  (822) 
nan

>  <PDB_ID>  (822) 
nan

>  <Standardized_SMILES>  (822) 
Cc1cc(C(=O)CSc2nc3ccccc3[nH]2)c(C)n1C

>  <Name>  (822) 
nan

>  <Pocket>  (822) 
nan

>  <ATP_Site>  (822) 
nan

>  <Peripheral>  (822) 
nan

>  <Num_H_Atoms_ProtBoundConf>  (822) 
nan

>  <Num_Resolved_Atoms>  (822) 
nan

>  <Num_Not_Resolved_Atoms>  (822) 
nan

$$$$
CHEMBL1596698
     RDKit          3D

  0  0  0  0  0  0  0  0  0  0999 V3000
M  V30 BEGIN CTAB
M  V30 COUNTS 37 39 0 0 0
M  V30 BEGIN ATOM
M  V30 1 O -1.630802 -3.112772 1.146024 0
M  V30 2 C -2.119132 -1.960384 1.072075 0
M  V30 3 N -2.034004 -1.488504 -0.264515 0
M  V30 4 N -1.441109 -2.452772 -1.046796 0
M  V30 5 C -0.199243 -2.344555 -1.326210 0
M  V30 6 C 0.825082 -1.377738 -0.996180 0
M  V30 7 C 0.692143 -0.246303 -0.236199 0
M  V30 8 C 1.696535 0.649670 0.054134 0
M  V30 9 C 2.941857 0.377489 -0.469280 0
M  V30 10 C 3.101953 -0.755280 -1.237650 0
M  V30 11 C 2.073137 -1.621594 -1.502225 0
M  V30 12 C 4.513909 -0.843050 -1.687622 0
M  V30 13 C 4.959884 0.599407 -1.637975 0
M  V30 14 C 4.240453 1.094471 -0.377947 0
M  V30 15 C -2.662253 -1.306117 2.248428 0
M  V30 16 C -2.613251 -2.009548 3.433214 0
M  V30 17 C -3.100250 -1.483399 4.608559 0
M  V30 18 C -3.664093 -0.229063 4.676995 0
M  V30 19 C -3.717896 0.481559 3.499799 0
M  V30 20 C -3.226357 -0.060258 2.335063 0
M  V30 21 O -3.312394 0.699852 1.206405 0
M  V30 22 H -2.418607 -0.541018 -0.458418 0
M  V30 23 H 0.022574 -3.214087 -1.943822 0
M  V30 24 H -0.253589 -0.002454 0.185037 0
M  V30 25 H 1.525416 1.525226 0.661414 0
M  V30 26 H 2.268305 -2.509144 -2.123909 0
M  V30 27 H 4.621492 -1.292063 -2.696954 0
M  V30 28 H 5.125355 -1.395305 -0.921867 0
M  V30 29 H 6.049655 0.722760 -1.517382 0
M  V30 30 H 4.541488 1.144271 -2.511465 0
M  V30 31 H 4.798425 0.768187 0.524026 0
M  V30 32 H 4.125351 2.198236 -0.413666 0
M  V30 33 H -2.179439 -3.016844 3.465122 0
M  V30 34 H -3.032765 -2.084787 5.504328 0
M  V30 35 H -4.024735 0.119639 5.629362 0
M  V30 36 H -4.152550 1.471841 3.505771 0
M  V30 37 H -2.742899 1.538009 1.057297 0
M  V30 END ATOM
M  V30 BEGIN BOND
M  V30 1 2 1 2
M  V30 2 1 2 3
M  V30 3 1 3 4
M  V30 4 2 4 5
M  V30 5 1 5 6
M  V30 6 2 6 7
M  V30 7 1 7 8
M  V30 8 2 8 9
M  V30 9 1 9 10
M  V30 10 2 10 11
M  V30 11 1 10 12
M  V30 12 1 12 13
M  V30 13 1 13 14
M  V30 14 1 2 15
M  V30 15 2 15 16
M  V30 16 1 16 17
M  V30 17 2 17 18
M  V30 18 1 18 19
M  V30 19 2 19 20
M  V30 20 1 20 21
M  V30 21 1 11 6
M  V30 22 1 20 15
M  V30 23 1 14 9
M  V30 24 1 3 22
M  V30 25 1 5 23
M  V30 26 1 7 24
M  V30 27 1 8 25
M  V30 28 1 11 26
M  V30 29 1 12 27
M  V30 30 1 12 28
M  V30 31 1 13 29
M  V30 32 1 13 30
M  V30 33 1 14 31
M  V30 34 1 14 32
M  V30 35 1 16 33
M  V30 36 1 17 34
M  V30 37 1 18 35
M  V30 38 1 19 36
M  V30 39 1 21 37
M  V30 END BOND
M  V30 END CTAB
M  END
>  <Dataset>  (823) 
ChEMBL_Kinases

>  <Ligand_Instance>  (823) 
nan

>  <PDB_ID>  (823) 
nan

>  <Standardized_SMILES>  (823) 
O=C(N/N=C\c1ccc2c(c1)CCC2)c1ccccc1O

>  <Name>  (823) 
nan

>  <Pocket>  (823) 
nan

>  <ATP_Site>  (823) 
nan

>  <Peripheral>  (823) 
nan

>  <Num_H_Atoms_ProtBoundConf>  (823) 
nan

>  <Num_Resolved_Atoms>  (823) 
nan

>  <Num_Not_Resolved_Atoms>  (823) 
nan

$$$$
CHEMBL1596602
     RDKit          3D

  0  0  0  0  0  0  0  0  0  0999 V3000
M  V30 BEGIN CTAB
M  V30 COUNTS 49 51 0 0 0
M  V30 BEGIN ATOM
M  V30 1 C 3.497405 -4.657557 4.350488 0
M  V30 2 C 3.420709 -3.520260 3.613827 0
M  V30 3 C 2.524215 -2.568608 4.277156 0
M  V30 4 C 4.218335 -3.512362 2.382779 0
M  V30 5 O 3.554868 -3.348514 1.190820 0
M  V30 6 C 2.803236 -2.359308 0.665291 0
M  V30 7 C 2.394747 -1.095806 1.082618 0
M  V30 8 C 1.596773 -0.288850 0.302445 0
M  V30 9 C 1.170534 -0.731340 -0.954419 0
M  V30 10 C 0.316921 0.301453 -1.582644 0
M  V30 11 N 0.556290 0.730522 -2.854980 0
M  V30 12 C -0.222140 1.674870 -3.437790 0
M  V30 13 N 0.178126 1.992868 -4.762637 0
M  V30 14 N -1.257511 2.196297 -2.730368 0
M  V30 15 C -1.515380 1.790962 -1.473816 0
M  V30 16 C -0.750438 0.834408 -0.843992 0
M  V30 17 O -0.904169 0.330284 0.432409 0
M  V30 18 C -1.919747 0.737395 1.271230 0
M  V30 19 C -1.646085 1.358767 2.472388 0
M  V30 20 C -2.605633 1.795563 3.369437 0
M  V30 21 C -3.944372 1.603592 3.055171 0
M  V30 22 C -4.243258 0.980335 1.851922 0
M  V30 23 C -3.264062 0.546123 0.959708 0
M  V30 24 O -3.658092 -0.066997 -0.215105 0
M  V30 25 C -5.039329 -0.221244 -0.444555 0
M  V30 26 C 1.547536 -1.976133 -1.417768 0
M  V30 27 O 1.048136 -2.257739 -2.664689 0
M  V30 28 C 2.346409 -2.745922 -0.599082 0
M  V30 29 H 2.868763 -4.573155 5.252955 0
M  V30 30 H 3.613161 -5.597267 4.878939 0
M  V30 31 H 1.595030 -2.518813 3.649473 0
M  V30 32 H 2.234149 -2.818803 5.295890 0
M  V30 33 H 2.972976 -1.547272 4.329855 0
M  V30 34 H 4.783326 -4.490987 2.313448 0
M  V30 35 H 5.041016 -2.743218 2.535126 0
M  V30 36 H 2.784693 -0.856966 2.045456 0
M  V30 37 H 1.383569 0.648220 0.785486 0
M  V30 38 H -0.098501 1.576472 -5.688270 0
M  V30 39 H 0.872480 2.779767 -4.871639 0
M  V30 40 H -2.323569 2.202136 -0.916734 0
M  V30 41 H -0.621026 1.547155 2.791468 0
M  V30 42 H -2.323127 2.283275 4.310058 0
M  V30 43 H -4.704279 1.936230 3.740661 0
M  V30 44 H -5.316448 0.852391 1.649875 0
M  V30 45 H -5.559957 -0.749258 0.395502 0
M  V30 46 H -5.541652 0.751655 -0.607267 0
M  V30 47 H -5.234398 -0.857148 -1.351164 0
M  V30 48 H 1.418117 -1.759363 -3.461662 0
M  V30 49 H 2.544552 -3.695299 -1.127700 0
M  V30 END ATOM
M  V30 BEGIN BOND
M  V30 1 2 1 2
M  V30 2 1 2 3
M  V30 3 1 2 4
M  V30 4 1 4 5
M  V30 5 1 5 6
M  V30 6 2 6 7
M  V30 7 1 7 8
M  V30 8 2 8 9
M  V30 9 1 9 10
M  V30 10 2 10 11
M  V30 11 1 11 12
M  V30 12 1 12 13
M  V30 13 2 12 14
M  V30 14 1 14 15
M  V30 15 2 15 16
M  V30 16 1 16 17
M  V30 17 1 17 18
M  V30 18 2 18 19
M  V30 19 1 19 20
M  V30 20 2 20 21
M  V30 21 1 21 22
M  V30 22 2 22 23
M  V30 23 1 23 24
M  V30 24 1 24 25
M  V30 25 1 9 26
M  V30 26 1 26 27
M  V30 27 2 26 28
M  V30 28 1 28 6
M  V30 29 1 16 10
M  V30 30 1 23 18
M  V30 31 1 1 29
M  V30 32 1 1 30
M  V30 33 1 3 31
M  V30 34 1 3 32
M  V30 35 1 3 33
M  V30 36 1 4 34
M  V30 37 1 4 35
M  V30 38 1 7 36
M  V30 39 1 8 37
M  V30 40 1 13 38
M  V30 41 1 13 39
M  V30 42 1 15 40
M  V30 43 1 19 41
M  V30 44 1 20 42
M  V30 45 1 21 43
M  V30 46 1 22 44
M  V30 47 1 25 45
M  V30 48 1 25 46
M  V30 49 1 25 47
M  V30 50 1 27 48
M  V30 51 1 28 49
M  V30 END BOND
M  V30 END CTAB
M  END
>  <Dataset>  (824) 
ChEMBL_Kinases

>  <Ligand_Instance>  (824) 
nan

>  <PDB_ID>  (824) 
nan

>  <Standardized_SMILES>  (824) 
C=C(C)COc1ccc(-c2nc(N)ncc2Oc2ccccc2OC)c(O)c1

>  <Name>  (824) 
nan

>  <Pocket>  (824) 
nan

>  <ATP_Site>  (824) 
nan

>  <Peripheral>  (824) 
nan

>  <Num_H_Atoms_ProtBoundConf>  (824) 
nan

>  <Num_Resolved_Atoms>  (824) 
nan

>  <Num_Not_Resolved_Atoms>  (824) 
nan

$$$$
CHEMBL1596499
     RDKit          3D

  0  0  0  0  0  0  0  0  0  0999 V3000
M  V30 BEGIN CTAB
M  V30 COUNTS 42 45 0 0 0
M  V30 BEGIN ATOM
M  V30 1 C 0.115491 -4.998984 0.221170 0
M  V30 2 N 1.155337 -4.664633 1.139023 0
M  V30 3 C 0.746761 -3.857512 2.258002 0
M  V30 4 C 0.435889 -2.423346 1.895167 0
M  V30 5 N 1.029125 -2.102434 0.588183 0
M  V30 6 C 0.565473 -1.423043 -0.574776 0
M  V30 7 N 0.543323 -2.157123 -1.710924 0
M  V30 8 C 0.120587 -1.625683 -2.891622 0
M  V30 9 N -0.285965 -0.340333 -2.934669 0
M  V30 10 C -0.288001 0.438223 -1.846791 0
M  V30 11 C -0.696627 1.762751 -1.843745 0
M  V30 12 C -0.671515 2.516426 -0.663940 0
M  V30 13 C -0.230922 1.934594 0.527923 0
M  V30 14 C -0.198111 2.713086 1.777429 0
M  V30 15 C 0.058337 4.066616 1.636800 0
M  V30 16 C 0.100049 4.843132 2.779881 0
M  V30 17 C -0.124399 4.174746 3.981350 0
M  V30 18 N -0.372774 2.856352 4.100481 0
M  V30 19 C -0.417118 2.075295 2.982007 0
M  V30 20 C 0.172543 0.610655 0.501739 0
M  V30 21 C 0.140797 -0.113331 -0.666615 0
M  V30 22 C 2.392092 -2.629680 0.550984 0
M  V30 23 C 2.360152 -4.155690 0.572589 0
M  V30 24 H -0.284149 -6.001845 0.556991 0
M  V30 25 H -0.743083 -4.316061 0.301069 0
M  V30 26 H 0.498022 -5.124739 -0.814620 0
M  V30 27 H -0.120581 -4.290918 2.797624 0
M  V30 28 H 1.597388 -3.867459 2.968648 0
M  V30 29 H 0.845179 -1.791358 2.707871 0
M  V30 30 H -0.656650 -2.239710 1.830867 0
M  V30 31 H 0.091939 -2.190330 -3.816889 0
M  V30 32 H -1.036382 2.210457 -2.761676 0
M  V30 33 H -0.990863 3.544730 -0.679692 0
M  V30 34 H 0.228305 4.559430 0.707960 0
M  V30 35 H 0.290037 5.907716 2.804009 0
M  V30 36 H -0.094074 4.776826 4.888854 0
M  V30 37 H -0.609525 1.004279 2.961229 0
M  V30 38 H 0.502009 0.192100 1.416653 0
M  V30 39 H 3.024285 -2.201397 1.342861 0
M  V30 40 H 2.904522 -2.377988 -0.401743 0
M  V30 41 H 3.199444 -4.480179 1.249038 0
M  V30 42 H 2.568545 -4.606182 -0.406988 0
M  V30 END ATOM
M  V30 BEGIN BOND
M  V30 1 1 1 2
M  V30 2 1 2 3
M  V30 3 1 3 4
M  V30 4 1 4 5
M  V30 5 1 5 6
M  V30 6 2 6 7
M  V30 7 1 7 8
M  V30 8 2 8 9
M  V30 9 1 9 10
M  V30 10 2 10 11
M  V30 11 1 11 12
M  V30 12 2 12 13
M  V30 13 1 13 14
M  V30 14 2 14 15
M  V30 15 1 15 16
M  V30 16 2 16 17
M  V30 17 1 17 18
M  V30 18 2 18 19
M  V30 19 1 13 20
M  V30 20 2 20 21
M  V30 21 1 5 22
M  V30 22 1 22 23
M  V30 23 1 23 2
M  V30 24 1 21 6
M  V30 25 1 21 10
M  V30 26 1 19 14
M  V30 27 1 1 24
M  V30 28 1 1 25
M  V30 29 1 1 26
M  V30 30 1 3 27
M  V30 31 1 3 28
M  V30 32 1 4 29
M  V30 33 1 4 30
M  V30 34 1 8 31
M  V30 35 1 11 32
M  V30 36 1 12 33
M  V30 37 1 15 34
M  V30 38 1 16 35
M  V30 39 1 17 36
M  V30 40 1 19 37
M  V30 41 1 20 38
M  V30 42 1 22 39
M  V30 43 1 22 40
M  V30 44 1 23 41
M  V30 45 1 23 42
M  V30 END BOND
M  V30 END CTAB
M  END
>  <Dataset>  (825) 
ChEMBL_Kinases

>  <Ligand_Instance>  (825) 
nan

>  <PDB_ID>  (825) 
nan

>  <Standardized_SMILES>  (825) 
CN1CCN(c2ncnc3ccc(-c4cccnc4)cc23)CC1

>  <Name>  (825) 
nan

>  <Pocket>  (825) 
nan

>  <ATP_Site>  (825) 
nan

>  <Peripheral>  (825) 
nan

>  <Num_H_Atoms_ProtBoundConf>  (825) 
nan

>  <Num_Resolved_Atoms>  (825) 
nan

>  <Num_Not_Resolved_Atoms>  (825) 
nan

$$$$
CHEMBL1596335
     RDKit          3D

  0  0  0  0  0  0  0  0  0  0999 V3000
M  V30 BEGIN CTAB
M  V30 COUNTS 55 60 0 0 0
M  V30 BEGIN ATOM
M  V30 1 C 0.807045 3.056820 -2.852130 0
M  V30 2 C 0.429998 2.980129 -1.377825 0
M  V30 3 C -0.823667 3.822378 -1.213678 0
M  V30 4 O -0.828801 5.034554 -1.621308 0
M  V30 5 O -1.834094 3.045743 -0.589732 0
M  V30 6 C -1.055550 2.062034 0.070203 0
M  V30 7 C -1.652042 0.745016 0.336315 0
M  V30 8 O -2.778706 0.662197 -0.524706 0
M  V30 9 C -0.688043 -0.274528 -0.103587 0
M  V30 10 C -1.235904 -1.168648 -1.175205 0
M  V30 11 O -0.729020 -0.772836 -2.412363 0
M  V30 12 C 0.530314 -0.275850 -2.198345 0
M  V30 13 O 1.656987 -0.265255 -2.774093 0
M  V30 14 C 0.423258 0.441807 -0.873348 0 CFG=2
M  V30 15 O 1.562970 0.320476 -0.133321 0
M  V30 16 C 1.184757 -0.035546 1.083772 0
M  V30 17 O 1.970597 -0.721999 1.986231 0
M  V30 18 C 1.016150 -1.129057 2.954192 0
M  V30 19 O 1.007149 -1.484321 4.181957 0
M  V30 20 C -0.319147 -1.114967 2.284230 0 CFG=2
M  V30 21 O -1.198367 -2.063832 2.686639 0
M  V30 22 C 0.079932 -1.076213 0.878847 0 CFG=1
M  V30 23 C 0.445677 -2.265515 0.169931 0
M  V30 24 C 0.996824 -3.518891 0.650275 0
M  V30 25 C 1.125272 -4.336432 -0.665971 0
M  V30 26 C 2.472276 -3.478405 1.082684 0
M  V30 27 C 0.293659 -4.418219 1.570474 0
M  V30 28 C -0.724625 -2.535705 -0.766230 0
M  V30 29 O -1.786893 -3.165959 -0.161578 0
M  V30 30 C -0.212532 1.689294 -1.135622 0 CFG=2
M  V30 31 O -1.150953 1.516079 -2.181391 0
M  V30 32 H 0.668435 4.066563 -3.275771 0
M  V30 33 H 1.812748 2.639921 -3.025534 0
M  V30 34 H 0.116237 2.402689 -3.425629 0
M  V30 35 H 1.219924 3.299358 -0.699831 0
M  V30 36 H -0.551898 2.601510 0.856280 0
M  V30 37 H -2.084568 0.679926 1.327339 0
M  V30 38 H -3.419751 1.318062 -0.181479 0
M  V30 39 H -2.356678 -1.110714 -1.182560 0
M  V30 40 H 0.782701 0.811017 1.700226 0
M  V30 41 H -0.726857 -0.131743 2.598100 0
M  V30 42 H -1.437290 -1.911083 3.622945 0
M  V30 43 H 1.267648 -1.938418 -0.550063 0
M  V30 44 H 1.569385 -3.737156 -1.464763 0
M  V30 45 H 1.809722 -5.195071 -0.468497 0
M  V30 46 H 0.150067 -4.804712 -0.903928 0
M  V30 47 H 3.060797 -2.751373 0.496662 0
M  V30 48 H 2.592272 -3.412833 2.175928 0
M  V30 49 H 2.985676 -4.461488 0.847015 0
M  V30 50 H 0.495646 -4.230469 2.664698 0
M  V30 51 H 0.763158 -5.436259 1.460169 0
M  V30 52 H -0.764663 -4.606728 1.368954 0
M  V30 53 H -0.378332 -3.012952 -1.708732 0
M  V30 54 H -2.219751 -3.864715 -0.696819 0
M  V30 55 H -1.644347 2.345248 -2.373177 0
M  V30 END ATOM
M  V30 BEGIN BOND
M  V30 1 1 1 2
M  V30 2 1 2 3
M  V30 3 2 3 4
M  V30 4 1 3 5
M  V30 5 1 5 6
M  V30 6 1 6 7
M  V30 7 1 7 8
M  V30 8 1 7 9
M  V30 9 1 9 10
M  V30 10 1 10 11
M  V30 11 1 11 12
M  V30 12 2 12 13
M  V30 13 1 12 14
M  V30 14 1 14 15 CFG=1
M  V30 15 1 15 16
M  V30 16 1 16 17
M  V30 17 1 17 18
M  V30 18 2 18 19
M  V30 19 1 18 20
M  V30 20 1 20 21
M  V30 21 1 20 22
M  V30 22 1 22 23 CFG=3
M  V30 23 1 23 24
M  V30 24 1 24 25
M  V30 25 1 24 26
M  V30 26 1 24 27
M  V30 27 1 23 28
M  V30 28 1 28 29
M  V30 29 1 14 30
M  V30 30 1 30 31 CFG=3
M  V30 31 1 30 2
M  V30 32 1 30 6
M  V30 33 1 14 9
M  V30 34 1 22 16
M  V30 35 1 22 9
M  V30 36 1 28 10
M  V30 37 1 1 32
M  V30 38 1 1 33
M  V30 39 1 1 34
M  V30 40 1 2 35
M  V30 41 1 6 36
M  V30 42 1 7 37
M  V30 43 1 8 38
M  V30 44 1 10 39
M  V30 45 1 16 40
M  V30 46 1 20 41 CFG=1
M  V30 47 1 21 42
M  V30 48 1 23 43
M  V30 49 1 25 44
M  V30 50 1 25 45
M  V30 51 1 25 46
M  V30 52 1 26 47
M  V30 53 1 26 48
M  V30 54 1 26 49
M  V30 55 1 27 50
M  V30 56 1 27 51
M  V30 57 1 27 52
M  V30 58 1 28 53
M  V30 59 1 29 54
M  V30 60 1 31 55
M  V30 END BOND
M  V30 END CTAB
M  END
>  <Dataset>  (826) 
ChEMBL_Kinases

>  <Ligand_Instance>  (826) 
nan

>  <PDB_ID>  (826) 
nan

>  <Standardized_SMILES>  (826) 
CC1C(=O)OC2C(O)C34C5OC(=O)[C@@]3(OC3OC(=O)[C@H](O)[C@]34C(C(C)(C)C)C5O)[C@]12O

>  <Name>  (826) 
nan

>  <Pocket>  (826) 
nan

>  <ATP_Site>  (826) 
nan

>  <Peripheral>  (826) 
nan

>  <Num_H_Atoms_ProtBoundConf>  (826) 
nan

>  <Num_Resolved_Atoms>  (826) 
nan

>  <Num_Not_Resolved_Atoms>  (826) 
nan

$$$$
CHEMBL1595931
     RDKit          3D

  0  0  0  0  0  0  0  0  0  0999 V3000
M  V30 BEGIN CTAB
M  V30 COUNTS 29 29 0 0 0
M  V30 BEGIN ATOM
M  V30 1 C -1.516240 -3.049555 2.810560 0
M  V30 2 S 0.145062 -2.638958 3.239937 0
M  V30 3 O 0.245149 -2.093887 4.632291 0
M  V30 4 O 0.967375 -3.893188 3.154626 0
M  V30 5 N 0.766105 -1.521125 2.107295 0
M  V30 6 C 0.071971 -0.287814 2.050000 0
M  V30 7 C -0.588780 0.044909 0.747584 0
M  V30 8 N 0.408746 -0.154400 -0.285764 0
M  V30 9 C 0.993502 0.897853 -1.042436 0
M  V30 10 N 2.193360 0.811608 -1.511234 0
M  V30 11 N 0.233894 2.069217 -1.284691 0
M  V30 12 N 0.877875 3.302516 -1.456843 0 CHG=1 VAL=4
M  V30 13 O 0.263078 4.287302 -1.920536 0
M  V30 14 O 2.202594 3.480118 -1.125671 0 CHG=-1 VAL=1
M  V30 15 C 0.658409 -1.582371 -0.366450 0
M  V30 16 C 1.251548 -2.084910 0.913121 0
M  V30 17 H -2.207400 -2.374121 3.368952 0
M  V30 18 H -1.648058 -2.908135 1.719820 0
M  V30 19 H -1.754941 -4.088145 3.059817 0
M  V30 20 H -0.672084 -0.245682 2.874557 0
M  V30 21 H 0.797592 0.545533 2.260034 0
M  V30 22 H -0.881358 1.116835 0.782130 0
M  V30 23 H -1.510795 -0.522453 0.536053 0
M  V30 24 H 2.744352 -0.068005 -1.321059 0
M  V30 25 H -0.811178 2.048615 -1.341237 0
M  V30 26 H -0.302463 -2.138014 -0.559594 0
M  V30 27 H 1.328352 -1.837120 -1.205240 0
M  V30 28 H 2.371728 -1.978319 0.868778 0
M  V30 29 H 1.095505 -3.190703 0.943893 0
M  V30 END ATOM
M  V30 BEGIN BOND
M  V30 1 1 1 2
M  V30 2 2 2 3
M  V30 3 2 2 4
M  V30 4 1 2 5
M  V30 5 1 5 6
M  V30 6 1 6 7
M  V30 7 1 7 8
M  V30 8 1 8 9
M  V30 9 2 9 10 CFG=2
M  V30 10 1 9 11
M  V30 11 1 11 12
M  V30 12 2 12 13
M  V30 13 1 12 14
M  V30 14 1 8 15
M  V30 15 1 15 16
M  V30 16 1 16 5
M  V30 17 1 1 17
M  V30 18 1 1 18
M  V30 19 1 1 19
M  V30 20 1 6 20
M  V30 21 1 6 21
M  V30 22 1 7 22
M  V30 23 1 7 23
M  V30 24 1 10 24
M  V30 25 1 11 25
M  V30 26 1 15 26
M  V30 27 1 15 27
M  V30 28 1 16 28
M  V30 29 1 16 29
M  V30 END BOND
M  V30 END CTAB
M  END
>  <Dataset>  (827) 
ChEMBL_Kinases

>  <Ligand_Instance>  (827) 
nan

>  <PDB_ID>  (827) 
nan

>  <Standardized_SMILES>  (827) 
CS(=O)(=O)N1CCN(C(=N)N[N+](=O)[O-])CC1

>  <Name>  (827) 
nan

>  <Pocket>  (827) 
nan

>  <ATP_Site>  (827) 
nan

>  <Peripheral>  (827) 
nan

>  <Num_H_Atoms_ProtBoundConf>  (827) 
nan

>  <Num_Resolved_Atoms>  (827) 
nan

>  <Num_Not_Resolved_Atoms>  (827) 
nan

$$$$
CHEMBL1595886
     RDKit          3D

  0  0  0  0  0  0  0  0  0  0999 V3000
M  V30 BEGIN CTAB
M  V30 COUNTS 41 44 0 0 0
M  V30 BEGIN ATOM
M  V30 1 O 3.239973 -2.124023 1.543421 0
M  V30 2 C 2.001470 -1.976319 1.405212 0
M  V30 3 N 1.261972 -2.701676 0.432039 0
M  V30 4 C 1.832514 -3.655216 -0.474472 0
M  V30 5 C 2.890122 -3.025995 -1.369598 0
M  V30 6 C 2.325657 -1.914847 -2.201252 0
M  V30 7 N 3.358503 -1.327224 -3.051270 0
M  V30 8 C 4.134688 -0.295125 -2.675524 0
M  V30 9 C 4.954065 -0.077401 -3.776751 0
M  V30 10 N 4.684467 -0.939610 -4.772724 0
M  V30 11 C 3.682666 -1.720529 -4.310680 0
M  V30 12 C 1.317914 -1.027982 2.277895 0
M  V30 13 C -0.028843 -0.717228 2.291898 0
M  V30 14 C -0.235862 0.228237 3.276875 0
M  V30 15 C -1.503264 0.851971 3.652760 0
M  V30 16 C -1.501294 1.782931 4.672620 0
M  V30 17 C -2.712873 2.355479 5.005959 0
M  V30 18 C -3.883077 2.019599 4.354614 0
M  V30 19 C -3.846886 1.073051 3.326933 0
M  V30 20 C -2.649182 0.486069 2.974428 0
M  V30 21 O -5.164141 0.928741 2.849716 0
M  V30 22 C -5.886252 2.108743 3.230563 0
M  V30 23 O -5.231319 2.409648 4.455011 0
M  V30 24 O 0.942370 0.457077 3.812815 0
M  V30 25 N 1.857609 -0.264225 3.244805 0
M  V30 26 H 0.217551 -2.502189 0.398151 0
M  V30 27 H 1.065659 -4.050545 -1.136492 0
M  V30 28 H 2.256508 -4.515805 0.074704 0
M  V30 29 H 3.658877 -2.594058 -0.699473 0
M  V30 30 H 3.415039 -3.791051 -1.971237 0
M  V30 31 H 1.929539 -1.125638 -1.539904 0
M  V30 32 H 1.571590 -2.344647 -2.900442 0
M  V30 33 H 4.179963 0.283119 -1.763519 0
M  V30 34 H 5.746082 0.656626 -3.941646 0
M  V30 35 H 3.185295 -2.543857 -4.829739 0
M  V30 36 H -0.789011 -1.141488 1.643273 0
M  V30 37 H -0.637469 2.093594 5.222109 0
M  V30 38 H -2.789497 3.083736 5.784817 0
M  V30 39 H -2.596121 -0.246988 2.184609 0
M  V30 40 H -5.760688 2.909825 2.490349 0
M  V30 41 H -6.941478 1.799169 3.364227 0
M  V30 END ATOM
M  V30 BEGIN BOND
M  V30 1 2 1 2
M  V30 2 1 2 3
M  V30 3 1 3 4
M  V30 4 1 4 5
M  V30 5 1 5 6
M  V30 6 1 6 7
M  V30 7 1 7 8
M  V30 8 2 8 9
M  V30 9 1 9 10
M  V30 10 2 10 11
M  V30 11 1 2 12
M  V30 12 1 12 13
M  V30 13 2 13 14
M  V30 14 1 14 15
M  V30 15 2 15 16
M  V30 16 1 16 17
M  V30 17 2 17 18
M  V30 18 1 18 19
M  V30 19 2 19 20
M  V30 20 1 19 21
M  V30 21 1 21 22
M  V30 22 1 22 23
M  V30 23 1 14 24
M  V30 24 1 24 25
M  V30 25 1 11 7
M  V30 26 2 25 12
M  V30 27 1 20 15
M  V30 28 1 23 18
M  V30 29 1 3 26
M  V30 30 1 4 27
M  V30 31 1 4 28
M  V30 32 1 5 29
M  V30 33 1 5 30
M  V30 34 1 6 31
M  V30 35 1 6 32
M  V30 36 1 8 33
M  V30 37 1 9 34
M  V30 38 1 11 35
M  V30 39 1 13 36
M  V30 40 1 16 37
M  V30 41 1 17 38
M  V30 42 1 20 39
M  V30 43 1 22 40
M  V30 44 1 22 41
M  V30 END BOND
M  V30 END CTAB
M  END
>  <Dataset>  (828) 
ChEMBL_Kinases

>  <Ligand_Instance>  (828) 
nan

>  <PDB_ID>  (828) 
nan

>  <Standardized_SMILES>  (828) 
O=C(NCCCn1ccnc1)c1cc(-c2ccc3c(c2)OCO3)on1

>  <Name>  (828) 
nan

>  <Pocket>  (828) 
nan

>  <ATP_Site>  (828) 
nan

>  <Peripheral>  (828) 
nan

>  <Num_H_Atoms_ProtBoundConf>  (828) 
nan

>  <Num_Resolved_Atoms>  (828) 
nan

>  <Num_Not_Resolved_Atoms>  (828) 
nan

$$$$
CHEMBL1595675
     RDKit          3D

  0  0  0  0  0  0  0  0  0  0999 V3000
M  V30 BEGIN CTAB
M  V30 COUNTS 63 66 0 0 0
M  V30 BEGIN ATOM
M  V30 1 C 2.731816 3.792845 4.346524 0
M  V30 2 C 3.254278 2.408173 3.972517 0
M  V30 3 O 2.642752 1.930186 2.791597 0
M  V30 4 C 3.003804 0.685350 2.316638 0
M  V30 5 C 3.963013 -0.064139 3.012889 0
M  V30 6 C 4.358731 -1.312147 2.577454 0
M  V30 7 C 3.799533 -1.832593 1.433112 0
M  V30 8 C 2.861093 -1.068375 0.776268 0
M  V30 9 C 2.409806 0.188189 1.146024 0
M  V30 10 C 1.435169 1.043207 0.494803 0
M  V30 11 N 0.136312 1.165837 1.073012 0
M  V30 12 C -0.541287 2.180554 0.239635 0
M  V30 13 C -1.491960 1.655079 -0.756668 0
M  V30 14 N -1.475463 0.286033 -1.072944 0
M  V30 15 C -2.445080 -0.074924 -2.022852 0
M  V30 16 C -2.559360 -1.512069 -2.337481 0
M  V30 17 N -1.952172 -2.072481 -3.410382 0
M  V30 18 C -2.170282 -3.395142 -3.481236 0
M  V30 19 C -1.768702 -4.377904 -4.370097 0
M  V30 20 C -2.156890 -5.697597 -4.183337 0
M  V30 21 C -2.947093 -6.067887 -3.116890 0
M  V30 22 C -3.342874 -5.076161 -2.233786 0
M  V30 23 C -2.964602 -3.748831 -2.403987 0
M  V30 24 C -3.179871 -2.556193 -1.727486 0
M  V30 25 C -4.016348 -2.478148 -0.502056 0
M  V30 26 C -0.818965 -0.637849 -0.268513 0
M  V30 27 C -0.677974 0.009307 1.115201 0
M  V30 28 C -0.484811 -1.016666 2.141020 0
M  V30 29 C -0.676562 -0.495743 3.571565 0
M  V30 30 O 0.179279 0.511668 3.910254 0
M  V30 31 H 2.511707 4.289687 3.368310 0
M  V30 32 H 3.531611 4.369658 4.882993 0
M  V30 33 H 1.814348 3.729656 4.958536 0
M  V30 34 H 3.019512 1.770635 4.848063 0
M  V30 35 H 4.364045 2.382813 3.885974 0
M  V30 36 H 4.414413 0.345296 3.929474 0
M  V30 37 H 5.086648 -1.902589 3.090753 0
M  V30 38 H 4.054204 -2.803102 1.024053 0
M  V30 39 H 2.423599 -1.471329 -0.122482 0
M  V30 40 H 1.918117 2.062323 0.404875 0
M  V30 41 H 1.260884 0.768836 -0.588506 0
M  V30 42 H -1.099129 2.882957 0.926691 0
M  V30 43 H 0.227330 2.812090 -0.240134 0
M  V30 44 H -1.282042 2.204273 -1.733890 0
M  V30 45 H -2.546589 2.032474 -0.529425 0
M  V30 46 H -2.227247 0.524245 -2.963868 0
M  V30 47 H -3.489136 0.277553 -1.745860 0
M  V30 48 H -1.367806 -1.580566 -4.134935 0
M  V30 49 H -1.146580 -4.112954 -5.216325 0
M  V30 50 H -1.870801 -6.500590 -4.848701 0
M  V30 51 H -3.252598 -7.104442 -2.969392 0
M  V30 52 H -3.961348 -5.289849 -1.376140 0
M  V30 53 H -5.092227 -2.599187 -0.760334 0
M  V30 54 H -3.737303 -3.323157 0.165370 0
M  V30 55 H -3.905710 -1.497810 0.011456 0
M  V30 56 H 0.175445 -0.978939 -0.636203 0
M  V30 57 H -1.410826 -1.547597 -0.099496 0
M  V30 58 H -1.742019 0.414771 1.286217 0
M  V30 59 H 0.427131 -1.605587 2.142883 0
M  V30 60 H -1.309104 -1.799675 2.062096 0
M  V30 61 H -1.720714 -0.098240 3.697156 0
M  V30 62 H -0.596179 -1.360222 4.279942 0
M  V30 63 H -0.232389 1.404423 3.990341 0
M  V30 END ATOM
M  V30 BEGIN BOND
M  V30 1 1 1 2
M  V30 2 1 2 3
M  V30 3 1 3 4
M  V30 4 2 4 5
M  V30 5 1 5 6
M  V30 6 2 6 7
M  V30 7 1 7 8
M  V30 8 2 8 9
M  V30 9 1 9 10
M  V30 10 1 10 11
M  V30 11 1 11 12
M  V30 12 1 12 13
M  V30 13 1 13 14
M  V30 14 1 14 15
M  V30 15 1 15 16
M  V30 16 1 16 17
M  V30 17 1 17 18
M  V30 18 2 18 19
M  V30 19 1 19 20
M  V30 20 2 20 21
M  V30 21 1 21 22
M  V30 22 2 22 23
M  V30 23 1 23 24
M  V30 24 1 24 25
M  V30 25 1 14 26
M  V30 26 1 26 27
M  V30 27 1 27 28
M  V30 28 1 28 29
M  V30 29 1 29 30
M  V30 30 1 9 4
M  V30 31 1 27 11
M  V30 32 2 24 16
M  V30 33 1 23 18
M  V30 34 1 1 31
M  V30 35 1 1 32
M  V30 36 1 1 33
M  V30 37 1 2 34
M  V30 38 1 2 35
M  V30 39 1 5 36
M  V30 40 1 6 37
M  V30 41 1 7 38
M  V30 42 1 8 39
M  V30 43 1 10 40
M  V30 44 1 10 41
M  V30 45 1 12 42
M  V30 46 1 12 43
M  V30 47 1 13 44
M  V30 48 1 13 45
M  V30 49 1 15 46
M  V30 50 1 15 47
M  V30 51 1 17 48
M  V30 52 1 19 49
M  V30 53 1 20 50
M  V30 54 1 21 51
M  V30 55 1 22 52
M  V30 56 1 25 53
M  V30 57 1 25 54
M  V30 58 1 25 55
M  V30 59 1 26 56
M  V30 60 1 26 57
M  V30 61 1 27 58
M  V30 62 1 28 59
M  V30 63 1 28 60
M  V30 64 1 29 61
M  V30 65 1 29 62
M  V30 66 1 30 63
M  V30 END BOND
M  V30 END CTAB
M  END
>  <Dataset>  (829) 
ChEMBL_Kinases

>  <Ligand_Instance>  (829) 
nan

>  <PDB_ID>  (829) 
nan

>  <Standardized_SMILES>  (829) 
CCOc1ccccc1CN1CCN(Cc2[nH]c3ccccc3c2C)CC1CCO

>  <Name>  (829) 
nan

>  <Pocket>  (829) 
nan

>  <ATP_Site>  (829) 
nan

>  <Peripheral>  (829) 
nan

>  <Num_H_Atoms_ProtBoundConf>  (829) 
nan

>  <Num_Resolved_Atoms>  (829) 
nan

>  <Num_Not_Resolved_Atoms>  (829) 
nan

$$$$
CHEMBL1595610
     RDKit          3D

  0  0  0  0  0  0  0  0  0  0999 V3000
M  V30 BEGIN CTAB
M  V30 COUNTS 37 40 0 0 0
M  V30 BEGIN ATOM
M  V30 1 C 0.824359 -5.406340 1.064387 0
M  V30 2 C 1.176968 -4.040043 1.532681 0
M  V30 3 C 2.049397 -3.927062 2.611909 0
M  V30 4 C 2.384097 -2.664175 3.055596 0
M  V30 5 C 1.867024 -1.538435 2.444954 0
M  V30 6 C 1.003721 -1.713909 1.375465 0
M  V30 7 N 0.517739 -0.480427 0.805799 0
M  V30 8 C 0.844381 -0.067645 -0.408696 0
M  V30 9 O 1.598928 -0.740726 -1.121895 0
M  V30 10 C 0.325293 1.131452 -0.864839 0
M  V30 11 C 0.700187 1.519914 -2.148990 0
M  V30 12 C 0.169420 2.721395 -2.583726 0
M  V30 13 C -0.682291 3.516119 -1.823672 0
M  V30 14 C -1.023704 3.081961 -0.550803 0
M  V30 15 C -0.516217 1.908595 -0.103517 0
M  V30 16 N -0.816185 1.461223 1.099658 0
M  V30 17 C -1.591237 1.974264 2.061590 0
M  V30 18 S -2.559080 3.463905 2.170796 0
M  V30 19 N -1.569628 1.128365 3.104440 0
M  V30 20 N -0.781412 0.086381 2.795329 0
M  V30 21 C -0.306826 0.296077 1.532493 0
M  V30 22 C 0.633887 -2.951074 0.889054 0
M  V30 23 C -0.292417 -3.047313 -0.256229 0
M  V30 24 H 1.147816 -6.173419 1.791659 0
M  V30 25 H -0.288167 -5.477603 1.041289 0
M  V30 26 H 1.185387 -5.615614 0.045110 0
M  V30 27 H 2.470149 -4.800284 3.109836 0
M  V30 28 H 3.065338 -2.533313 3.899367 0
M  V30 29 H 2.153036 -0.566377 2.821488 0
M  V30 30 H 1.355188 0.941616 -2.775811 0
M  V30 31 H 0.460496 3.020841 -3.577996 0
M  V30 32 H -1.046038 4.454713 -2.269745 0
M  V30 33 H -1.668529 3.745969 -0.055526 0
M  V30 34 H -1.750025 4.585022 2.449402 0
M  V30 35 H 0.341427 -3.186553 -1.174384 0
M  V30 36 H -0.930282 -3.953154 -0.210283 0
M  V30 37 H -0.854552 -2.110772 -0.333221 0
M  V30 END ATOM
M  V30 BEGIN BOND
M  V30 1 1 1 2
M  V30 2 2 2 3
M  V30 3 1 3 4
M  V30 4 2 4 5
M  V30 5 1 5 6
M  V30 6 1 6 7
M  V30 7 1 7 8
M  V30 8 2 8 9
M  V30 9 1 8 10
M  V30 10 2 10 11
M  V30 11 1 11 12
M  V30 12 2 12 13
M  V30 13 1 13 14
M  V30 14 2 14 15
M  V30 15 1 15 16
M  V30 16 1 16 17
M  V30 17 1 17 18
M  V30 18 2 17 19
M  V30 19 1 19 20
M  V30 20 2 20 21
M  V30 21 2 6 22
M  V30 22 1 22 23
M  V30 23 1 22 2
M  V30 24 1 21 7
M  V30 25 1 15 10
M  V30 26 1 21 16
M  V30 27 1 1 24
M  V30 28 1 1 25
M  V30 29 1 1 26
M  V30 30 1 3 27
M  V30 31 1 4 28
M  V30 32 1 5 29
M  V30 33 1 11 30
M  V30 34 1 12 31
M  V30 35 1 13 32
M  V30 36 1 14 33
M  V30 37 1 18 34
M  V30 38 1 23 35
M  V30 39 1 23 36
M  V30 40 1 23 37
M  V30 END BOND
M  V30 END CTAB
M  END
>  <Dataset>  (830) 
ChEMBL_Kinases

>  <Ligand_Instance>  (830) 
nan

>  <PDB_ID>  (830) 
nan

>  <Standardized_SMILES>  (830) 
Cc1cccc(-n2c(=O)c3ccccc3n3c(S)nnc23)c1C

>  <Name>  (830) 
nan

>  <Pocket>  (830) 
nan

>  <ATP_Site>  (830) 
nan

>  <Peripheral>  (830) 
nan

>  <Num_H_Atoms_ProtBoundConf>  (830) 
nan

>  <Num_Resolved_Atoms>  (830) 
nan

>  <Num_Not_Resolved_Atoms>  (830) 
nan

$$$$
CHEMBL1595580
     RDKit          3D

  0  0  0  0  0  0  0  0  0  0999 V3000
M  V30 BEGIN CTAB
M  V30 COUNTS 51 53 0 0 0
M  V30 BEGIN ATOM
M  V30 1 C 0.075874 -6.133401 0.815247 0
M  V30 2 O 1.235515 -5.364201 0.746026 0
M  V30 3 C 1.691637 -5.230637 -0.558804 0
M  V30 4 C 2.942159 -4.394242 -0.585974 0
M  V30 5 N 2.626199 -3.069477 -0.033003 0
M  V30 6 C 3.674372 -2.081761 0.045239 0
M  V30 7 O 4.845897 -2.335027 -0.349719 0
M  V30 8 C 3.266316 -0.774226 0.616186 0
M  V30 9 C 2.751174 -0.928363 2.025376 0
M  V30 10 C 2.192213 0.370764 2.492449 0
M  V30 11 C 1.048700 0.895450 1.637915 0
M  V30 12 C -0.251853 0.264775 1.982087 0
M  V30 13 N -1.397104 0.682787 1.247267 0
M  V30 14 C -1.968884 0.184101 0.139422 0
M  V30 15 S -1.290593 -1.142449 -0.460648 0
M  V30 16 N -3.049379 0.696008 -0.470676 0
M  V30 17 C -3.655593 1.791096 0.012430 0
M  V30 18 C -4.767430 2.351815 -0.580378 0
M  V30 19 C -5.402518 3.478203 -0.095390 0
M  V30 20 C -4.858497 4.045121 1.054346 0
M  V30 21 C -3.746190 3.490878 1.654197 0
M  V30 22 C -3.130138 2.365608 1.150277 0
M  V30 23 C -2.019210 1.800587 1.737350 0
M  V30 24 O -1.617512 2.394612 2.765037 0
M  V30 25 C 1.449956 0.939970 0.221697 0
M  V30 26 C 2.240367 -0.198503 -0.315043 0
M  V30 27 H 0.281211 -7.131941 0.419143 0
M  V30 28 H -0.184793 -6.202416 1.906021 0
M  V30 29 H -0.766617 -5.678885 0.271464 0
M  V30 30 H 1.944045 -6.222774 -0.999687 0
M  V30 31 H 0.903925 -4.711414 -1.172958 0
M  V30 32 H 3.270862 -4.316494 -1.639582 0
M  V30 33 H 3.688534 -4.870572 0.080424 0
M  V30 34 H 1.642138 -2.849526 0.301230 0
M  V30 35 H 4.146084 -0.119933 0.628492 0
M  V30 36 H 3.606152 -1.179248 2.654088 0
M  V30 37 H 1.997984 -1.705154 2.135853 0
M  V30 38 H 2.960650 1.137119 2.607065 0
M  V30 39 H 1.762790 0.188370 3.520844 0
M  V30 40 H 0.953845 1.980233 1.976724 0
M  V30 41 H -0.488023 0.387730 3.079226 0
M  V30 42 H -0.079131 -0.853122 1.902550 0
M  V30 43 H -3.414223 0.240343 -1.318150 0
M  V30 44 H -5.099210 1.830510 -1.461406 0
M  V30 45 H -6.255768 3.798588 -0.663176 0
M  V30 46 H -5.379131 4.928541 1.411240 0
M  V30 47 H -3.363111 3.964057 2.539019 0
M  V30 48 H 2.121699 1.850834 0.107859 0
M  V30 49 H 0.620266 1.135289 -0.487207 0
M  V30 50 H 2.843788 0.194126 -1.191448 0
M  V30 51 H 1.648256 -1.020455 -0.775880 0
M  V30 END ATOM
M  V30 BEGIN BOND
M  V30 1 1 1 2
M  V30 2 1 2 3
M  V30 3 1 3 4
M  V30 4 1 4 5
M  V30 5 1 5 6
M  V30 6 2 6 7
M  V30 7 1 6 8
M  V30 8 1 8 9
M  V30 9 1 9 10
M  V30 10 1 10 11
M  V30 11 1 11 12
M  V30 12 1 12 13
M  V30 13 1 13 14
M  V30 14 2 14 15
M  V30 15 1 14 16
M  V30 16 1 16 17
M  V30 17 2 17 18
M  V30 18 1 18 19
M  V30 19 2 19 20
M  V30 20 1 20 21
M  V30 21 2 21 22
M  V30 22 1 22 23
M  V30 23 2 23 24
M  V30 24 1 11 25
M  V30 25 1 25 26
M  V30 26 1 26 8
M  V30 27 1 23 13
M  V30 28 1 22 17
M  V30 29 1 1 27
M  V30 30 1 1 28
M  V30 31 1 1 29
M  V30 32 1 3 30
M  V30 33 1 3 31
M  V30 34 1 4 32
M  V30 35 1 4 33
M  V30 36 1 5 34
M  V30 37 1 8 35
M  V30 38 1 9 36
M  V30 39 1 9 37
M  V30 40 1 10 38
M  V30 41 1 10 39
M  V30 42 1 11 40
M  V30 43 1 12 41
M  V30 44 1 12 42
M  V30 45 1 16 43
M  V30 46 1 18 44
M  V30 47 1 19 45
M  V30 48 1 20 46
M  V30 49 1 21 47
M  V30 50 1 25 48
M  V30 51 1 25 49
M  V30 52 1 26 50
M  V30 53 1 26 51
M  V30 END BOND
M  V30 END CTAB
M  END
>  <Dataset>  (831) 
ChEMBL_Kinases

>  <Ligand_Instance>  (831) 
nan

>  <PDB_ID>  (831) 
nan

>  <Standardized_SMILES>  (831) 
COCCNC(=O)C1CCC(Cn2c(=S)[nH]c3ccccc3c2=O)CC1

>  <Name>  (831) 
nan

>  <Pocket>  (831) 
nan

>  <ATP_Site>  (831) 
nan

>  <Peripheral>  (831) 
nan

>  <Num_H_Atoms_ProtBoundConf>  (831) 
nan

>  <Num_Resolved_Atoms>  (831) 
nan

>  <Num_Not_Resolved_Atoms>  (831) 
nan

$$$$
CHEMBL1595560
     RDKit          3D

  0  0  0  0  0  0  0  0  0  0999 V3000
M  V30 BEGIN CTAB
M  V30 COUNTS 36 38 0 0 0
M  V30 BEGIN ATOM
M  V30 1 C 1.847720 -2.035840 4.710191 0
M  V30 2 C 1.662433 -2.022363 3.224820 0
M  V30 3 C 1.758885 -3.186088 2.456221 0
M  V30 4 C 1.584660 -3.159012 1.078815 0
M  V30 5 C 1.312307 -1.930942 0.506131 0
M  V30 6 N 1.145348 -1.986844 -0.922783 0
M  V30 7 C 2.237389 -1.641459 -1.644828 0
M  V30 8 N 1.891992 -1.753749 -2.939849 0
M  V30 9 N 0.633055 -2.153661 -2.976579 0
M  V30 10 N 0.150072 -2.304614 -1.757033 0
M  V30 11 C 1.213796 -0.774631 1.248123 0
M  V30 12 S 0.859819 0.660830 0.289259 0
M  V30 13 O 1.945729 0.991441 -0.663261 0
M  V30 14 O 0.694375 1.814238 1.250984 0
M  V30 15 N -0.646566 0.456062 -0.533825 0
M  V30 16 C -1.739969 0.287554 0.340664 0
M  V30 17 C -3.010709 0.975437 0.067925 0
M  V30 18 O -3.060237 1.847623 -0.976855 0
M  V30 19 C -1.873083 2.342694 -1.436514 0
M  V30 20 C -0.770845 1.356461 -1.615819 0
M  V30 21 C 1.388924 -0.816969 2.612482 0
M  V30 22 H 2.900169 -1.848869 4.932022 0
M  V30 23 H 1.454575 -2.990549 5.126980 0
M  V30 24 H 1.241939 -1.206628 5.131044 0
M  V30 25 H 1.972986 -4.120553 2.947747 0
M  V30 26 H 1.665662 -4.078626 0.510224 0
M  V30 27 H 3.240350 -1.322431 -1.397416 0
M  V30 28 H -1.898706 -0.826478 0.452698 0
M  V30 29 H -1.359289 0.566566 1.364933 0
M  V30 30 H -3.821129 0.226092 -0.100153 0
M  V30 31 H -3.352309 1.550238 0.972825 0
M  V30 32 H -1.502977 3.231142 -0.845213 0
M  V30 33 H -2.091832 2.784794 -2.442300 0
M  V30 34 H 0.173842 1.950017 -1.699737 0
M  V30 35 H -0.930152 0.859017 -2.597549 0
M  V30 36 H 1.295444 0.133230 3.120611 0
M  V30 END ATOM
M  V30 BEGIN BOND
M  V30 1 1 1 2
M  V30 2 2 2 3
M  V30 3 1 3 4
M  V30 4 2 4 5
M  V30 5 1 5 6
M  V30 6 1 6 7
M  V30 7 2 7 8
M  V30 8 1 8 9
M  V30 9 2 9 10
M  V30 10 1 5 11
M  V30 11 1 11 12
M  V30 12 2 12 13
M  V30 13 2 12 14
M  V30 14 1 12 15
M  V30 15 1 15 16
M  V30 16 1 16 17
M  V30 17 1 17 18
M  V30 18 1 18 19
M  V30 19 1 19 20
M  V30 20 2 11 21
M  V30 21 1 21 2
M  V30 22 1 10 6
M  V30 23 1 20 15
M  V30 24 1 1 22
M  V30 25 1 1 23
M  V30 26 1 1 24
M  V30 27 1 3 25
M  V30 28 1 4 26
M  V30 29 1 7 27
M  V30 30 1 16 28
M  V30 31 1 16 29
M  V30 32 1 17 30
M  V30 33 1 17 31
M  V30 34 1 19 32
M  V30 35 1 19 33
M  V30 36 1 20 34
M  V30 37 1 20 35
M  V30 38 1 21 36
M  V30 END BOND
M  V30 END CTAB
M  END
>  <Dataset>  (832) 
ChEMBL_Kinases

>  <Ligand_Instance>  (832) 
nan

>  <PDB_ID>  (832) 
nan

>  <Standardized_SMILES>  (832) 
Cc1ccc(-n2cnnn2)c(S(=O)(=O)N2CCOCC2)c1

>  <Name>  (832) 
nan

>  <Pocket>  (832) 
nan

>  <ATP_Site>  (832) 
nan

>  <Peripheral>  (832) 
nan

>  <Num_H_Atoms_ProtBoundConf>  (832) 
nan

>  <Num_Resolved_Atoms>  (832) 
nan

>  <Num_Not_Resolved_Atoms>  (832) 
nan

$$$$
CHEMBL1595144
     RDKit          3D

  0  0  0  0  0  0  0  0  0  0999 V3000
M  V30 BEGIN CTAB
M  V30 COUNTS 60 62 0 0 0
M  V30 BEGIN ATOM
M  V30 1 C 1.639228 -2.091330 7.972690 0
M  V30 2 O 0.859623 -1.074522 7.369026 0
M  V30 3 C 0.766316 -1.049034 5.984083 0
M  V30 4 C 1.419359 -1.993945 5.200544 0
M  V30 5 C 1.352867 -2.006708 3.802109 0
M  V30 6 C 0.579338 -0.998856 3.216735 0
M  V30 7 N 0.447099 -0.925087 1.805989 0
M  V30 8 C 1.293344 -0.199432 0.929650 0
M  V30 9 O 2.289869 0.475449 1.365902 0
M  V30 10 C 1.219052 -0.073652 -0.542617 0
M  V30 11 N 0.142810 -0.774523 -1.163138 0
M  V30 12 C -1.143189 -0.221354 -1.463555 0
M  V30 13 C -2.329761 -0.155123 -0.767128 0
M  V30 14 C -3.414143 0.446657 -1.320810 0
M  V30 15 C -4.625038 0.438007 -0.436934 0
M  V30 16 C -3.380638 1.004406 -2.571940 0
M  V30 17 C -2.209298 0.957854 -3.301807 0
M  V30 18 C -2.244182 1.577013 -4.644038 0
M  V30 19 C -1.082345 0.341998 -2.746942 0
M  V30 20 S 0.397803 -2.418966 -1.608740 0
M  V30 21 O -0.848751 -3.068599 -2.135919 0
M  V30 22 O 0.825875 -3.226257 -0.407300 0
M  V30 23 C 1.679507 -2.586364 -2.782102 0
M  V30 24 C 3.011325 -2.771247 -2.605265 0
M  V30 25 C 3.705211 -2.877619 -1.318346 0
M  V30 26 N 3.557810 -2.837245 -3.848155 0
M  V30 27 O 2.616979 -2.701104 -4.752948 0
M  V30 28 C 1.480627 -2.549167 -4.147725 0
M  V30 29 C 0.209235 -2.369007 -4.889599 0
M  V30 30 C -0.087019 -0.039590 3.949088 0
M  V30 31 C 0.023135 -0.088360 5.320331 0
M  V30 32 O -0.632117 0.861623 6.127849 0
M  V30 33 C -1.418529 1.889474 5.560037 0
M  V30 34 H 1.274410 -3.057386 7.514515 0
M  V30 35 H 2.685938 -1.951916 7.645886 0
M  V30 36 H 1.501389 -2.112197 9.072781 0
M  V30 37 H 2.018809 -2.777464 5.638888 0
M  V30 38 H 1.848005 -2.724658 3.195410 0
M  V30 39 H -0.325986 -1.436775 1.331364 0
M  V30 40 H 1.080325 1.014582 -0.812375 0
M  V30 41 H 2.214993 -0.320816 -0.984587 0
M  V30 42 H -2.235036 -0.616373 0.180928 0
M  V30 43 H -4.520849 1.225791 0.367849 0
M  V30 44 H -5.519739 0.720374 -1.027827 0
M  V30 45 H -4.728542 -0.548948 0.047387 0
M  V30 46 H -4.295530 1.476189 -2.958629 0
M  V30 47 H -3.230654 1.450042 -5.141733 0
M  V30 48 H -1.425512 1.178487 -5.314962 0
M  V30 49 H -2.062975 2.651370 -4.589297 0
M  V30 50 H -0.245476 0.384969 -3.435393 0
M  V30 51 H 4.666886 -3.443658 -1.471618 0
M  V30 52 H 3.160221 -3.481579 -0.549316 0
M  V30 53 H 4.001048 -1.912067 -0.870521 0
M  V30 54 H 0.363181 -1.585249 -5.652041 0
M  V30 55 H -0.626835 -2.092017 -4.247551 0
M  V30 56 H -0.091725 -3.316701 -5.424453 0
M  V30 57 H -0.676514 0.724096 3.450051 0
M  V30 58 H -0.840086 2.629442 5.011431 0
M  V30 59 H -2.063255 1.377108 4.802947 0
M  V30 60 H -2.071217 2.305002 6.336711 0
M  V30 END ATOM
M  V30 BEGIN BOND
M  V30 1 1 1 2
M  V30 2 1 2 3
M  V30 3 2 3 4
M  V30 4 1 4 5
M  V30 5 2 5 6
M  V30 6 1 6 7
M  V30 7 1 7 8
M  V30 8 2 8 9
M  V30 9 1 8 10
M  V30 10 1 10 11
M  V30 11 1 11 12
M  V30 12 2 12 13
M  V30 13 1 13 14
M  V30 14 1 14 15
M  V30 15 2 14 16
M  V30 16 1 16 17
M  V30 17 1 17 18
M  V30 18 2 17 19
M  V30 19 1 11 20
M  V30 20 2 20 21
M  V30 21 2 20 22
M  V30 22 1 20 23
M  V30 23 1 23 24
M  V30 24 1 24 25
M  V30 25 2 24 26
M  V30 26 1 26 27
M  V30 27 1 27 28
M  V30 28 1 28 29
M  V30 29 1 6 30
M  V30 30 2 30 31
M  V30 31 1 31 32
M  V30 32 1 32 33
M  V30 33 1 31 3
M  V30 34 1 19 12
M  V30 35 2 28 23
M  V30 36 1 1 34
M  V30 37 1 1 35
M  V30 38 1 1 36
M  V30 39 1 4 37
M  V30 40 1 5 38
M  V30 41 1 7 39
M  V30 42 1 10 40
M  V30 43 1 10 41
M  V30 44 1 13 42
M  V30 45 1 15 43
M  V30 46 1 15 44
M  V30 47 1 15 45
M  V30 48 1 16 46
M  V30 49 1 18 47
M  V30 50 1 18 48
M  V30 51 1 18 49
M  V30 52 1 19 50
M  V30 53 1 25 51
M  V30 54 1 25 52
M  V30 55 1 25 53
M  V30 56 1 29 54
M  V30 57 1 29 55
M  V30 58 1 29 56
M  V30 59 1 30 57
M  V30 60 1 33 58
M  V30 61 1 33 59
M  V30 62 1 33 60
M  V30 END BOND
M  V30 END CTAB
M  END
>  <Dataset>  (833) 
ChEMBL_Kinases

>  <Ligand_Instance>  (833) 
nan

>  <PDB_ID>  (833) 
nan

>  <Standardized_SMILES>  (833) 
COc1ccc(NC(=O)CN(c2cc(C)cc(C)c2)S(=O)(=O)c2c(C)noc2C)cc1OC

>  <Name>  (833) 
nan

>  <Pocket>  (833) 
nan

>  <ATP_Site>  (833) 
nan

>  <Peripheral>  (833) 
nan

>  <Num_H_Atoms_ProtBoundConf>  (833) 
nan

>  <Num_Resolved_Atoms>  (833) 
nan

>  <Num_Not_Resolved_Atoms>  (833) 
nan

$$$$
CHEMBL1595143
     RDKit          3D

  0  0  0  0  0  0  0  0  0  0999 V3000
M  V30 BEGIN CTAB
M  V30 COUNTS 41 44 0 0 0
M  V30 BEGIN ATOM
M  V30 1 O -1.932030 -2.996991 0.783849 0
M  V30 2 C -1.026835 -2.132792 0.911653 0
M  V30 3 N 0.097943 -2.640413 1.615241 0
M  V30 4 C 0.057666 -4.013552 2.074680 0
M  V30 5 C 1.360199 -4.365124 2.815754 0
M  V30 6 C 1.576429 -4.183540 4.223584 0
M  V30 7 C 2.816630 -4.577528 4.640362 0
M  V30 8 C 3.723448 -5.082919 3.785199 0
M  V30 9 S 2.918700 -5.084988 2.139272 0
M  V30 10 C -0.920996 -0.755432 0.488074 0
M  V30 11 C 0.207374 -0.227596 -0.106948 0
M  V30 12 C 0.281362 1.094219 -0.498661 0
M  V30 13 C 1.459801 1.680433 -1.125287 0
M  V30 14 C 1.401620 3.016896 -1.464206 0
M  V30 15 C 2.464630 3.693384 -2.067374 0
M  V30 16 C 3.570931 2.894576 -2.288212 0
M  V30 17 C 3.709096 1.560031 -1.981459 0
M  V30 18 C 2.600678 0.960318 -1.381159 0
M  V30 19 N -0.786683 1.897149 -0.292670 0
M  V30 20 C -1.922368 1.422598 0.290859 0
M  V30 21 C -2.925412 2.357601 0.434466 0
M  V30 22 C -4.095067 1.894714 1.027766 0
M  V30 23 C -4.241341 0.583531 1.445663 0
M  V30 24 C -3.176384 -0.274071 1.255905 0
M  V30 25 C -1.983213 0.100847 0.677313 0
M  V30 26 H 0.944363 -2.080497 1.817045 0
M  V30 27 H 0.031421 -4.678814 1.189928 0
M  V30 28 H -0.704962 -4.235428 2.815590 0
M  V30 29 H 0.764942 -3.766727 4.794464 0
M  V30 30 H 3.054525 -4.466985 5.711384 0
M  V30 31 H 4.727389 -5.422063 4.013581 0
M  V30 32 H 1.028293 -0.882700 -0.254719 0
M  V30 33 H 0.520397 3.634986 -1.283974 0
M  V30 34 H 2.456844 4.731358 -2.344872 0
M  V30 35 H 4.429779 3.371237 -2.758351 0
M  V30 36 H 4.633283 1.041428 -2.207339 0
M  V30 37 H 2.674060 -0.083414 -1.127683 0
M  V30 38 H -2.830279 3.374979 0.117560 0
M  V30 39 H -4.946847 2.559749 1.185674 0
M  V30 40 H -5.171886 0.278915 1.900348 0
M  V30 41 H -3.294665 -1.293426 1.582779 0
M  V30 END ATOM
M  V30 BEGIN BOND
M  V30 1 2 1 2
M  V30 2 1 2 3
M  V30 3 1 3 4
M  V30 4 1 4 5
M  V30 5 2 5 6
M  V30 6 1 6 7
M  V30 7 2 7 8
M  V30 8 1 8 9
M  V30 9 1 2 10
M  V30 10 2 10 11
M  V30 11 1 11 12
M  V30 12 1 12 13
M  V30 13 2 13 14
M  V30 14 1 14 15
M  V30 15 2 15 16
M  V30 16 1 16 17
M  V30 17 2 17 18
M  V30 18 2 12 19
M  V30 19 1 19 20
M  V30 20 2 20 21
M  V30 21 1 21 22
M  V30 22 2 22 23
M  V30 23 1 23 24
M  V30 24 2 24 25
M  V30 25 1 9 5
M  V30 26 1 25 10
M  V30 27 1 18 13
M  V30 28 1 25 20
M  V30 29 1 3 26
M  V30 30 1 4 27
M  V30 31 1 4 28
M  V30 32 1 6 29
M  V30 33 1 7 30
M  V30 34 1 8 31
M  V30 35 1 11 32
M  V30 36 1 14 33
M  V30 37 1 15 34
M  V30 38 1 16 35
M  V30 39 1 17 36
M  V30 40 1 18 37
M  V30 41 1 21 38
M  V30 42 1 22 39
M  V30 43 1 23 40
M  V30 44 1 24 41
M  V30 END BOND
M  V30 END CTAB
M  END
>  <Dataset>  (834) 
ChEMBL_Kinases

>  <Ligand_Instance>  (834) 
nan

>  <PDB_ID>  (834) 
nan

>  <Standardized_SMILES>  (834) 
O=C(NCc1cccs1)c1cc(-c2ccccc2)nc2ccccc12

>  <Name>  (834) 
nan

>  <Pocket>  (834) 
nan

>  <ATP_Site>  (834) 
nan

>  <Peripheral>  (834) 
nan

>  <Num_H_Atoms_ProtBoundConf>  (834) 
nan

>  <Num_Resolved_Atoms>  (834) 
nan

>  <Num_Not_Resolved_Atoms>  (834) 
nan

$$$$
CHEMBL1600077
     RDKit          3D

  0  0  0  0  0  0  0  0  0  0999 V3000
M  V30 BEGIN CTAB
M  V30 COUNTS 42 44 0 0 0
M  V30 BEGIN ATOM
M  V30 1 C 1.360001 -2.884335 -0.248156 0
M  V30 2 O 1.414091 -1.587945 0.254026 0
M  V30 3 C 2.460949 -0.714924 0.363096 0
M  V30 4 O 2.844465 -1.761345 -0.140017 0
M  V30 5 C 2.413012 0.623810 0.905691 0
M  V30 6 C 3.495844 1.400414 0.964776 0
M  V30 7 C 4.937838 1.291074 0.597575 0
M  V30 8 C 5.493967 0.218323 0.073948 0
M  V30 9 C 6.795951 0.082694 -0.269484 0
M  V30 10 C 7.557550 1.295633 0.009951 0
M  V30 11 S 6.206400 2.412609 0.729239 0
M  V30 12 C 3.234878 2.663576 1.522248 0
M  V30 13 S 1.495224 2.646911 1.912833 0
M  V30 14 C 1.192098 1.032533 1.345629 0
M  V30 15 N -0.074045 0.413753 1.392773 0
M  V30 16 C -1.019397 0.498124 0.335297 0
M  V30 17 O -0.608862 1.192507 -0.666278 0
M  V30 18 C -2.349942 0.031149 0.022696 0
M  V30 19 N -3.041934 -0.786808 0.945517 0
M  V30 20 C -4.434979 -1.028160 0.566095 0
M  V30 21 C -5.058818 -1.996528 1.582601 0
M  V30 22 O -4.253301 -1.923397 2.740577 0
M  V30 23 C -3.034264 -2.555366 2.536816 0
M  V30 24 C -2.407228 -2.043246 1.263669 0
M  V30 25 H 2.002315 -3.582384 0.339594 0
M  V30 26 H 0.283229 -3.202916 -0.145568 0
M  V30 27 H 1.676012 -2.971005 -1.312330 0
M  V30 28 H 5.207120 -0.775460 -0.229312 0
M  V30 29 H 7.674817 -0.393856 -0.644233 0
M  V30 30 H 8.526098 1.945054 0.033172 0
M  V30 31 H 3.776002 3.587316 1.762061 0
M  V30 32 H -0.474095 -0.151572 2.171660 0
M  V30 33 H -2.328990 -0.556304 -0.944243 0
M  V30 34 H -3.034829 0.890804 -0.238224 0
M  V30 35 H -4.938607 -0.064062 0.520563 0
M  V30 36 H -4.411826 -1.487569 -0.435308 0
M  V30 37 H -6.065711 -1.632181 1.789472 0
M  V30 38 H -5.007196 -3.021100 1.157394 0
M  V30 39 H -3.182604 -3.667766 2.403447 0
M  V30 40 H -2.358156 -2.400985 3.410553 0
M  V30 41 H -1.334579 -2.088117 1.214147 0
M  V30 42 H -2.763603 -2.741501 0.437752 0
M  V30 END ATOM
M  V30 BEGIN BOND
M  V30 1 1 1 2
M  V30 2 1 2 3
M  V30 3 2 3 4
M  V30 4 1 3 5
M  V30 5 1 5 6
M  V30 6 1 6 7
M  V30 7 2 7 8
M  V30 8 1 8 9
M  V30 9 2 9 10
M  V30 10 1 10 11
M  V30 11 2 6 12
M  V30 12 1 12 13
M  V30 13 1 13 14
M  V30 14 1 14 15
M  V30 15 1 15 16
M  V30 16 2 16 17
M  V30 17 1 16 18
M  V30 18 1 18 19
M  V30 19 1 19 20
M  V30 20 1 20 21
M  V30 21 1 21 22
M  V30 22 1 22 23
M  V30 23 1 23 24
M  V30 24 2 14 5
M  V30 25 1 24 19
M  V30 26 1 11 7
M  V30 27 1 1 25
M  V30 28 1 1 26
M  V30 29 1 1 27
M  V30 30 1 8 28
M  V30 31 1 9 29
M  V30 32 1 10 30
M  V30 33 1 12 31
M  V30 34 1 15 32
M  V30 35 1 18 33
M  V30 36 1 18 34
M  V30 37 1 20 35
M  V30 38 1 20 36
M  V30 39 1 21 37
M  V30 40 1 21 38
M  V30 41 1 23 39
M  V30 42 1 23 40
M  V30 43 1 24 41
M  V30 44 1 24 42
M  V30 END BOND
M  V30 END CTAB
M  END
>  <Dataset>  (835) 
ChEMBL_Kinases

>  <Ligand_Instance>  (835) 
nan

>  <PDB_ID>  (835) 
nan

>  <Standardized_SMILES>  (835) 
COC(=O)c1c(-c2cccs2)csc1NC(=O)CN1CCOCC1

>  <Name>  (835) 
nan

>  <Pocket>  (835) 
nan

>  <ATP_Site>  (835) 
nan

>  <Peripheral>  (835) 
nan

>  <Num_H_Atoms_ProtBoundConf>  (835) 
nan

>  <Num_Resolved_Atoms>  (835) 
nan

>  <Num_Not_Resolved_Atoms>  (835) 
nan

$$$$
CHEMBL1594058
     RDKit          3D

  0  0  0  0  0  0  0  0  0  0999 V3000
M  V30 BEGIN CTAB
M  V30 COUNTS 52 55 0 0 0
M  V30 BEGIN ATOM
M  V30 1 N -1.921564 2.489454 5.316064 0
M  V30 2 C -1.318687 1.651883 4.787684 0
M  V30 3 C -0.575751 0.581929 4.132380 0
M  V30 4 C -0.278453 0.924117 2.679598 0
M  V30 5 N 0.454878 -0.173052 2.100655 0
M  V30 6 C 1.805161 -0.271179 2.106109 0
M  V30 7 O 2.349969 0.707334 2.676696 0
M  V30 8 C 2.508422 -1.322765 1.552181 0
M  V30 9 C 3.965090 -1.352887 1.581126 0
M  V30 10 C 4.676166 -0.527479 0.567680 0
M  V30 11 C 4.409065 0.904189 0.572688 0
M  V30 12 C 5.020244 1.915449 1.285685 0
M  V30 13 C 4.609706 3.232386 1.120463 0
M  V30 14 C 3.605556 3.599644 0.267941 0
M  V30 15 C 2.970720 2.618745 -0.462025 0
M  V30 16 C 3.384267 1.315325 -0.292017 0
M  V30 17 N 1.765084 -2.310502 0.970226 0
M  V30 18 C 0.423629 -2.217850 0.962284 0
M  V30 19 C -0.280885 -3.222100 0.371249 0
M  V30 20 N -1.620356 -3.156176 0.346717 0
M  V30 21 C -2.316233 -2.139275 0.880839 0
M  V30 22 O -3.668020 -1.888647 0.957975 0
M  V30 23 C -4.701296 -2.701978 0.456485 0
M  V30 24 C -4.584620 -2.881780 -1.009668 0
M  V30 25 C -3.946344 -3.872982 -1.723025 0
M  V30 26 C -3.929348 -3.885263 -3.097746 0
M  V30 27 C -4.561345 -2.889276 -3.848486 0
M  V30 28 C -5.211628 -1.879533 -3.170802 0
M  V30 29 C -5.206764 -1.901120 -1.793955 0
M  V30 30 N -1.619251 -1.147802 1.464737 0
M  V30 31 C -0.275899 -1.166324 1.515816 0
M  V30 32 H -1.126339 -0.366189 4.246933 0
M  V30 33 H 0.375353 0.465342 4.715909 0
M  V30 34 H -1.259759 1.026407 2.179952 0
M  V30 35 H 0.282432 1.870312 2.672989 0
M  V30 36 H 4.399565 -1.153329 2.583683 0
M  V30 37 H 4.262699 -2.423424 1.372723 0
M  V30 38 H 5.778716 -0.646298 0.792093 0
M  V30 39 H 4.534730 -0.948068 -0.467081 0
M  V30 40 H 5.805739 1.568243 1.943017 0
M  V30 41 H 5.126036 3.984176 1.707184 0
M  V30 42 H 3.295147 4.621130 0.147497 0
M  V30 43 H 2.187864 2.898962 -1.127745 0
M  V30 44 H 2.825000 0.597185 -0.911789 0
M  V30 45 H 0.172878 -4.089815 -0.090756 0
M  V30 46 H -4.637205 -3.727259 0.915897 0
M  V30 47 H -5.696021 -2.241760 0.679397 0
M  V30 48 H -3.475848 -4.623780 -1.103948 0
M  V30 49 H -3.412919 -4.687855 -3.603008 0
M  V30 50 H -4.546773 -2.900486 -4.927860 0
M  V30 51 H -5.717222 -1.083141 -3.706394 0
M  V30 52 H -5.741246 -1.069379 -1.310556 0
M  V30 END ATOM
M  V30 BEGIN BOND
M  V30 1 3 1 2
M  V30 2 1 2 3
M  V30 3 1 3 4
M  V30 4 1 4 5
M  V30 5 1 5 6
M  V30 6 2 6 7
M  V30 7 1 6 8
M  V30 8 1 8 9
M  V30 9 1 9 10
M  V30 10 1 10 11
M  V30 11 2 11 12
M  V30 12 1 12 13
M  V30 13 2 13 14
M  V30 14 1 14 15
M  V30 15 2 15 16
M  V30 16 2 8 17
M  V30 17 1 17 18
M  V30 18 2 18 19
M  V30 19 1 19 20
M  V30 20 2 20 21
M  V30 21 1 21 22
M  V30 22 1 22 23
M  V30 23 1 23 24
M  V30 24 2 24 25
M  V30 25 1 25 26
M  V30 26 2 26 27
M  V30 27 1 27 28
M  V30 28 2 28 29
M  V30 29 1 21 30
M  V30 30 2 30 31
M  V30 31 1 31 5
M  V30 32 1 16 11
M  V30 33 1 31 18
M  V30 34 1 29 24
M  V30 35 1 3 32
M  V30 36 1 3 33
M  V30 37 1 4 34
M  V30 38 1 4 35
M  V30 39 1 9 36
M  V30 40 1 9 37
M  V30 41 1 10 38
M  V30 42 1 10 39
M  V30 43 1 12 40
M  V30 44 1 13 41
M  V30 45 1 14 42
M  V30 46 1 15 43
M  V30 47 1 16 44
M  V30 48 1 19 45
M  V30 49 1 23 46
M  V30 50 1 23 47
M  V30 51 1 25 48
M  V30 52 1 26 49
M  V30 53 1 27 50
M  V30 54 1 28 51
M  V30 55 1 29 52
M  V30 END BOND
M  V30 END CTAB
M  END
>  <Dataset>  (836) 
ChEMBL_Kinases

>  <Ligand_Instance>  (836) 
nan

>  <PDB_ID>  (836) 
nan

>  <Standardized_SMILES>  (836) 
N#CCCn1c(=O)c(CCc2ccccc2)nc2cnc(OCc3ccccc3)nc21

>  <Name>  (836) 
nan

>  <Pocket>  (836) 
nan

>  <ATP_Site>  (836) 
nan

>  <Peripheral>  (836) 
nan

>  <Num_H_Atoms_ProtBoundConf>  (836) 
nan

>  <Num_Resolved_Atoms>  (836) 
nan

>  <Num_Not_Resolved_Atoms>  (836) 
nan

$$$$
CHEMBL1594107
     RDKit          3D

  0  0  0  0  0  0  0  0  0  0999 V3000
M  V30 BEGIN CTAB
M  V30 COUNTS 59 59 0 0 0
M  V30 BEGIN ATOM
M  V30 1 C -1.478082 -4.259464 4.494281 0
M  V30 2 C -1.421991 -3.334833 5.691785 0
M  V30 3 C -1.421690 -1.906188 5.138943 0
M  V30 4 C -0.223691 -1.682481 4.245842 0
M  V30 5 C -0.183838 -0.278134 3.670301 0
M  V30 6 C 1.079525 -0.221990 2.799941 0 CFG=2
M  V30 7 O 2.142381 -0.483196 3.651018 0
M  V30 8 C 1.120765 1.111504 2.161366 0
M  V30 9 C 1.802000 1.080791 0.993992 0
M  V30 10 C 2.502185 0.007456 0.239083 0 CFG=1
M  V30 11 C 2.145277 -0.095730 -1.202345 0 CFG=2
M  V30 12 C 0.909543 -0.857700 -1.538662 0
M  V30 13 C -0.269227 -0.246518 -0.921015 0
M  V30 14 C -1.352726 0.252003 -1.563856 0
M  V30 15 C -1.534528 0.263061 -3.016402 0
M  V30 16 C -2.763107 -0.498953 -3.429037 0
M  V30 17 C -3.977296 0.143807 -2.823672 0
M  V30 18 C -5.199761 -0.614848 -3.243415 0
M  V30 19 O -5.625379 -1.468158 -2.423951 0
M  V30 20 O -6.310487 -1.259081 -3.698956 0
M  V30 21 C 3.384333 -0.777114 -1.794431 0 CFG=1
M  V30 22 O 3.452878 -0.581503 -3.173110 0
M  V30 23 C 4.521291 -0.152414 -1.062067 0
M  V30 24 C 3.965776 0.491143 0.171786 0 CFG=1
M  V30 25 O 3.909790 1.881449 0.032715 0
M  V30 26 H -2.178403 -3.751666 3.767850 0
M  V30 27 H -0.514150 -4.419112 3.999223 0
M  V30 28 H -1.859581 -5.248730 4.820752 0
M  V30 29 H -2.364173 -3.460877 6.268404 0
M  V30 30 H -0.538544 -3.491719 6.322626 0
M  V30 31 H -1.513266 -1.150621 5.921594 0
M  V30 32 H -2.314079 -1.823811 4.470382 0
M  V30 33 H -0.178627 -2.396236 3.423724 0
M  V30 34 H 0.690880 -1.814879 4.860069 0
M  V30 35 H -1.095278 -0.042269 3.104798 0
M  V30 36 H -0.000185 0.408656 4.527701 0
M  V30 37 H 0.923082 -1.036993 2.056244 0
M  V30 38 H 2.603510 -1.314704 3.323290 0
M  V30 39 H 0.718998 2.074503 2.444655 0
M  V30 40 H 1.904894 2.011801 0.415302 0
M  V30 41 H 2.525925 -0.958187 0.751801 0
M  V30 42 H 2.095983 0.937831 -1.618173 0
M  V30 43 H 0.854539 -0.928123 -2.644458 0
M  V30 44 H 1.075445 -1.911149 -1.195609 0
M  V30 45 H -0.304977 -0.189608 0.153449 0
M  V30 46 H -2.143245 0.679129 -0.961792 0
M  V30 47 H -1.735623 1.338094 -3.314212 0
M  V30 48 H -0.649608 -0.008241 -3.617116 0
M  V30 49 H -2.916658 -0.442613 -4.543085 0
M  V30 50 H -2.702333 -1.580071 -3.218248 0
M  V30 51 H -3.932667 0.217125 -1.720999 0
M  V30 52 H -4.126046 1.164374 -3.217996 0
M  V30 53 H -6.580515 -1.227178 -4.687289 0
M  V30 54 H 3.349969 -1.853693 -1.514035 0
M  V30 55 H 3.292858 -1.455936 -3.609651 0
M  V30 56 H 5.307467 -0.875755 -0.717433 0
M  V30 57 H 4.987100 0.628220 -1.731850 0
M  V30 58 H 4.493597 0.186871 1.096642 0
M  V30 59 H 4.318642 2.207724 -0.807148 0
M  V30 END ATOM
M  V30 BEGIN BOND
M  V30 1 1 1 2
M  V30 2 1 2 3
M  V30 3 1 3 4
M  V30 4 1 4 5
M  V30 5 1 5 6
M  V30 6 1 6 7
M  V30 7 1 6 8
M  V30 8 2 8 9
M  V30 9 1 9 10
M  V30 10 1 10 11
M  V30 11 1 11 12
M  V30 12 1 12 13
M  V30 13 2 13 14
M  V30 14 1 14 15
M  V30 15 1 15 16
M  V30 16 1 16 17
M  V30 17 1 17 18
M  V30 18 2 18 19
M  V30 19 1 18 20
M  V30 20 1 11 21
M  V30 21 1 21 22
M  V30 22 1 21 23
M  V30 23 1 23 24
M  V30 24 1 24 25
M  V30 25 1 24 10
M  V30 26 1 1 26
M  V30 27 1 1 27
M  V30 28 1 1 28
M  V30 29 1 2 29
M  V30 30 1 2 30
M  V30 31 1 3 31
M  V30 32 1 3 32
M  V30 33 1 4 33
M  V30 34 1 4 34
M  V30 35 1 5 35
M  V30 36 1 5 36
M  V30 37 1 6 37 CFG=3
M  V30 38 1 7 38
M  V30 39 1 8 39
M  V30 40 1 9 40
M  V30 41 1 10 41 CFG=1
M  V30 42 1 11 42 CFG=3
M  V30 43 1 12 43
M  V30 44 1 12 44
M  V30 45 1 13 45
M  V30 46 1 14 46
M  V30 47 1 15 47
M  V30 48 1 15 48
M  V30 49 1 16 49
M  V30 50 1 16 50
M  V30 51 1 17 51
M  V30 52 1 17 52
M  V30 53 1 20 53
M  V30 54 1 21 54 CFG=3
M  V30 55 1 22 55
M  V30 56 1 23 56
M  V30 57 1 23 57
M  V30 58 1 24 58 CFG=1
M  V30 59 1 25 59
M  V30 END BOND
M  V30 END CTAB
M  END
>  <Dataset>  (837) 
ChEMBL_Kinases

>  <Ligand_Instance>  (837) 
nan

>  <PDB_ID>  (837) 
nan

>  <Standardized_SMILES>  (837) 
CCCCC[C@H](O)/C=C\[C@H]1[C@H](C/C=C\CCCC(=O)O)[C@@H](O)C[C@H]1O

>  <Name>  (837) 
nan

>  <Pocket>  (837) 
nan

>  <ATP_Site>  (837) 
nan

>  <Peripheral>  (837) 
nan

>  <Num_H_Atoms_ProtBoundConf>  (837) 
nan

>  <Num_Resolved_Atoms>  (837) 
nan

>  <Num_Not_Resolved_Atoms>  (837) 
nan

$$$$
CHEMBL1594134
     RDKit          3D

  0  0  0  0  0  0  0  0  0  0999 V3000
M  V30 BEGIN CTAB
M  V30 COUNTS 56 60 0 0 0
M  V30 BEGIN ATOM
M  V30 1 C 0.580357 -4.175893 3.994404 0
M  V30 2 O 1.197917 -3.485116 2.908425 0
M  V30 3 C 1.623618 -2.177121 3.199263 0
M  V30 4 C 1.435421 -1.635504 4.477455 0
M  V30 5 C 1.868207 -0.354685 4.707384 0
M  V30 6 C 2.488489 0.451960 3.745902 0
M  V30 7 N 3.014850 1.691241 3.664368 0
M  V30 8 C 3.482577 1.865824 2.417519 0
M  V30 9 C 3.279134 0.735628 1.614682 0
M  V30 10 C 3.674238 0.751163 0.217778 0
M  V30 11 C 2.609515 1.171083 -0.748538 0
M  V30 12 N 1.443261 0.459905 -0.881361 0
M  V30 13 C 0.248982 -0.261612 -1.016210 0
M  V30 14 N -1.055275 0.022197 -0.933387 0
M  V30 15 C -2.065359 -0.843898 -1.074420 0
M  V30 16 C -3.342217 -0.171153 -0.883643 0
M  V30 17 C -3.573443 -0.214586 0.500542 0
M  V30 18 C -4.749757 0.370692 1.006936 0
M  V30 19 C -5.684916 0.987702 0.169124 0
M  V30 20 C -5.387171 0.987747 -1.173616 0
M  V30 21 C -4.265572 0.436281 -1.696696 0
M  V30 22 O -3.835954 0.360854 -3.027199 0
M  V30 23 C -4.644961 0.939524 -4.062063 0
M  V30 24 N -1.731279 -2.109033 -1.321462 0
M  V30 25 C -0.466294 -2.562794 -1.436007 0
M  V30 26 C -0.386909 -3.907820 -1.699566 0
M  V30 27 C 0.951414 -4.341101 -1.821143 0
M  V30 28 C 2.017988 -3.484461 -1.685967 0
M  V30 29 C 1.765663 -2.155249 -1.420632 0
M  V30 30 C 0.497616 -1.598905 -1.275613 0
M  V30 31 C 2.655204 -0.122332 2.488268 0
M  V30 32 C 2.229930 -1.390938 2.252359 0
M  V30 33 H -0.257658 -3.498070 4.331349 0
M  V30 34 H 0.150848 -5.156587 3.696443 0
M  V30 35 H 1.266236 -4.245113 4.852467 0
M  V30 36 H 0.968300 -2.195042 5.270089 0
M  V30 37 H 1.726888 0.056502 5.675998 0
M  V30 38 H 2.930927 2.238932 4.569050 0
M  V30 39 H 3.942031 2.838411 2.218649 0
M  V30 40 H 4.515055 1.480686 0.077831 0
M  V30 41 H 4.144936 -0.221118 -0.064591 0
M  V30 42 H 3.115416 1.143947 -1.799295 0
M  V30 43 H 2.567298 2.303397 -0.613880 0
M  V30 44 H 0.899561 1.364603 -0.763479 0
M  V30 45 H -3.015138 -0.626221 1.325279 0
M  V30 46 H -5.041225 0.397196 2.062770 0
M  V30 47 H -6.584488 1.432844 0.548767 0
M  V30 48 H -6.044934 1.439237 -1.908971 0
M  V30 49 H -5.675790 0.562310 -4.042238 0
M  V30 50 H -4.612841 2.044906 -3.880388 0
M  V30 51 H -4.144143 0.727125 -5.012005 0
M  V30 52 H -1.253187 -4.547860 -1.793219 0
M  V30 53 H 1.113340 -5.400426 -2.029070 0
M  V30 54 H 3.044482 -3.840928 -1.784723 0
M  V30 55 H 2.631588 -1.502978 -1.325120 0
M  V30 56 H 2.360731 -1.841221 1.304244 0
M  V30 END ATOM
M  V30 BEGIN BOND
M  V30 1 1 1 2
M  V30 2 1 2 3
M  V30 3 2 3 4
M  V30 4 1 4 5
M  V30 5 2 5 6
M  V30 6 1 6 7
M  V30 7 1 7 8
M  V30 8 2 8 9
M  V30 9 1 9 10
M  V30 10 1 10 11
M  V30 11 1 11 12
M  V30 12 1 12 13
M  V30 13 2 13 14
M  V30 14 1 14 15
M  V30 15 1 15 16
M  V30 16 2 16 17
M  V30 17 1 17 18
M  V30 18 2 18 19
M  V30 19 1 19 20
M  V30 20 2 20 21
M  V30 21 1 21 22
M  V30 22 1 22 23
M  V30 23 2 15 24
M  V30 24 1 24 25
M  V30 25 2 25 26
M  V30 26 1 26 27
M  V30 27 2 27 28
M  V30 28 1 28 29
M  V30 29 2 29 30
M  V30 30 1 9 31
M  V30 31 2 31 32
M  V30 32 1 32 3
M  V30 33 1 31 6
M  V30 34 1 30 13
M  V30 35 1 21 16
M  V30 36 1 30 25
M  V30 37 1 1 33
M  V30 38 1 1 34
M  V30 39 1 1 35
M  V30 40 1 4 36
M  V30 41 1 5 37
M  V30 42 1 7 38
M  V30 43 1 8 39
M  V30 44 1 10 40
M  V30 45 1 10 41
M  V30 46 1 11 42
M  V30 47 1 11 43
M  V30 48 1 12 44
M  V30 49 1 17 45
M  V30 50 1 18 46
M  V30 51 1 19 47
M  V30 52 1 20 48
M  V30 53 1 23 49
M  V30 54 1 23 50
M  V30 55 1 23 51
M  V30 56 1 26 52
M  V30 57 1 27 53
M  V30 58 1 28 54
M  V30 59 1 29 55
M  V30 60 1 32 56
M  V30 END BOND
M  V30 END CTAB
M  END
>  <Dataset>  (838) 
ChEMBL_Kinases

>  <Ligand_Instance>  (838) 
nan

>  <PDB_ID>  (838) 
nan

>  <Standardized_SMILES>  (838) 
COc1ccc2[nH]cc(CCNc3nc(-c4ccccc4OC)nc4ccccc34)c2c1

>  <Name>  (838) 
nan

>  <Pocket>  (838) 
nan

>  <ATP_Site>  (838) 
nan

>  <Peripheral>  (838) 
nan

>  <Num_H_Atoms_ProtBoundConf>  (838) 
nan

>  <Num_Resolved_Atoms>  (838) 
nan

>  <Num_Not_Resolved_Atoms>  (838) 
nan

$$$$
CHEMBL1594144
     RDKit          3D

  0  0  0  0  0  0  0  0  0  0999 V3000
M  V30 BEGIN CTAB
M  V30 COUNTS 38 40 0 0 0
M  V30 BEGIN ATOM
M  V30 1 C 0.137864 -4.105344 0.855133 0
M  V30 2 O 0.640510 -2.856059 1.245726 0
M  V30 3 C 1.876515 -2.625507 1.799739 0
M  V30 4 C 2.715336 -3.721307 1.996599 0
M  V30 5 C 3.963212 -3.462661 2.559638 0
M  V30 6 C 4.381376 -2.195264 2.917206 0
M  V30 7 C 3.535810 -1.118195 2.714824 0
M  V30 8 C 2.282733 -1.335614 2.155489 0
M  V30 9 C 1.291604 -0.270650 1.890017 0
M  V30 10 C 1.343896 0.351903 0.636435 0
M  V30 11 N 0.356692 1.280303 0.619146 0
M  V30 12 S 0.003381 2.325650 -0.718822 0
M  V30 13 O 0.001431 3.753827 -0.230987 0
M  V30 14 O 0.995601 2.140419 -1.805586 0
M  V30 15 C -1.634092 1.989494 -1.266855 0
M  V30 16 C -2.776151 2.613411 -0.804101 0
M  V30 17 C -3.999542 2.245061 -1.328917 0
M  V30 18 C -4.161209 1.277748 -2.302572 0
M  V30 19 F -5.376995 0.937402 -2.798808 0
M  V30 20 C -2.977356 0.681434 -2.732611 0
M  V30 21 C -1.734993 1.016239 -2.238303 0
M  V30 22 N -0.273367 1.253644 1.764487 0
M  V30 23 C 0.254486 0.322623 2.585390 0
M  V30 24 N -0.008748 -0.133421 3.894792 0
M  V30 25 H -0.273500 -4.600074 1.748807 0
M  V30 26 H -0.729165 -3.939309 0.160478 0
M  V30 27 H 0.906576 -4.713720 0.341809 0
M  V30 28 H 2.474672 -4.730071 1.750858 0
M  V30 29 H 4.678923 -4.268695 2.746040 0
M  V30 30 H 5.347416 -1.998883 3.352528 0
M  V30 31 H 3.774841 -0.085421 2.963322 0
M  V30 32 H 2.016433 0.183625 -0.218711 0
M  V30 33 H -2.628356 3.353612 -0.055846 0
M  V30 34 H -4.884951 2.748097 -0.951129 0
M  V30 35 H -3.060736 -0.086185 -3.499302 0
M  V30 36 H -0.888389 0.492112 -2.641998 0
M  V30 37 H -0.687549 -0.801133 4.322624 0
M  V30 38 H 0.590508 0.259777 4.655641 0
M  V30 END ATOM
M  V30 BEGIN BOND
M  V30 1 1 1 2
M  V30 2 1 2 3
M  V30 3 2 3 4
M  V30 4 1 4 5
M  V30 5 2 5 6
M  V30 6 1 6 7
M  V30 7 2 7 8
M  V30 8 1 8 9
M  V30 9 2 9 10
M  V30 10 1 10 11
M  V30 11 1 11 12
M  V30 12 2 12 13
M  V30 13 2 12 14
M  V30 14 1 12 15
M  V30 15 2 15 16
M  V30 16 1 16 17
M  V30 17 2 17 18
M  V30 18 1 18 19
M  V30 19 1 18 20
M  V30 20 2 20 21
M  V30 21 1 11 22
M  V30 22 2 22 23
M  V30 23 1 23 24
M  V30 24 1 8 3
M  V30 25 1 23 9
M  V30 26 1 21 15
M  V30 27 1 1 25
M  V30 28 1 1 26
M  V30 29 1 1 27
M  V30 30 1 4 28
M  V30 31 1 5 29
M  V30 32 1 6 30
M  V30 33 1 7 31
M  V30 34 1 10 32
M  V30 35 1 16 33
M  V30 36 1 17 34
M  V30 37 1 20 35
M  V30 38 1 21 36
M  V30 39 1 24 37
M  V30 40 1 24 38
M  V30 END BOND
M  V30 END CTAB
M  END
>  <Dataset>  (839) 
ChEMBL_Kinases

>  <Ligand_Instance>  (839) 
nan

>  <PDB_ID>  (839) 
nan

>  <Standardized_SMILES>  (839) 
COc1ccccc1-c1cn(S(=O)(=O)c2ccc(F)cc2)nc1N

>  <Name>  (839) 
nan

>  <Pocket>  (839) 
nan

>  <ATP_Site>  (839) 
nan

>  <Peripheral>  (839) 
nan

>  <Num_H_Atoms_ProtBoundConf>  (839) 
nan

>  <Num_Resolved_Atoms>  (839) 
nan

>  <Num_Not_Resolved_Atoms>  (839) 
nan

$$$$
CHEMBL1594198
     RDKit          3D

  0  0  0  0  0  0  0  0  0  0999 V3000
M  V30 BEGIN CTAB
M  V30 COUNTS 51 55 0 0 0
M  V30 BEGIN ATOM
M  V30 1 C 0.798656 -4.800120 3.324220 0
M  V30 2 C -0.314253 -5.044972 2.567741 0
M  V30 3 C -0.236229 -4.684460 1.216928 0
M  V30 4 C 0.887131 -4.118389 0.676157 0
M  V30 5 N 1.041093 -3.730371 -0.673154 0
M  V30 6 C 2.239428 -3.130366 -1.226246 0
M  V30 7 C 1.948870 -1.791188 -1.801649 0
M  V30 8 N 0.493376 -1.518205 -1.751581 0
M  V30 9 C 0.119839 -0.326000 -1.080523 0
M  V30 10 N 1.007908 0.707358 -1.169080 0
M  V30 11 N 0.791151 1.898722 -0.657457 0
M  V30 12 C -0.328993 2.230012 0.009744 0
M  V30 13 C -0.434730 3.583865 0.558899 0
M  V30 14 C -0.104851 3.691075 2.004481 0
M  V30 15 C 1.278401 3.682392 2.255662 0
M  V30 16 C 1.829295 3.780699 3.515781 0
M  V30 17 C 0.950121 3.892657 4.570122 0
M  V30 18 N -0.378996 3.904641 4.369182 0
M  V30 19 C -0.885314 3.807570 3.131412 0
M  V30 20 C -1.269109 1.240372 0.139624 0
M  V30 21 C -2.434493 1.478141 0.801396 0
M  V30 22 C -3.363412 0.468711 0.926775 0
M  V30 23 C -3.143377 -0.802514 0.390349 0
M  V30 24 C -1.952113 -0.992715 -0.269727 0
M  V30 25 C -1.022443 0.006333 -0.400726 0
M  V30 26 C -0.149712 -2.585732 -2.477058 0
M  V30 27 C 0.043639 -3.868201 -1.709295 0
M  V30 28 N 1.935844 -3.908759 1.475155 0
M  V30 29 C 1.935098 -4.228686 2.782264 0
M  V30 30 H 0.728811 -5.081988 4.365166 0
M  V30 31 H -1.242194 -5.490943 2.923674 0
M  V30 32 H -1.074710 -4.853998 0.585461 0
M  V30 33 H 2.749897 -3.782584 -1.964257 0
M  V30 34 H 3.011027 -2.968388 -0.418682 0
M  V30 35 H 2.209484 -1.780683 -2.879069 0
M  V30 36 H 2.533124 -0.967665 -1.334100 0
M  V30 37 H 0.288697 4.224987 0.013131 0
M  V30 38 H -1.415836 4.070627 0.334903 0
M  V30 39 H 2.030235 3.595393 1.454978 0
M  V30 40 H 2.897575 3.771737 3.682018 0
M  V30 41 H 1.313372 3.975565 5.606111 0
M  V30 42 H -1.924971 3.823047 2.944747 0
M  V30 43 H -2.590451 2.452518 1.195590 0
M  V30 44 H -4.307394 0.640397 1.455959 0
M  V30 45 H -3.907111 -1.583539 0.510983 0
M  V30 46 H -1.810871 -1.982741 -0.653723 0
M  V30 47 H 0.392299 -2.649318 -3.483414 0
M  V30 48 H -1.191502 -2.385650 -2.790873 0
M  V30 49 H -0.919757 -4.283914 -1.366438 0
M  V30 50 H 0.449783 -4.630464 -2.415323 0
M  V30 51 H 2.746372 -4.080972 3.458423 0
M  V30 END ATOM
M  V30 BEGIN BOND
M  V30 1 2 1 2
M  V30 2 1 2 3
M  V30 3 2 3 4
M  V30 4 1 4 5
M  V30 5 1 5 6
M  V30 6 1 6 7
M  V30 7 1 7 8
M  V30 8 1 8 9
M  V30 9 2 9 10
M  V30 10 1 10 11
M  V30 11 2 11 12
M  V30 12 1 12 13
M  V30 13 1 13 14
M  V30 14 2 14 15
M  V30 15 1 15 16
M  V30 16 2 16 17
M  V30 17 1 17 18
M  V30 18 2 18 19
M  V30 19 1 12 20
M  V30 20 2 20 21
M  V30 21 1 21 22
M  V30 22 2 22 23
M  V30 23 1 23 24
M  V30 24 2 24 25
M  V30 25 1 8 26
M  V30 26 1 26 27
M  V30 27 1 4 28
M  V30 28 2 28 29
M  V30 29 1 29 1
M  V30 30 1 27 5
M  V30 31 1 25 9
M  V30 32 1 19 14
M  V30 33 1 25 20
M  V30 34 1 1 30
M  V30 35 1 2 31
M  V30 36 1 3 32
M  V30 37 1 6 33
M  V30 38 1 6 34
M  V30 39 1 7 35
M  V30 40 1 7 36
M  V30 41 1 13 37
M  V30 42 1 13 38
M  V30 43 1 15 39
M  V30 44 1 16 40
M  V30 45 1 17 41
M  V30 46 1 19 42
M  V30 47 1 21 43
M  V30 48 1 22 44
M  V30 49 1 23 45
M  V30 50 1 24 46
M  V30 51 1 26 47
M  V30 52 1 26 48
M  V30 53 1 27 49
M  V30 54 1 27 50
M  V30 55 1 29 51
M  V30 END BOND
M  V30 END CTAB
M  END
>  <Dataset>  (840) 
ChEMBL_Kinases

>  <Ligand_Instance>  (840) 
nan

>  <PDB_ID>  (840) 
nan

>  <Standardized_SMILES>  (840) 
c1ccc(N2CCN(c3nnc(Cc4cccnc4)c4ccccc34)CC2)nc1

>  <Name>  (840) 
nan

>  <Pocket>  (840) 
nan

>  <ATP_Site>  (840) 
nan

>  <Peripheral>  (840) 
nan

>  <Num_H_Atoms_ProtBoundConf>  (840) 
nan

>  <Num_Resolved_Atoms>  (840) 
nan

>  <Num_Not_Resolved_Atoms>  (840) 
nan

$$$$
CHEMBL1594380
     RDKit          3D

  0  0  0  0  0  0  0  0  0  0999 V3000
M  V30 BEGIN CTAB
M  V30 COUNTS 50 53 0 0 0
M  V30 BEGIN ATOM
M  V30 1 O -3.437562 -1.631134 1.222892 0
M  V30 2 C -2.820435 -1.484981 0.140190 0
M  V30 3 C -1.592302 -0.742539 0.459548 0
M  V30 4 S -0.570634 -0.459667 -1.027032 0
M  V30 5 C 0.893564 0.421249 -0.488547 0
M  V30 6 C 1.235606 1.750286 -0.350275 0
M  V30 7 N 2.501268 1.838467 0.107690 0
M  V30 8 C 3.174915 3.097497 0.365133 0
M  V30 9 C 2.969700 3.573978 1.759831 0
M  V30 10 C 3.843933 3.213108 2.764942 0
M  V30 11 C 3.659341 3.650801 4.059953 0
M  V30 12 C 2.573186 4.461670 4.323157 0
M  V30 13 C 1.679407 4.835727 3.316656 0
M  V30 14 F 0.605186 5.629864 3.540994 0
M  V30 15 C 1.885246 4.385508 2.029759 0
M  V30 16 C 2.984558 0.592981 0.268469 0
M  V30 17 C 4.216251 0.144373 0.708629 0
M  V30 18 C 4.518951 -1.216652 0.803306 0
M  V30 19 C 3.553527 -2.124395 0.444798 0
M  V30 20 C 2.331368 -1.660995 0.008271 0
M  V30 21 C 2.013709 -0.320528 -0.092274 0
M  V30 22 N -3.254471 -1.954639 -1.106021 0
M  V30 23 C -4.495731 -2.691795 -1.319986 0
M  V30 24 C -4.298234 -4.081685 -0.869989 0
M  V30 25 C -4.538880 -4.601825 0.372941 0
M  V30 26 C -4.318987 -5.919401 0.715290 0
M  V30 27 C -3.820039 -6.770068 -0.271709 0
M  V30 28 F -3.602120 -8.077628 0.069582 0
M  V30 29 C -3.568138 -6.273099 -1.533345 0
M  V30 30 C -3.803379 -4.931201 -1.843944 0
M  V30 31 H -1.763042 0.201232 1.017172 0
M  V30 32 H -0.968929 -1.409628 1.126899 0
M  V30 33 H 0.503008 2.502207 -0.606094 0
M  V30 34 H 4.274647 2.976599 0.150900 0
M  V30 35 H 2.806464 3.858559 -0.374503 0
M  V30 36 H 4.702539 2.580360 2.586527 0
M  V30 37 H 4.350600 3.363027 4.843575 0
M  V30 38 H 2.409420 4.816014 5.331481 0
M  V30 39 H 1.195913 4.670986 1.240153 0
M  V30 40 H 5.019522 0.809440 1.005415 0
M  V30 41 H 5.466349 -1.613664 1.140650 0
M  V30 42 H 3.725323 -3.183936 0.495912 0
M  V30 43 H 1.592691 -2.390530 -0.266337 0
M  V30 44 H -2.629389 -1.745110 -1.895013 0
M  V30 45 H -4.865283 -2.626463 -2.340772 0
M  V30 46 H -5.233370 -2.231018 -0.597437 0
M  V30 47 H -4.926993 -3.919881 1.112824 0
M  V30 48 H -4.542294 -6.247282 1.742477 0
M  V30 49 H -3.184139 -6.993746 -2.238271 0
M  V30 50 H -3.550320 -4.711882 -2.885201 0
M  V30 END ATOM
M  V30 BEGIN BOND
M  V30 1 2 1 2
M  V30 2 1 2 3
M  V30 3 1 3 4
M  V30 4 1 4 5
M  V30 5 2 5 6
M  V30 6 1 6 7
M  V30 7 1 7 8
M  V30 8 1 8 9
M  V30 9 2 9 10
M  V30 10 1 10 11
M  V30 11 2 11 12
M  V30 12 1 12 13
M  V30 13 1 13 14
M  V30 14 2 13 15
M  V30 15 1 7 16
M  V30 16 2 16 17
M  V30 17 1 17 18
M  V30 18 2 18 19
M  V30 19 1 19 20
M  V30 20 2 20 21
M  V30 21 1 2 22
M  V30 22 1 22 23
M  V30 23 1 23 24
M  V30 24 2 24 25
M  V30 25 1 25 26
M  V30 26 2 26 27
M  V30 27 1 27 28
M  V30 28 1 27 29
M  V30 29 2 29 30
M  V30 30 1 21 5
M  V30 31 1 30 24
M  V30 32 1 15 9
M  V30 33 1 21 16
M  V30 34 1 3 31
M  V30 35 1 3 32
M  V30 36 1 6 33
M  V30 37 1 8 34
M  V30 38 1 8 35
M  V30 39 1 10 36
M  V30 40 1 11 37
M  V30 41 1 12 38
M  V30 42 1 15 39
M  V30 43 1 17 40
M  V30 44 1 18 41
M  V30 45 1 19 42
M  V30 46 1 20 43
M  V30 47 1 22 44
M  V30 48 1 23 45
M  V30 49 1 23 46
M  V30 50 1 25 47
M  V30 51 1 26 48
M  V30 52 1 29 49
M  V30 53 1 30 50
M  V30 END BOND
M  V30 END CTAB
M  END
>  <Dataset>  (841) 
ChEMBL_Kinases

>  <Ligand_Instance>  (841) 
nan

>  <PDB_ID>  (841) 
nan

>  <Standardized_SMILES>  (841) 
O=C(CSc1cn(Cc2cccc(F)c2)c2ccccc12)NCc1ccc(F)cc1

>  <Name>  (841) 
nan

>  <Pocket>  (841) 
nan

>  <ATP_Site>  (841) 
nan

>  <Peripheral>  (841) 
nan

>  <Num_H_Atoms_ProtBoundConf>  (841) 
nan

>  <Num_Resolved_Atoms>  (841) 
nan

>  <Num_Not_Resolved_Atoms>  (841) 
nan

$$$$
CHEMBL1594397
     RDKit          3D

  0  0  0  0  0  0  0  0  0  0999 V3000
M  V30 BEGIN CTAB
M  V30 COUNTS 51 53 0 0 0
M  V30 BEGIN ATOM
M  V30 1 C -1.434377 -5.121280 2.815167 0
M  V30 2 O -1.830699 -3.891296 2.289724 0
M  V30 3 C -1.007240 -2.839547 1.954132 0
M  V30 4 C 0.345459 -3.007168 2.156272 0
M  V30 5 C 1.244110 -2.006532 1.853345 0
M  V30 6 C 0.745420 -0.828277 1.339626 0
M  V30 7 C 1.583874 0.313870 0.961852 0
M  V30 8 O 1.095982 1.426174 0.564295 0
M  V30 9 N 2.998146 0.309565 0.993738 0
M  V30 10 C 3.486702 1.575954 0.563296 0
M  V30 11 C 3.680393 1.634669 -0.805514 0
M  V30 12 C 4.159325 2.801998 -1.412548 0
M  V30 13 C 4.428881 3.892350 -0.578874 0
M  V30 14 C 4.236842 3.837857 0.788559 0
M  V30 15 C 4.528849 4.996093 1.624093 0
M  V30 16 C 4.304907 4.891483 3.103548 0
M  V30 17 O 4.950722 5.992357 1.003725 0
M  V30 18 C 3.764759 2.669918 1.342108 0
M  V30 19 C -0.614189 -0.700149 1.151815 0
M  V30 20 C -1.547533 -1.678949 1.442069 0
M  V30 21 S -3.252118 -1.427994 1.121178 0
M  V30 22 O -4.047580 -1.581915 2.404641 0
M  V30 23 O -3.414134 0.043583 0.746245 0
M  V30 24 N -3.916695 -2.352631 -0.092135 0
M  V30 25 C -3.910281 -3.762963 0.046838 0
M  V30 26 C -4.697741 -4.389280 -1.116879 0
M  V30 27 O -3.923202 -4.186571 -2.237786 0
M  V30 28 C -3.621903 -2.884518 -2.472464 0
M  V30 29 C -3.925810 -1.876389 -1.423096 0
M  V30 30 H -0.660774 -5.638662 2.237376 0
M  V30 31 H -1.129757 -5.061064 3.885078 0
M  V30 32 H -2.323912 -5.799488 2.819608 0
M  V30 33 H 0.722816 -3.939561 2.560600 0
M  V30 34 H 2.306732 -2.109415 1.998984 0
M  V30 35 H 3.463190 -0.583691 1.314026 0
M  V30 36 H 3.497100 0.839499 -1.516904 0
M  V30 37 H 4.318270 2.864406 -2.499455 0
M  V30 38 H 4.802438 4.796200 -1.066750 0
M  V30 39 H 5.034828 4.155238 3.531812 0
M  V30 40 H 3.294798 4.397716 3.210425 0
M  V30 41 H 4.299820 5.853224 3.614725 0
M  V30 42 H 3.590231 2.549850 2.396467 0
M  V30 43 H -1.008262 0.237679 0.743978 0
M  V30 44 H -2.858141 -4.138013 -0.145265 0
M  V30 45 H -4.232408 -4.181005 0.995221 0
M  V30 46 H -4.808073 -5.461971 -0.888520 0
M  V30 47 H -5.713043 -3.934506 -1.211490 0
M  V30 48 H -2.542523 -2.839060 -2.804638 0
M  V30 49 H -4.190464 -2.590897 -3.410476 0
M  V30 50 H -4.882503 -1.324382 -1.663863 0
M  V30 51 H -3.143525 -1.069218 -1.503249 0
M  V30 END ATOM
M  V30 BEGIN BOND
M  V30 1 1 1 2
M  V30 2 1 2 3
M  V30 3 2 3 4
M  V30 4 1 4 5
M  V30 5 2 5 6
M  V30 6 1 6 7
M  V30 7 2 7 8
M  V30 8 1 7 9
M  V30 9 1 9 10
M  V30 10 2 10 11
M  V30 11 1 11 12
M  V30 12 2 12 13
M  V30 13 1 13 14
M  V30 14 1 14 15
M  V30 15 1 15 16
M  V30 16 2 15 17
M  V30 17 2 14 18
M  V30 18 1 6 19
M  V30 19 2 19 20
M  V30 20 1 20 21
M  V30 21 2 21 22
M  V30 22 2 21 23
M  V30 23 1 21 24
M  V30 24 1 24 25
M  V30 25 1 25 26
M  V30 26 1 26 27
M  V30 27 1 27 28
M  V30 28 1 28 29
M  V30 29 1 20 3
M  V30 30 1 29 24
M  V30 31 1 18 10
M  V30 32 1 1 30
M  V30 33 1 1 31
M  V30 34 1 1 32
M  V30 35 1 4 33
M  V30 36 1 5 34
M  V30 37 1 9 35
M  V30 38 1 11 36
M  V30 39 1 12 37
M  V30 40 1 13 38
M  V30 41 1 16 39
M  V30 42 1 16 40
M  V30 43 1 16 41
M  V30 44 1 18 42
M  V30 45 1 19 43
M  V30 46 1 25 44
M  V30 47 1 25 45
M  V30 48 1 26 46
M  V30 49 1 26 47
M  V30 50 1 28 48
M  V30 51 1 28 49
M  V30 52 1 29 50
M  V30 53 1 29 51
M  V30 END BOND
M  V30 END CTAB
M  END
>  <Dataset>  (842) 
ChEMBL_Kinases

>  <Ligand_Instance>  (842) 
nan

>  <PDB_ID>  (842) 
nan

>  <Standardized_SMILES>  (842) 
COc1ccc(C(=O)Nc2cccc(C(C)=O)c2)cc1S(=O)(=O)N1CCOCC1

>  <Name>  (842) 
nan

>  <Pocket>  (842) 
nan

>  <ATP_Site>  (842) 
nan

>  <Peripheral>  (842) 
nan

>  <Num_H_Atoms_ProtBoundConf>  (842) 
nan

>  <Num_Resolved_Atoms>  (842) 
nan

>  <Num_Not_Resolved_Atoms>  (842) 
nan

$$$$
CHEMBL1595142
     RDKit          3D

  0  0  0  0  0  0  0  0  0  0999 V3000
M  V30 BEGIN CTAB
M  V30 COUNTS 43 46 0 0 0
M  V30 BEGIN ATOM
M  V30 1 C -2.843251 -4.413259 -0.128100 0
M  V30 2 C -1.533828 -5.060413 0.230112 0
M  V30 3 N -0.422604 -4.655876 -0.572916 0
M  V30 4 C -0.130005 -3.266024 -0.586623 0
M  V30 5 N -0.261702 -2.709210 -1.819903 0
M  V30 6 C -0.021399 -1.379586 -2.020109 0
M  V30 7 C 0.363059 -0.577561 -0.950308 0
M  V30 8 N 0.625915 0.730227 -1.018173 0
M  V30 9 C 0.994594 1.500444 0.012657 0
M  V30 10 C 1.258767 2.919363 -0.176863 0
M  V30 11 C 2.008924 3.345183 -1.274620 0
M  V30 12 C 2.321362 4.683669 -1.548244 0
M  V30 13 C 1.818453 5.578430 -0.624472 0
M  V30 14 F 2.129018 6.881827 -0.903173 0
M  V30 15 C 1.067177 5.280404 0.494354 0
M  V30 16 C 0.832655 3.936155 0.645859 0
M  V30 17 C 1.096249 0.838211 1.219477 0
M  V30 18 O 1.438576 1.494886 2.236514 0
M  V30 19 N 0.853557 -0.468864 1.383879 0
M  V30 20 C 0.956154 -1.128052 2.656325 0
M  V30 21 C 2.152423 -1.274535 3.352932 0
M  V30 22 C 1.987259 -1.947792 4.562718 0
M  V30 23 C 0.814534 -2.440612 5.078403 0
M  V30 24 C -0.318059 -2.250403 4.321308 0
M  V30 25 C -0.249600 -1.593578 3.108398 0
M  V30 26 C 0.482982 -1.175591 0.274613 0
M  V30 27 N 0.246208 -2.502364 0.482571 0
M  V30 28 H -3.473984 -4.448434 0.794001 0
M  V30 29 H -2.710458 -3.317302 -0.349160 0
M  V30 30 H -3.290924 -4.896485 -1.002011 0
M  V30 31 H -1.260118 -4.884375 1.299525 0
M  V30 32 H -1.679837 -6.158043 0.126216 0
M  V30 33 H 0.190037 -5.306433 -1.153523 0
M  V30 34 H -0.113694 -0.903602 -2.982358 0
M  V30 35 H 2.378124 2.603286 -1.968573 0
M  V30 36 H 2.904459 4.974502 -2.406567 0
M  V30 37 H 0.718467 6.039416 1.161727 0
M  V30 38 H 0.246660 3.609053 1.505473 0
M  V30 39 H 3.057020 -0.879617 2.927194 0
M  V30 40 H 2.917720 -2.079841 5.139536 0
M  V30 41 H 0.874747 -2.941526 6.042843 0
M  V30 42 H -1.252956 -2.635942 4.716768 0
M  V30 43 H -1.197714 -1.499118 2.601084 0
M  V30 END ATOM
M  V30 BEGIN BOND
M  V30 1 1 1 2
M  V30 2 1 2 3
M  V30 3 1 3 4
M  V30 4 2 4 5
M  V30 5 1 5 6
M  V30 6 2 6 7
M  V30 7 1 7 8
M  V30 8 2 8 9
M  V30 9 1 9 10
M  V30 10 2 10 11
M  V30 11 1 11 12
M  V30 12 2 12 13
M  V30 13 1 13 14
M  V30 14 1 13 15
M  V30 15 2 15 16
M  V30 16 1 9 17
M  V30 17 2 17 18
M  V30 18 1 17 19
M  V30 19 1 19 20
M  V30 20 2 20 21
M  V30 21 1 21 22
M  V30 22 2 22 23
M  V30 23 1 23 24
M  V30 24 2 24 25
M  V30 25 1 19 26
M  V30 26 2 26 27
M  V30 27 1 27 4
M  V30 28 1 26 7
M  V30 29 1 16 10
M  V30 30 1 25 20
M  V30 31 1 1 28
M  V30 32 1 1 29
M  V30 33 1 1 30
M  V30 34 1 2 31
M  V30 35 1 2 32
M  V30 36 1 3 33
M  V30 37 1 6 34
M  V30 38 1 11 35
M  V30 39 1 12 36
M  V30 40 1 15 37
M  V30 41 1 16 38
M  V30 42 1 21 39
M  V30 43 1 22 40
M  V30 44 1 23 41
M  V30 45 1 24 42
M  V30 46 1 25 43
M  V30 END BOND
M  V30 END CTAB
M  END
>  <Dataset>  (843) 
ChEMBL_Kinases

>  <Ligand_Instance>  (843) 
nan

>  <PDB_ID>  (843) 
nan

>  <Standardized_SMILES>  (843) 
CCNc1ncc2nc(-c3ccc(F)cc3)c(=O)n(-c3ccccc3)c2n1

>  <Name>  (843) 
nan

>  <Pocket>  (843) 
nan

>  <ATP_Site>  (843) 
nan

>  <Peripheral>  (843) 
nan

>  <Num_H_Atoms_ProtBoundConf>  (843) 
nan

>  <Num_Resolved_Atoms>  (843) 
nan

>  <Num_Not_Resolved_Atoms>  (843) 
nan

$$$$
CHEMBL1594540
     RDKit          3D

  0  0  0  0  0  0  0  0  0  0999 V3000
M  V30 BEGIN CTAB
M  V30 COUNTS 43 47 0 0 0
M  V30 BEGIN ATOM
M  V30 1 O 4.406458 -4.176943 3.260710 0
M  V30 2 C 4.003064 -3.131398 2.447050 0
M  V30 3 C 4.065000 -3.118085 1.080845 0
M  V30 4 C 3.678851 -2.109333 0.233073 0
M  V30 5 C 3.167367 -0.977936 0.869207 0
M  V30 6 C 2.740398 0.122830 0.013509 0
M  V30 7 N 3.436920 0.603474 -1.045471 0
M  V30 8 C 2.752366 1.617015 -1.609704 0
M  V30 9 N 2.953550 2.454134 -2.670791 0
M  V30 10 C 2.050196 3.410643 -3.004721 0
M  V30 11 C 0.897122 3.547409 -2.258752 0
M  V30 12 C 0.644678 2.727966 -1.176977 0
M  V30 13 N 1.605825 1.817370 -0.937338 0
M  V30 14 C 1.597069 0.892739 0.068439 0
M  V30 15 N 0.616446 0.669397 1.074653 0
M  V30 16 C -0.501928 -0.208912 1.051980 0
M  V30 17 C -0.722972 -0.980593 -0.066514 0
M  V30 18 C -1.840792 -1.797441 0.029910 0
M  V30 19 C -2.660979 -1.844775 1.129668 0
M  V30 20 C -2.393572 -1.048962 2.226189 0
M  V30 21 C -1.287226 -0.220189 2.168551 0
M  V30 22 O -3.234052 -1.116040 3.318819 0
M  V30 23 C -4.623205 -1.304774 3.104635 0
M  V30 24 C -4.909400 -2.245424 1.977267 0
M  V30 25 O -3.775151 -2.647869 1.246352 0
M  V30 26 C 3.068504 -0.906475 2.257325 0
M  V30 27 C 3.485005 -1.980455 3.049440 0
M  V30 28 H 3.694222 -4.710879 3.751730 0
M  V30 29 H 4.471550 -4.020327 0.607607 0
M  V30 30 H 3.782433 -2.229020 -0.833960 0
M  V30 31 H 2.312101 4.015370 -3.862254 0
M  V30 32 H 0.189544 4.315270 -2.540883 0
M  V30 33 H -0.236027 2.799835 -0.571866 0
M  V30 34 H 0.861144 1.286658 1.875607 0
M  V30 35 H -0.082191 -0.943221 -0.925810 0
M  V30 36 H -2.095099 -2.439719 -0.798596 0
M  V30 37 H -1.060453 0.418553 3.031121 0
M  V30 38 H -5.053477 -0.311544 2.853972 0
M  V30 39 H -5.081586 -1.653912 4.036956 0
M  V30 40 H -5.428634 -3.171645 2.317008 0
M  V30 41 H -5.616908 -1.784811 1.243947 0
M  V30 42 H 2.672355 -0.028068 2.738453 0
M  V30 43 H 3.426448 -1.969293 4.128405 0
M  V30 END ATOM
M  V30 BEGIN BOND
M  V30 1 1 1 2
M  V30 2 2 2 3
M  V30 3 1 3 4
M  V30 4 2 4 5
M  V30 5 1 5 6
M  V30 6 1 6 7
M  V30 7 2 7 8
M  V30 8 1 8 9
M  V30 9 2 9 10
M  V30 10 1 10 11
M  V30 11 2 11 12
M  V30 12 1 12 13
M  V30 13 1 13 14
M  V30 14 1 14 15
M  V30 15 1 15 16
M  V30 16 2 16 17
M  V30 17 1 17 18
M  V30 18 2 18 19
M  V30 19 1 19 20
M  V30 20 2 20 21
M  V30 21 1 20 22
M  V30 22 1 22 23
M  V30 23 1 23 24
M  V30 24 1 24 25
M  V30 25 1 5 26
M  V30 26 2 26 27
M  V30 27 1 27 2
M  V30 28 2 14 6
M  V30 29 1 21 16
M  V30 30 1 13 8
M  V30 31 1 25 19
M  V30 32 1 1 28
M  V30 33 1 3 29
M  V30 34 1 4 30
M  V30 35 1 10 31
M  V30 36 1 11 32
M  V30 37 1 12 33
M  V30 38 1 15 34
M  V30 39 1 17 35
M  V30 40 1 18 36
M  V30 41 1 21 37
M  V30 42 1 23 38
M  V30 43 1 23 39
M  V30 44 1 24 40
M  V30 45 1 24 41
M  V30 46 1 26 42
M  V30 47 1 27 43
M  V30 END BOND
M  V30 END CTAB
M  END
>  <Dataset>  (844) 
ChEMBL_Kinases

>  <Ligand_Instance>  (844) 
nan

>  <PDB_ID>  (844) 
nan

>  <Standardized_SMILES>  (844) 
Oc1ccc(-c2nc3ncccn3c2Nc2ccc3c(c2)OCCO3)cc1

>  <Name>  (844) 
nan

>  <Pocket>  (844) 
nan

>  <ATP_Site>  (844) 
nan

>  <Peripheral>  (844) 
nan

>  <Num_H_Atoms_ProtBoundConf>  (844) 
nan

>  <Num_Resolved_Atoms>  (844) 
nan

>  <Num_Not_Resolved_Atoms>  (844) 
nan

$$$$
CHEMBL1594612
     RDKit          3D

  0  0  0  0  0  0  0  0  0  0999 V3000
M  V30 BEGIN CTAB
M  V30 COUNTS 31 33 0 0 0
M  V30 BEGIN ATOM
M  V30 1 C -0.226640 -1.505113 3.895921 0
M  V30 2 O -0.078177 -1.455192 2.505168 0
M  V30 3 C 0.092511 -2.591913 1.753552 0
M  V30 4 C 0.114982 -3.803285 2.408204 0
M  V30 5 C 0.283195 -4.969544 1.700161 0
M  V30 6 C 0.423248 -4.850814 0.337168 0
M  V30 7 C 0.397151 -3.626504 -0.293563 0
M  V30 8 C 0.229366 -2.441184 0.397044 0
M  V30 9 C 0.220298 -1.222790 -0.384839 0
M  V30 10 C 0.072507 0.069028 0.048317 0
M  V30 11 C 0.073646 1.184865 -0.753854 0
M  V30 12 N -0.088082 2.486815 -0.200723 0
M  V30 13 C 1.032228 3.258678 -0.298530 0
M  V30 14 C 0.746700 4.491137 0.271430 0
M  V30 15 N -0.518586 4.439851 0.694784 0
M  V30 16 C -1.036034 3.230121 0.414576 0
M  V30 17 N 0.234707 0.998714 -2.092788 0
M  V30 18 C 0.384311 -0.272947 -2.556812 0
M  V30 19 N 0.373636 -1.319448 -1.716733 0
M  V30 20 H 0.755930 -1.754765 4.361783 0
M  V30 21 H -0.546780 -0.529146 4.313020 0
M  V30 22 H -1.009030 -2.232225 4.242786 0
M  V30 23 H -0.000058 -3.832036 3.479108 0
M  V30 24 H 0.292175 -5.882983 2.266481 0
M  V30 25 H 0.555347 -5.766609 -0.218960 0
M  V30 26 H 0.520720 -3.678913 -1.384502 0
M  V30 27 H -0.054486 0.247461 1.081611 0
M  V30 28 H 2.043064 3.133547 -0.700088 0
M  V30 29 H 1.345429 5.392916 0.405754 0
M  V30 30 H -1.992233 2.722636 0.555759 0
M  V30 31 H 0.513593 -0.444670 -3.615771 0
M  V30 END ATOM
M  V30 BEGIN BOND
M  V30 1 1 1 2
M  V30 2 1 2 3
M  V30 3 2 3 4
M  V30 4 1 4 5
M  V30 5 2 5 6
M  V30 6 1 6 7
M  V30 7 2 7 8
M  V30 8 1 8 9
M  V30 9 2 9 10
M  V30 10 1 10 11
M  V30 11 1 11 12
M  V30 12 1 12 13
M  V30 13 2 13 14
M  V30 14 1 14 15
M  V30 15 2 15 16
M  V30 16 2 11 17
M  V30 17 1 17 18
M  V30 18 2 18 19
M  V30 19 1 8 3
M  V30 20 1 19 9
M  V30 21 1 16 12
M  V30 22 1 1 20
M  V30 23 1 1 21
M  V30 24 1 1 22
M  V30 25 1 4 23
M  V30 26 1 5 24
M  V30 27 1 6 25
M  V30 28 1 7 26
M  V30 29 1 10 27
M  V30 30 1 13 28
M  V30 31 1 14 29
M  V30 32 1 16 30
M  V30 33 1 18 31
M  V30 END BOND
M  V30 END CTAB
M  END
>  <Dataset>  (845) 
ChEMBL_Kinases

>  <Ligand_Instance>  (845) 
nan

>  <PDB_ID>  (845) 
nan

>  <Standardized_SMILES>  (845) 
COc1ccccc1-c1cc(-n2ccnc2)ncn1

>  <Name>  (845) 
nan

>  <Pocket>  (845) 
nan

>  <ATP_Site>  (845) 
nan

>  <Peripheral>  (845) 
nan

>  <Num_H_Atoms_ProtBoundConf>  (845) 
nan

>  <Num_Resolved_Atoms>  (845) 
nan

>  <Num_Not_Resolved_Atoms>  (845) 
nan

$$$$
CHEMBL1594650
     RDKit          3D

  0  0  0  0  0  0  0  0  0  0999 V3000
M  V30 BEGIN CTAB
M  V30 COUNTS 46 48 0 0 0
M  V30 BEGIN ATOM
M  V30 1 C 1.458611 -1.467304 8.438155 0
M  V30 2 C 1.968770 -2.225994 7.207008 0
M  V30 3 O 1.866214 -1.348500 6.119621 0
M  V30 4 C 2.238919 -1.682635 4.824701 0
M  V30 5 O 2.578011 -2.831164 5.200484 0
M  V30 6 C 2.154741 -0.813262 3.657607 0
M  V30 7 C 1.660067 0.460564 3.849126 0
M  V30 8 C 1.619546 1.204979 2.688452 0
M  V30 9 C 2.029908 0.730771 1.459428 0
M  V30 10 N 1.937417 1.604078 0.330053 0
M  V30 11 C 0.806983 1.728368 -0.539212 0
M  V30 12 O -0.100302 0.946857 -0.156230 0
M  V30 13 C 1.092814 2.724713 -1.579496 0
M  V30 14 C -0.112475 2.873386 -2.514535 0
M  V30 15 C -0.425815 1.580519 -3.172674 0
M  V30 16 N -1.254749 0.646215 -2.704109 0
M  V30 17 C -1.307101 -0.402341 -3.554060 0
M  V30 18 C -2.119286 -1.593018 -3.339460 0
M  V30 19 C -3.451811 -1.312018 -3.029972 0
M  V30 20 C -4.384432 -2.302869 -2.790802 0
M  V30 21 C -3.985611 -3.636153 -2.859714 0
M  V30 22 Cl -5.068955 -5.000032 -2.577596 0
M  V30 23 C -2.669208 -3.911810 -3.165489 0
M  V30 24 C -1.740498 -2.920665 -3.403736 0
M  V30 25 N -0.475526 -0.060870 -4.553728 0
M  V30 26 O 0.035764 1.101754 -4.321553 0
M  V30 27 C 2.513901 -0.557115 1.348783 0
M  V30 28 C 2.584640 -1.362907 2.467103 0
M  V30 29 H 1.592139 -2.167666 9.299044 0
M  V30 30 H 2.031723 -0.564185 8.653793 0
M  V30 31 H 0.405278 -1.178583 8.317451 0
M  V30 32 H 2.955459 -2.654873 7.384782 0
M  V30 33 H 1.200334 -3.023324 7.024292 0
M  V30 34 H 1.346504 0.803383 4.823118 0
M  V30 35 H 1.235719 2.232029 2.766512 0
M  V30 36 H 2.867112 2.092987 0.320422 0
M  V30 37 H 1.251484 3.701022 -1.079040 0
M  V30 38 H 1.972804 2.438703 -2.211758 0
M  V30 39 H -0.995435 3.167280 -1.901005 0
M  V30 40 H 0.076804 3.658025 -3.272373 0
M  V30 41 H -3.859080 -0.305527 -2.952950 0
M  V30 42 H -5.412497 -2.108929 -2.551720 0
M  V30 43 H -2.320706 -4.928482 -3.228510 0
M  V30 44 H -0.707913 -3.059769 -3.645020 0
M  V30 45 H 2.840003 -0.947505 0.397393 0
M  V30 46 H 2.958028 -2.374605 2.415315 0
M  V30 END ATOM
M  V30 BEGIN BOND
M  V30 1 1 1 2
M  V30 2 1 2 3
M  V30 3 1 3 4
M  V30 4 2 4 5
M  V30 5 1 4 6
M  V30 6 2 6 7
M  V30 7 1 7 8
M  V30 8 2 8 9
M  V30 9 1 9 10
M  V30 10 1 10 11
M  V30 11 2 11 12
M  V30 12 1 11 13
M  V30 13 1 13 14
M  V30 14 1 14 15
M  V30 15 2 15 16
M  V30 16 1 16 17
M  V30 17 1 17 18
M  V30 18 2 18 19
M  V30 19 1 19 20
M  V30 20 2 20 21
M  V30 21 1 21 22
M  V30 22 1 21 23
M  V30 23 2 23 24
M  V30 24 2 17 25
M  V30 25 1 25 26
M  V30 26 1 9 27
M  V30 27 2 27 28
M  V30 28 1 28 6
M  V30 29 1 26 15
M  V30 30 1 24 18
M  V30 31 1 1 29
M  V30 32 1 1 30
M  V30 33 1 1 31
M  V30 34 1 2 32
M  V30 35 1 2 33
M  V30 36 1 7 34
M  V30 37 1 8 35
M  V30 38 1 10 36
M  V30 39 1 13 37
M  V30 40 1 13 38
M  V30 41 1 14 39
M  V30 42 1 14 40
M  V30 43 1 19 41
M  V30 44 1 20 42
M  V30 45 1 23 43
M  V30 46 1 24 44
M  V30 47 1 27 45
M  V30 48 1 28 46
M  V30 END BOND
M  V30 END CTAB
M  END
>  <Dataset>  (846) 
ChEMBL_Kinases

>  <Ligand_Instance>  (846) 
nan

>  <PDB_ID>  (846) 
nan

>  <Standardized_SMILES>  (846) 
CCOC(=O)c1ccc(NC(=O)CCc2nc(-c3ccc(Cl)cc3)no2)cc1

>  <Name>  (846) 
nan

>  <Pocket>  (846) 
nan

>  <ATP_Site>  (846) 
nan

>  <Peripheral>  (846) 
nan

>  <Num_H_Atoms_ProtBoundConf>  (846) 
nan

>  <Num_Resolved_Atoms>  (846) 
nan

>  <Num_Not_Resolved_Atoms>  (846) 
nan

$$$$
CHEMBL1594707
     RDKit          3D

  0  0  0  0  0  0  0  0  0  0999 V3000
M  V30 BEGIN CTAB
M  V30 COUNTS 39 43 0 0 0
M  V30 BEGIN ATOM
M  V30 1 C 0.666924 -4.377014 3.682133 0
M  V30 2 C 1.506541 -3.589804 2.925998 0
M  V30 3 C 1.229451 -2.244121 2.801267 0
M  V30 4 C 0.125172 -1.696108 3.426637 0
M  V30 5 C -0.157597 -0.264825 3.285814 0
M  V30 6 C -1.031707 0.030706 2.111555 0
M  V30 7 N -1.030540 0.267895 1.016682 0
M  V30 8 N -1.945673 0.502861 0.141549 0
M  V30 9 C -2.115280 0.793495 -1.161899 0
M  V30 10 C -1.081872 0.975776 -2.235021 0
M  V30 11 C -0.358507 2.298235 -2.117817 0
M  V30 12 O 0.432083 2.284730 -0.957382 0
M  V30 13 C 1.452442 1.358136 -0.848726 0
M  V30 14 C 2.701462 1.462809 -0.223203 0
M  V30 15 C 3.550466 0.377320 -0.257607 0
M  V30 16 C 3.181703 -0.788917 -0.893413 0
M  V30 17 C 1.940041 -0.921856 -1.526680 0
M  V30 18 C 1.090519 0.188532 -1.482585 0
M  V30 19 O -0.108912 -0.045935 -2.136209 0
M  V30 20 N -3.454014 0.913513 -1.410332 0
M  V30 21 N -4.148194 0.708055 -0.302875 0
M  V30 22 C -3.178792 0.460156 0.620487 0
M  V30 23 S -2.914850 0.069849 2.361447 0
M  V30 24 C -0.739860 -2.453103 4.193063 0
M  V30 25 C -0.428912 -3.806549 4.296512 0
M  V30 26 H 0.907694 -5.415912 3.760109 0
M  V30 27 H 2.389626 -3.932675 2.403668 0
M  V30 28 H 1.874159 -1.582572 2.207363 0
M  V30 29 H -0.564517 0.192402 4.212213 0
M  V30 30 H 0.792405 0.261581 3.064677 0
M  V30 31 H -1.567118 0.913423 -3.246113 0
M  V30 32 H 0.324670 2.336171 -3.002731 0
M  V30 33 H -1.062314 3.159093 -2.140337 0
M  V30 34 H 2.839834 2.435565 0.228005 0
M  V30 35 H 4.486164 0.539813 0.244411 0
M  V30 36 H 3.928161 -1.588992 -0.862399 0
M  V30 37 H 1.703341 -1.859782 -2.010022 0
M  V30 38 H -1.615424 -2.102869 4.708544 0
M  V30 39 H -1.031809 -4.499887 4.869330 0
M  V30 END ATOM
M  V30 BEGIN BOND
M  V30 1 2 1 2
M  V30 2 1 2 3
M  V30 3 2 3 4
M  V30 4 1 4 5
M  V30 5 1 5 6
M  V30 6 2 6 7
M  V30 7 1 7 8
M  V30 8 1 8 9
M  V30 9 1 9 10
M  V30 10 1 10 11
M  V30 11 1 11 12
M  V30 12 1 12 13
M  V30 13 2 13 14
M  V30 14 1 14 15
M  V30 15 2 15 16
M  V30 16 1 16 17
M  V30 17 2 17 18
M  V30 18 1 18 19
M  V30 19 2 9 20
M  V30 20 1 20 21
M  V30 21 2 21 22
M  V30 22 1 22 23
M  V30 23 1 4 24
M  V30 24 2 24 25
M  V30 25 1 25 1
M  V30 26 1 23 6
M  V30 27 1 22 8
M  V30 28 1 19 10
M  V30 29 1 18 13
M  V30 30 1 1 26
M  V30 31 1 2 27
M  V30 32 1 3 28
M  V30 33 1 5 29
M  V30 34 1 5 30
M  V30 35 1 10 31
M  V30 36 1 11 32
M  V30 37 1 11 33
M  V30 38 1 14 34
M  V30 39 1 15 35
M  V30 40 1 16 36
M  V30 41 1 17 37
M  V30 42 1 24 38
M  V30 43 1 25 39
M  V30 END BOND
M  V30 END CTAB
M  END
>  <Dataset>  (847) 
ChEMBL_Kinases

>  <Ligand_Instance>  (847) 
nan

>  <PDB_ID>  (847) 
nan

>  <Standardized_SMILES>  (847) 
c1ccc(Cc2nn3c(C4COc5ccccc5O4)nnc3s2)cc1

>  <Name>  (847) 
nan

>  <Pocket>  (847) 
nan

>  <ATP_Site>  (847) 
nan

>  <Peripheral>  (847) 
nan

>  <Num_H_Atoms_ProtBoundConf>  (847) 
nan

>  <Num_Resolved_Atoms>  (847) 
nan

>  <Num_Not_Resolved_Atoms>  (847) 
nan

$$$$
CHEMBL1594876
     RDKit          3D

  0  0  0  0  0  0  0  0  0  0999 V3000
M  V30 BEGIN CTAB
M  V30 COUNTS 51 53 0 0 0
M  V30 BEGIN ATOM
M  V30 1 C -1.352981 -4.680141 -0.305270 0
M  V30 2 N -0.870372 -3.734000 -1.253839 0
M  V30 3 C -1.771037 -2.777408 -1.747490 0
M  V30 4 C -1.245192 -1.371456 -1.850719 0
M  V30 5 C -0.714962 -0.878011 -0.551047 0
M  V30 6 O -1.224184 0.106847 0.070854 0
M  V30 7 N 0.406555 -1.395434 0.197472 0
M  V30 8 C 1.078112 -0.620685 1.196151 0 CFG=2
M  V30 9 C 2.522918 -0.361897 0.955273 0
M  V30 10 S 2.871077 0.539030 -0.574920 0
M  V30 11 C 2.234828 2.185425 -0.466714 0
M  V30 12 C 1.018569 2.689638 -0.814223 0
M  V30 13 C 0.718941 4.026558 -0.645133 0
M  V30 14 C 1.646301 4.917725 -0.112155 0
M  V30 15 Br 1.207001 6.750888 0.108619 0
M  V30 16 C 2.889778 4.420629 0.246982 0
M  V30 17 C 3.178743 3.070257 0.071010 0
M  V30 18 C 0.875296 -1.161330 2.600790 0
M  V30 19 C -0.524173 -1.200775 3.025748 0
M  V30 20 C -1.008080 -0.064573 3.651488 0
M  V30 21 C -2.304018 0.091296 4.127849 0
M  V30 22 C -3.164946 -0.981210 3.955703 0
M  V30 23 C -2.713185 -2.122443 3.338067 0
M  V30 24 C -1.424696 -2.239191 2.880341 0
M  V30 25 C 0.986250 -2.729133 0.034302 0
M  V30 26 C 0.500017 -3.413981 -1.214024 0
M  V30 27 H -1.360602 -5.687886 -0.816281 0
M  V30 28 H -0.711454 -4.815691 0.575343 0
M  V30 29 H -2.409693 -4.470674 -0.019543 0
M  V30 30 H -2.690045 -2.725905 -1.094206 0
M  V30 31 H -2.135087 -3.067811 -2.752455 0
M  V30 32 H -2.110388 -0.720671 -2.098298 0
M  V30 33 H -0.514749 -1.243690 -2.658108 0
M  V30 34 H 0.558561 0.382686 1.216748 0
M  V30 35 H 2.907010 0.295799 1.781465 0
M  V30 36 H 3.140138 -1.282085 1.030040 0
M  V30 37 H 0.360698 1.934627 -1.219095 0
M  V30 38 H -0.259744 4.329623 -0.946361 0
M  V30 39 H 3.590367 5.134533 0.658201 0
M  V30 40 H 4.189922 2.828479 0.397255 0
M  V30 41 H 1.468137 -0.511642 3.280507 0
M  V30 42 H 1.292692 -2.175637 2.698608 0
M  V30 43 H -0.375227 0.801525 3.810208 0
M  V30 44 H -2.639502 0.991093 4.607879 0
M  V30 45 H -4.178411 -0.975411 4.279871 0
M  V30 46 H -3.368762 -2.969052 3.194659 0
M  V30 47 H -1.062748 -3.115607 2.402606 0
M  V30 48 H 0.806632 -3.327717 0.931362 0
M  V30 49 H 2.103152 -2.658384 -0.053104 0
M  V30 50 H 1.088552 -4.351491 -1.308042 0
M  V30 51 H 0.741691 -2.792342 -2.099711 0
M  V30 END ATOM
M  V30 BEGIN BOND
M  V30 1 1 1 2
M  V30 2 1 2 3
M  V30 3 1 3 4
M  V30 4 1 4 5
M  V30 5 2 5 6
M  V30 6 1 5 7
M  V30 7 1 7 8
M  V30 8 1 8 9
M  V30 9 1 9 10
M  V30 10 1 10 11
M  V30 11 2 11 12
M  V30 12 1 12 13
M  V30 13 2 13 14
M  V30 14 1 14 15
M  V30 15 1 14 16
M  V30 16 2 16 17
M  V30 17 1 8 18
M  V30 18 1 18 19
M  V30 19 2 19 20
M  V30 20 1 20 21
M  V30 21 2 21 22
M  V30 22 1 22 23
M  V30 23 2 23 24
M  V30 24 1 7 25
M  V30 25 1 25 26
M  V30 26 1 26 2
M  V30 27 1 17 11
M  V30 28 1 24 19
M  V30 29 1 1 27
M  V30 30 1 1 28
M  V30 31 1 1 29
M  V30 32 1 3 30
M  V30 33 1 3 31
M  V30 34 1 4 32
M  V30 35 1 4 33
M  V30 36 1 8 34 CFG=1
M  V30 37 1 9 35
M  V30 38 1 9 36
M  V30 39 1 12 37
M  V30 40 1 13 38
M  V30 41 1 16 39
M  V30 42 1 17 40
M  V30 43 1 18 41
M  V30 44 1 18 42
M  V30 45 1 20 43
M  V30 46 1 21 44
M  V30 47 1 22 45
M  V30 48 1 23 46
M  V30 49 1 24 47
M  V30 50 1 25 48
M  V30 51 1 25 49
M  V30 52 1 26 50
M  V30 53 1 26 51
M  V30 END BOND
M  V30 END CTAB
M  END
>  <Dataset>  (848) 
ChEMBL_Kinases

>  <Ligand_Instance>  (848) 
nan

>  <PDB_ID>  (848) 
nan

>  <Standardized_SMILES>  (848) 
CN1CCC(=O)N([C@H](CSc2ccc(Br)cc2)Cc2ccccc2)CC1

>  <Name>  (848) 
nan

>  <Pocket>  (848) 
nan

>  <ATP_Site>  (848) 
nan

>  <Peripheral>  (848) 
nan

>  <Num_H_Atoms_ProtBoundConf>  (848) 
nan

>  <Num_Resolved_Atoms>  (848) 
nan

>  <Num_Not_Resolved_Atoms>  (848) 
nan

$$$$
CHEMBL1594881
     RDKit          3D

  0  0  0  0  0  0  0  0  0  0999 V3000
M  V30 BEGIN CTAB
M  V30 COUNTS 100 114 0 0 0
M  V30 BEGIN ATOM
M  V30 1 O 4.366864 -0.609754 -4.531013 0
M  V30 2 C 4.028893 -0.679899 -3.329126 0
M  V30 3 C 4.843952 -1.419153 -2.381243 0
M  V30 4 C 5.984580 -2.028350 -2.845799 0
M  V30 5 C 6.748358 -2.724643 -1.935818 0
M  V30 6 C 6.395637 -2.822269 -0.582542 0
M  V30 7 C 5.238890 -2.184638 -0.193983 0
M  V30 8 C 4.430557 -1.472996 -1.049708 0
M  V30 9 C 3.212873 -0.790214 -0.681908 0
M  V30 10 O 2.972134 -0.921428 0.510094 0
M  V30 11 C 2.328790 -0.028321 -1.538992 0
M  V30 12 C 1.192999 0.600223 -1.139385 0
M  V30 13 N 0.714447 0.534976 0.214282 0
M  V30 14 C 0.317258 -0.291021 1.375182 0
M  V30 15 C 1.119494 0.238431 2.416886 0
M  V30 16 C 1.505165 -0.759672 3.358993 0
M  V30 17 C 1.099289 -2.100937 3.198818 0
M  V30 18 C 1.508345 -3.080756 4.048314 0
M  V30 19 C 1.176503 -4.405825 3.878078 0
M  V30 20 C 0.389774 -4.760626 2.788419 0
M  V30 21 C -0.040157 -3.786879 1.915662 0
M  V30 22 C -0.777372 -4.148859 0.776312 0
M  V30 23 C -1.146758 -5.443837 0.543943 0
M  V30 24 C -1.897917 -5.823725 -0.571944 0
M  V30 25 C -2.281475 -4.842648 -1.471482 0
M  V30 26 C -1.922262 -3.538399 -1.257417 0
M  V30 27 C -2.372098 -2.543881 -2.135503 0
M  V30 28 C -2.114269 -1.158920 -1.954531 0
M  V30 29 C -1.375865 -0.950775 -0.827282 0
M  V30 30 N -1.723409 0.361173 -0.145597 0
M  V30 31 C -2.928194 1.094059 -0.483685 0
M  V30 32 C -3.988008 0.279429 -0.941347 0
M  V30 33 C -5.213220 0.700165 -1.398827 0
M  V30 34 C -5.449256 2.056984 -1.417886 0
M  V30 35 C -4.479972 2.923325 -0.990533 0
M  V30 36 C -3.301196 2.376623 -0.558625 0
M  V30 37 C -2.276477 3.287239 -0.109217 0
M  V30 38 O -1.165961 3.017449 0.313115 0
M  V30 39 C -2.420077 4.735842 -0.088893 0
M  V30 40 C -1.490466 5.667969 0.323080 0
M  V30 41 C -1.694527 7.026001 0.313318 0
M  V30 42 C -2.911823 7.459232 -0.140444 0
M  V30 43 C -3.929930 6.643964 -0.580857 0
M  V30 44 C -3.637288 5.283142 -0.536948 0
M  V30 45 C -4.667684 4.358012 -0.988764 0
M  V30 46 O -5.759431 4.808831 -1.392548 0
M  V30 47 C -0.875461 -1.838076 0.065228 0
M  V30 48 C -0.158650 -1.530001 1.123325 0
M  V30 49 C 0.297557 -2.431092 2.102992 0
M  V30 50 C -1.176181 -3.170073 -0.156524 0
M  V30 51 C -3.193204 -2.942683 -3.274668 0
M  V30 52 C -3.665894 -2.051874 -4.185295 0
M  V30 53 C -4.444039 -2.390921 -5.279954 0
M  V30 54 C -4.773711 -3.733442 -5.474592 0
M  V30 55 C -4.319575 -4.678823 -4.579109 0
M  V30 56 C -3.545346 -4.250725 -3.510554 0
M  V30 57 C -3.105599 -5.301561 -2.601552 0
M  V30 58 O -3.402559 -6.533771 -2.756769 0
M  V30 59 C 2.368583 -2.784405 5.187487 0
M  V30 60 O 2.741859 -3.686450 5.980456 0
M  V30 61 C 2.795699 -1.408645 5.397035 0
M  V30 62 C 3.610888 -1.034018 6.459617 0
M  V30 63 C 4.011173 0.292756 6.645388 0
M  V30 64 C 3.577364 1.250486 5.739578 0
M  V30 65 C 2.761314 0.863528 4.679388 0
M  V30 66 C 2.377377 -0.445218 4.511880 0
M  V30 67 C 0.543677 1.266896 -2.196573 0
M  V30 68 C 0.923214 1.332840 -3.496836 0
M  V30 69 C 2.081417 0.659590 -3.770121 0
M  V30 70 C 2.824405 -0.030860 -2.852558 0
M  V30 71 H 6.249782 -1.950003 -3.890292 0
M  V30 72 H 7.657075 -3.230020 -2.226314 0
M  V30 73 H 7.025368 -3.378332 0.096207 0
M  V30 74 H 4.938499 -2.238403 0.839010 0
M  V30 75 H 0.774067 1.570414 0.306724 0
M  V30 76 H 1.417768 1.236426 2.526835 0
M  V30 77 H 1.513081 -5.167022 4.569186 0
M  V30 78 H 0.161316 -5.806243 2.696823 0
M  V30 79 H -0.893425 -6.261400 1.191298 0
M  V30 80 H -2.180738 -6.873975 -0.736158 0
M  V30 81 H -2.438868 -0.384129 -2.620474 0
M  V30 82 H -1.535358 1.069518 0.576055 0
M  V30 83 H -4.106984 -0.816036 -0.976645 0
M  V30 84 H -6.067117 0.155193 -1.762606 0
M  V30 85 H -6.359563 2.532805 -1.748974 0
M  V30 86 H -0.562973 5.271420 0.665890 0
M  V30 87 H -0.912971 7.693292 0.653948 0
M  V30 88 H -3.080544 8.524990 -0.151764 0
M  V30 89 H -4.890141 6.976101 -0.940230 0
M  V30 90 H -3.476011 -1.010394 -4.134435 0
M  V30 91 H -4.824869 -1.682648 -6.012600 0
M  V30 92 H -5.384742 -4.012758 -6.333302 0
M  V30 93 H -4.582576 -5.712388 -4.743043 0
M  V30 94 H 3.922260 -1.813966 7.136803 0
M  V30 95 H 4.640743 0.452333 7.504915 0
M  V30 96 H 3.896210 2.256407 5.902935 0
M  V30 97 H 2.488402 1.662486 4.051330 0
M  V30 98 H -0.384303 1.815242 -1.958858 0
M  V30 99 H 0.322923 1.879026 -4.197291 0
M  V30 100 H 2.395882 0.696272 -4.794144 0
M  V30 END ATOM
M  V30 BEGIN BOND
M  V30 1 2 1 2
M  V30 2 1 2 3
M  V30 3 2 3 4
M  V30 4 1 4 5
M  V30 5 2 5 6
M  V30 6 1 6 7
M  V30 7 2 7 8
M  V30 8 1 8 9
M  V30 9 2 9 10
M  V30 10 1 9 11
M  V30 11 2 11 12
M  V30 12 1 12 13
M  V30 13 1 13 14
M  V30 14 2 14 15
M  V30 15 1 15 16
M  V30 16 2 16 17
M  V30 17 1 17 18
M  V30 18 2 18 19
M  V30 19 1 19 20
M  V30 20 2 20 21
M  V30 21 1 21 22
M  V30 22 1 22 23
M  V30 23 2 23 24
M  V30 24 1 24 25
M  V30 25 2 25 26
M  V30 26 1 26 27
M  V30 27 2 27 28
M  V30 28 1 28 29
M  V30 29 1 29 30
M  V30 30 1 30 31
M  V30 31 2 31 32
M  V30 32 1 32 33
M  V30 33 2 33 34
M  V30 34 1 34 35
M  V30 35 2 35 36
M  V30 36 1 36 37
M  V30 37 2 37 38
M  V30 38 1 37 39
M  V30 39 2 39 40
M  V30 40 1 40 41
M  V30 41 2 41 42
M  V30 42 1 42 43
M  V30 43 2 43 44
M  V30 44 1 44 45
M  V30 45 2 45 46
M  V30 46 2 29 47
M  V30 47 1 47 48
M  V30 48 2 48 49
M  V30 49 1 47 50
M  V30 50 1 27 51
M  V30 51 2 51 52
M  V30 52 1 52 53
M  V30 53 2 53 54
M  V30 54 1 54 55
M  V30 55 2 55 56
M  V30 56 1 56 57
M  V30 57 2 57 58
M  V30 58 1 18 59
M  V30 59 2 59 60
M  V30 60 1 59 61
M  V30 61 2 61 62
M  V30 62 1 62 63
M  V30 63 2 63 64
M  V30 64 1 64 65
M  V30 65 2 65 66
M  V30 66 1 12 67
M  V30 67 2 67 68
M  V30 68 1 68 69
M  V30 69 2 69 70
M  V30 70 1 70 2
M  V30 71 1 8 3
M  V30 72 1 70 11
M  V30 73 1 48 14
M  V30 74 1 56 51
M  V30 75 1 66 61
M  V30 76 1 66 16
M  V30 77 1 49 17
M  V30 78 1 49 21
M  V30 79 2 50 22
M  V30 80 1 57 25
M  V30 81 1 50 26
M  V30 82 1 36 31
M  V30 83 1 44 39
M  V30 84 1 45 35
M  V30 85 1 4 71
M  V30 86 1 5 72
M  V30 87 1 6 73
M  V30 88 1 7 74
M  V30 89 1 13 75
M  V30 90 1 15 76
M  V30 91 1 19 77
M  V30 92 1 20 78
M  V30 93 1 23 79
M  V30 94 1 24 80
M  V30 95 1 28 81
M  V30 96 1 30 82
M  V30 97 1 32 83
M  V30 98 1 33 84
M  V30 99 1 34 85
M  V30 100 1 40 86
M  V30 101 1 41 87
M  V30 102 1 42 88
M  V30 103 1 43 89
M  V30 104 1 52 90
M  V30 105 1 53 91
M  V30 106 1 54 92
M  V30 107 1 55 93
M  V30 108 1 62 94
M  V30 109 1 63 95
M  V30 110 1 64 96
M  V30 111 1 65 97
M  V30 112 1 67 98
M  V30 113 1 68 99
M  V30 114 1 69 100
M  V30 END BOND
M  V30 END CTAB
M  END
>  <Dataset>  (849) 
ChEMBL_Kinases

>  <Ligand_Instance>  (849) 
nan

>  <PDB_ID>  (849) 
nan

>  <Standardized_SMILES>  (849) 
O=C1c2ccccc2C(=O)c2c(Nc3cc4c5c(ccc6c7ccc8c9c(cc(Nc%10cccc%11c%10C(=O)c%10ccccc%10C%11=O)c(c3c56)c97)-c3ccccc3C8=O)C(=O)c3ccccc3-4)cccc21

>  <Name>  (849) 
nan

>  <Pocket>  (849) 
nan

>  <ATP_Site>  (849) 
nan

>  <Peripheral>  (849) 
nan

>  <Num_H_Atoms_ProtBoundConf>  (849) 
nan

>  <Num_Resolved_Atoms>  (849) 
nan

>  <Num_Not_Resolved_Atoms>  (849) 
nan

$$$$
CHEMBL1594964
     RDKit          3D

  0  0  0  0  0  0  0  0  0  0999 V3000
M  V30 BEGIN CTAB
M  V30 COUNTS 66 69 0 0 0
M  V30 BEGIN ATOM
M  V30 1 C 5.028524 -1.479601 5.088248 0
M  V30 2 C 4.163452 -1.030021 3.963125 0
M  V30 3 C 4.296622 -1.671480 2.754710 0
M  V30 4 C 3.524873 -1.292753 1.676227 0
M  V30 5 C 3.650959 -1.969475 0.349797 0
M  V30 6 C 2.638858 -0.264892 1.874455 0
M  V30 7 C 1.818765 0.184251 0.825856 0
M  V30 8 C 0.875156 1.209265 0.849978 0
M  V30 9 C 0.091340 1.522849 -0.345989 0
M  V30 10 N -1.113967 1.014189 -0.670872 0
M  V30 11 C -1.694838 1.748840 -1.811070 0
M  V30 12 C -0.962446 1.528757 -3.062121 0
M  V30 13 O 0.349078 1.945459 -3.033461 0
M  V30 14 C -2.116935 0.337246 0.012914 0
M  V30 15 C -1.715315 -0.770686 0.938989 0
M  V30 16 N -0.974844 -0.877475 2.048008 0
M  V30 17 N -0.889415 -2.061991 2.551195 0
M  V30 18 N -1.610773 -2.854839 1.755775 0
M  V30 19 N -2.098616 -2.080287 0.798108 0
M  V30 20 C -2.900857 -2.739951 -0.240847 0
M  V30 21 C -1.998010 -3.300913 -1.293525 0
M  V30 22 C -1.489299 -2.716351 -2.432086 0
M  V30 23 C -0.660646 -3.438250 -3.260741 0
M  V30 24 C -0.315681 -4.749888 -2.985762 0
M  V30 25 F 0.494214 -5.374074 -3.846266 0
M  V30 26 C -0.798208 -5.387551 -1.854088 0
M  V30 27 C -1.621880 -4.632900 -1.053674 0
M  V30 28 C -3.259946 1.116511 0.592395 0
M  V30 29 C -4.191669 0.091478 1.272167 0
M  V30 30 C -3.009758 2.159413 1.582982 0
M  V30 31 C 0.832682 1.774339 2.105379 0
M  V30 32 O -0.025960 2.815533 2.356663 0
M  V30 33 N 1.571883 1.412827 3.161262 0
M  V30 34 C 2.459887 0.411381 3.051954 0
M  V30 35 C 3.256977 -0.001426 4.112309 0
M  V30 36 H 4.399266 -2.100938 5.754580 0
M  V30 37 H 5.913743 -2.039707 4.723713 0
M  V30 38 H 5.335182 -0.566580 5.617869 0
M  V30 39 H 4.988488 -2.495621 2.548919 0
M  V30 40 H 3.977283 -1.191494 -0.369907 0
M  V30 41 H 4.449950 -2.736144 0.368452 0
M  V30 42 H 2.720157 -2.437180 0.040023 0
M  V30 43 H 1.967001 -0.359004 -0.106235 0
M  V30 44 H 0.825870 1.151364 -1.179906 0
M  V30 45 H 0.221633 2.648133 -0.537913 0
M  V30 46 H -2.762423 1.437661 -1.924871 0
M  V30 47 H -1.711701 2.832109 -1.555829 0
M  V30 48 H -1.508823 2.010515 -3.922663 0
M  V30 49 H -0.961080 0.431645 -3.297114 0
M  V30 50 H 0.963303 1.447414 -3.622471 0
M  V30 51 H -2.656440 -0.233756 -0.834808 0
M  V30 52 H -3.571473 -2.048500 -0.771063 0
M  V30 53 H -3.531245 -3.546795 0.169486 0
M  V30 54 H -1.820753 -1.696541 -2.548935 0
M  V30 55 H -0.330527 -2.870093 -4.117322 0
M  V30 56 H -0.542583 -6.411049 -1.618994 0
M  V30 57 H -1.981294 -5.180990 -0.166012 0
M  V30 58 H -3.882166 1.485982 -0.264119 0
M  V30 59 H -4.844577 0.623787 2.012727 0
M  V30 60 H -4.782691 -0.481901 0.556792 0
M  V30 61 H -3.530775 -0.545157 1.890147 0
M  V30 62 H -2.415484 2.969499 1.115128 0
M  V30 63 H -2.545173 1.871679 2.517423 0
M  V30 64 H -3.963192 2.690671 1.898304 0
M  V30 65 H 0.369444 3.699054 2.644713 0
M  V30 66 H 3.163658 0.490105 5.065129 0
M  V30 END ATOM
M  V30 BEGIN BOND
M  V30 1 1 1 2
M  V30 2 2 2 3
M  V30 3 1 3 4
M  V30 4 1 4 5
M  V30 5 2 4 6
M  V30 6 1 6 7
M  V30 7 2 7 8
M  V30 8 1 8 9
M  V30 9 1 9 10
M  V30 10 1 10 11
M  V30 11 1 11 12
M  V30 12 1 12 13
M  V30 13 1 10 14
M  V30 14 1 14 15
M  V30 15 2 15 16
M  V30 16 1 16 17
M  V30 17 2 17 18
M  V30 18 1 18 19
M  V30 19 1 19 20
M  V30 20 1 20 21
M  V30 21 2 21 22
M  V30 22 1 22 23
M  V30 23 2 23 24
M  V30 24 1 24 25
M  V30 25 1 24 26
M  V30 26 2 26 27
M  V30 27 1 14 28
M  V30 28 1 28 29
M  V30 29 1 28 30
M  V30 30 1 8 31
M  V30 31 1 31 32
M  V30 32 2 31 33
M  V30 33 1 33 34
M  V30 34 2 34 35
M  V30 35 1 35 2
M  V30 36 1 34 6
M  V30 37 1 19 15
M  V30 38 1 27 21
M  V30 39 1 1 36
M  V30 40 1 1 37
M  V30 41 1 1 38
M  V30 42 1 3 39
M  V30 43 1 5 40
M  V30 44 1 5 41
M  V30 45 1 5 42
M  V30 46 1 7 43
M  V30 47 1 9 44
M  V30 48 1 9 45
M  V30 49 1 11 46
M  V30 50 1 11 47
M  V30 51 1 12 48
M  V30 52 1 12 49
M  V30 53 1 13 50
M  V30 54 1 14 51
M  V30 55 1 20 52
M  V30 56 1 20 53
M  V30 57 1 22 54
M  V30 58 1 23 55
M  V30 59 1 26 56
M  V30 60 1 27 57
M  V30 61 1 28 58
M  V30 62 1 29 59
M  V30 63 1 29 60
M  V30 64 1 29 61
M  V30 65 1 30 62
M  V30 66 1 30 63
M  V30 67 1 30 64
M  V30 68 1 32 65
M  V30 69 1 35 66
M  V30 END BOND
M  V30 END CTAB
M  END
>  <Dataset>  (850) 
ChEMBL_Kinases

>  <Ligand_Instance>  (850) 
nan

>  <PDB_ID>  (850) 
nan

>  <Standardized_SMILES>  (850) 
Cc1cc(C)c2cc(CN(CCO)C(c3nnnn3Cc3ccc(F)cc3)C(C)C)c(O)nc2c1

>  <Name>  (850) 
nan

>  <Pocket>  (850) 
nan

>  <ATP_Site>  (850) 
nan

>  <Peripheral>  (850) 
nan

>  <Num_H_Atoms_ProtBoundConf>  (850) 
nan

>  <Num_Resolved_Atoms>  (850) 
nan

>  <Num_Not_Resolved_Atoms>  (850) 
nan

$$$$
CHEMBL1595131
     RDKit          3D

  0  0  0  0  0  0  0  0  0  0999 V3000
M  V30 BEGIN CTAB
M  V30 COUNTS 46 48 0 0 0
M  V30 BEGIN ATOM
M  V30 1 C 1.743822 -3.547611 2.006931 0
M  V30 2 C 1.233494 -2.357681 2.793564 0
M  V30 3 C 0.250545 -2.849451 3.808209 0
M  V30 4 N 0.642486 -1.359298 1.877667 0
M  V30 5 C 1.269107 -0.039669 1.850500 0
M  V30 6 C 2.355224 0.091191 0.880983 0
M  V30 7 C 2.315585 0.502783 -0.435175 0
M  V30 8 C 3.425606 0.578419 -1.244703 0
M  V30 9 C 4.667504 0.231191 -0.746292 0
M  V30 10 C 4.768474 -0.188586 0.566592 0
M  V30 11 C 3.631715 -0.251687 1.347687 0
M  V30 12 C -0.462706 -1.895148 1.178798 0
M  V30 13 O -0.488135 -3.057981 1.665234 0
M  V30 14 C -1.558970 -1.821084 0.221160 0
M  V30 15 N -1.709621 -0.589803 -0.500285 0
M  V30 16 C -1.084498 -0.460989 -1.710245 0
M  V30 17 O -0.400332 -1.458744 -2.125277 0
M  V30 18 C -1.125808 0.667480 -2.538075 0
M  V30 19 N -1.842496 1.713858 -2.104430 0
M  V30 20 C -2.479238 1.646334 -0.922102 0
M  V30 21 C -3.216364 2.726415 -0.470860 0
M  V30 22 C -3.850158 2.630030 0.737561 0
M  V30 23 C -3.793448 1.500393 1.540848 0
M  V30 24 C -3.052640 0.439677 1.067471 0
M  V30 25 C -2.403719 0.509028 -0.147341 0
M  V30 26 H 1.206453 -4.497160 2.283703 0
M  V30 27 H 1.672308 -3.431200 0.915956 0
M  V30 28 H 2.803193 -3.727375 2.335915 0
M  V30 29 H 2.089607 -1.899924 3.331447 0
M  V30 30 H 0.700059 -2.708749 4.827816 0
M  V30 31 H 0.085543 -3.957043 3.721326 0
M  V30 32 H -0.697950 -2.276781 3.846078 0
M  V30 33 H 0.448389 0.659544 1.587760 0
M  V30 34 H 1.631753 0.255730 2.842329 0
M  V30 35 H 1.347274 0.765343 -0.785659 0
M  V30 36 H 3.272268 0.913455 -2.257097 0
M  V30 37 H 5.497652 0.312230 -1.428417 0
M  V30 38 H 5.748268 -0.446256 0.906763 0
M  V30 39 H 3.842846 -0.593704 2.354005 0
M  V30 40 H -2.502189 -2.045079 0.757460 0
M  V30 41 H -1.493531 -2.620952 -0.563251 0
M  V30 42 H -0.581867 0.630833 -3.471754 0
M  V30 43 H -3.244931 3.588892 -1.110469 0
M  V30 44 H -4.401064 3.542479 0.991249 0
M  V30 45 H -4.339756 1.546975 2.478667 0
M  V30 46 H -3.031460 -0.416796 1.725648 0
M  V30 END ATOM
M  V30 BEGIN BOND
M  V30 1 1 1 2
M  V30 2 1 2 3
M  V30 3 1 2 4
M  V30 4 1 4 5
M  V30 5 1 5 6
M  V30 6 2 6 7
M  V30 7 1 7 8
M  V30 8 2 8 9
M  V30 9 1 9 10
M  V30 10 2 10 11
M  V30 11 1 4 12
M  V30 12 2 12 13
M  V30 13 1 12 14
M  V30 14 1 14 15
M  V30 15 1 15 16
M  V30 16 2 16 17
M  V30 17 1 16 18
M  V30 18 2 18 19
M  V30 19 1 19 20
M  V30 20 2 20 21
M  V30 21 1 21 22
M  V30 22 2 22 23
M  V30 23 1 23 24
M  V30 24 2 24 25
M  V30 25 1 11 6
M  V30 26 1 25 15
M  V30 27 1 25 20
M  V30 28 1 1 26
M  V30 29 1 1 27
M  V30 30 1 1 28
M  V30 31 1 2 29
M  V30 32 1 3 30
M  V30 33 1 3 31
M  V30 34 1 3 32
M  V30 35 1 5 33
M  V30 36 1 5 34
M  V30 37 1 7 35
M  V30 38 1 8 36
M  V30 39 1 9 37
M  V30 40 1 10 38
M  V30 41 1 11 39
M  V30 42 1 14 40
M  V30 43 1 14 41
M  V30 44 1 18 42
M  V30 45 1 21 43
M  V30 46 1 22 44
M  V30 47 1 23 45
M  V30 48 1 24 46
M  V30 END BOND
M  V30 END CTAB
M  END
>  <Dataset>  (851) 
ChEMBL_Kinases

>  <Ligand_Instance>  (851) 
nan

>  <PDB_ID>  (851) 
nan

>  <Standardized_SMILES>  (851) 
CC(C)N(Cc1ccccc1)C(=O)Cn1c(=O)cnc2ccccc21

>  <Name>  (851) 
nan

>  <Pocket>  (851) 
nan

>  <ATP_Site>  (851) 
nan

>  <Peripheral>  (851) 
nan

>  <Num_H_Atoms_ProtBoundConf>  (851) 
nan

>  <Num_Resolved_Atoms>  (851) 
nan

>  <Num_Not_Resolved_Atoms>  (851) 
nan

$$$$
CHEMBL1594412
     RDKit          3D

  0  0  0  0  0  0  0  0  0  0999 V3000
M  V30 BEGIN CTAB
M  V30 COUNTS 34 36 0 0 0
M  V30 BEGIN ATOM
M  V30 1 C -2.295234 -5.259856 4.768169 0
M  V30 2 O -2.223969 -4.202175 3.810407 0
M  V30 3 C -1.012920 -3.990048 3.130560 0
M  V30 4 O -0.003701 -4.708585 3.350762 0
M  V30 5 C -0.930761 -2.911729 2.149495 0
M  V30 6 C 0.248676 -2.687173 1.472175 0
M  V30 7 C 0.352587 -1.669001 0.534466 0
M  V30 8 C -0.754639 -0.854320 0.268564 0
M  V30 9 N -0.590745 0.172786 -0.664881 0
M  V30 10 C 0.388242 1.137613 -0.977275 0
M  V30 11 C 0.220033 1.899845 -2.141995 0
M  V30 12 C 1.149422 2.858032 -2.458276 0
M  V30 13 C 0.942709 3.650567 -3.703918 0
M  V30 14 N 2.220766 3.086631 -1.677936 0
M  V30 15 C 2.385442 2.362143 -0.564549 0
M  V30 16 N 3.352879 2.415077 0.357386 0
M  V30 17 C 3.044855 1.489945 1.267555 0
M  V30 18 N 1.909295 0.911108 0.869642 0
M  V30 19 N 1.481706 1.420299 -0.244409 0
M  V30 20 C -1.918196 -1.106593 0.962985 0
M  V30 21 C -2.029774 -2.115231 1.895401 0
M  V30 22 H -2.069310 -6.208462 4.221586 0
M  V30 23 H -1.497570 -5.137578 5.536239 0
M  V30 24 H -3.274494 -5.257303 5.241017 0
M  V30 25 H 1.085643 -3.355999 1.720211 0
M  V30 26 H 1.329920 -1.630316 0.084354 0
M  V30 27 H -1.471504 0.165021 -1.263290 0
M  V30 28 H -0.633454 1.748304 -2.802726 0
M  V30 29 H 1.687028 4.464478 -3.731531 0
M  V30 30 H -0.050927 4.143134 -3.615055 0
M  V30 31 H 1.028471 3.036695 -4.624046 0
M  V30 32 H 3.669032 1.319142 2.132566 0
M  V30 33 H -2.774460 -0.463220 0.745111 0
M  V30 34 H -2.966652 -2.266715 2.409479 0
M  V30 END ATOM
M  V30 BEGIN BOND
M  V30 1 1 1 2
M  V30 2 1 2 3
M  V30 3 2 3 4
M  V30 4 1 3 5
M  V30 5 2 5 6
M  V30 6 1 6 7
M  V30 7 2 7 8
M  V30 8 1 8 9
M  V30 9 1 9 10
M  V30 10 2 10 11
M  V30 11 1 11 12
M  V30 12 1 12 13
M  V30 13 2 12 14
M  V30 14 1 14 15
M  V30 15 2 15 16
M  V30 16 1 16 17
M  V30 17 2 17 18
M  V30 18 1 18 19
M  V30 19 1 8 20
M  V30 20 2 20 21
M  V30 21 1 21 5
M  V30 22 1 19 10
M  V30 23 1 19 15
M  V30 24 1 1 22
M  V30 25 1 1 23
M  V30 26 1 1 24
M  V30 27 1 6 25
M  V30 28 1 7 26
M  V30 29 1 9 27
M  V30 30 1 11 28
M  V30 31 1 13 29
M  V30 32 1 13 30
M  V30 33 1 13 31
M  V30 34 1 17 32
M  V30 35 1 20 33
M  V30 36 1 21 34
M  V30 END BOND
M  V30 END CTAB
M  END
>  <Dataset>  (852) 
ChEMBL_Kinases

>  <Ligand_Instance>  (852) 
nan

>  <PDB_ID>  (852) 
nan

>  <Standardized_SMILES>  (852) 
COC(=O)c1ccc(Nc2cc(C)nc3ncnn23)cc1

>  <Name>  (852) 
nan

>  <Pocket>  (852) 
nan

>  <ATP_Site>  (852) 
nan

>  <Peripheral>  (852) 
nan

>  <Num_H_Atoms_ProtBoundConf>  (852) 
nan

>  <Num_Resolved_Atoms>  (852) 
nan

>  <Num_Not_Resolved_Atoms>  (852) 
nan

$$$$
CHEMBL1600003
     RDKit          3D

  0  0  0  0  0  0  0  0  0  0999 V3000
M  V30 BEGIN CTAB
M  V30 COUNTS 45 48 0 0 0
M  V30 BEGIN ATOM
M  V30 1 C 1.510225 -7.056844 2.367681 0
M  V30 2 O 0.609303 -6.059144 1.922394 0
M  V30 3 C 1.037631 -4.915377 1.262109 0
M  V30 4 C 2.363013 -4.605769 0.959377 0
M  V30 5 C 2.701969 -3.450885 0.302267 0
M  V30 6 C 1.721972 -2.557537 -0.078676 0
M  V30 7 C 2.018270 -1.315064 -0.778599 0
M  V30 8 N 3.207496 -0.838109 -1.157560 0
M  V30 9 N 3.058260 0.323861 -1.768420 0
M  V30 10 C 1.717846 0.576838 -1.767294 0
M  V30 11 C 1.344642 1.860050 -2.421916 0
M  V30 12 O 1.377061 2.944450 -1.561676 0
M  V30 13 C 0.596672 3.068897 -0.459839 0
M  V30 14 C 0.919281 4.285795 0.166315 0
M  V30 15 C 0.302511 4.722548 1.324489 0
M  V30 16 C -0.687667 3.930103 1.910741 0
M  V30 17 C -1.354118 4.286530 3.064143 0
M  V30 18 C -2.329404 3.492903 3.630400 0
M  V30 19 C -2.602979 2.319746 2.978610 0
M  V30 20 C -1.971580 1.889982 1.807340 0
M  V30 21 C -1.014992 2.737984 1.311290 0
M  V30 22 C -0.372757 2.355511 0.166566 0
M  V30 23 O 1.146763 -0.427849 -1.167337 0
M  V30 24 C 0.420169 -2.884926 0.231220 0
M  V30 25 C 0.031719 -4.039374 0.893169 0
M  V30 26 O -1.307009 -4.291031 1.166039 0
M  V30 27 C -2.241739 -3.316422 0.736669 0
M  V30 28 H 1.827265 -7.729859 1.554996 0
M  V30 29 H 2.429293 -6.550879 2.756141 0
M  V30 30 H 1.063222 -7.654404 3.179510 0
M  V30 31 H 3.107151 -5.324952 1.270646 0
M  V30 32 H 3.739798 -3.228572 0.076061 0
M  V30 33 H 0.283010 1.699068 -2.797217 0
M  V30 34 H 1.928718 2.044537 -3.347990 0
M  V30 35 H 1.658561 5.041312 -0.131721 0
M  V30 36 H 0.482392 5.626353 1.865653 0
M  V30 37 H -1.099949 5.231416 3.545979 0
M  V30 38 H -2.852614 3.771378 4.534753 0
M  V30 39 H -3.378108 1.693687 3.432661 0
M  V30 40 H -2.264489 0.950814 1.379750 0
M  V30 41 H -0.586467 1.443716 -0.356607 0
M  V30 42 H -0.341385 -2.178183 -0.071562 0
M  V30 43 H -2.004079 -2.380137 1.265193 0
M  V30 44 H -2.078479 -3.230153 -0.376806 0
M  V30 45 H -3.287565 -3.635015 0.901203 0
M  V30 END ATOM
M  V30 BEGIN BOND
M  V30 1 1 1 2
M  V30 2 1 2 3
M  V30 3 2 3 4
M  V30 4 1 4 5
M  V30 5 2 5 6
M  V30 6 1 6 7
M  V30 7 2 7 8
M  V30 8 1 8 9
M  V30 9 2 9 10
M  V30 10 1 10 11
M  V30 11 1 11 12
M  V30 12 1 12 13
M  V30 13 2 13 14
M  V30 14 1 14 15
M  V30 15 2 15 16
M  V30 16 1 16 17
M  V30 17 2 17 18
M  V30 18 1 18 19
M  V30 19 2 19 20
M  V30 20 1 20 21
M  V30 21 2 21 22
M  V30 22 1 10 23
M  V30 23 1 6 24
M  V30 24 2 24 25
M  V30 25 1 25 26
M  V30 26 1 26 27
M  V30 27 1 25 3
M  V30 28 1 23 7
M  V30 29 1 22 13
M  V30 30 1 21 16
M  V30 31 1 1 28
M  V30 32 1 1 29
M  V30 33 1 1 30
M  V30 34 1 4 31
M  V30 35 1 5 32
M  V30 36 1 11 33
M  V30 37 1 11 34
M  V30 38 1 14 35
M  V30 39 1 15 36
M  V30 40 1 17 37
M  V30 41 1 18 38
M  V30 42 1 19 39
M  V30 43 1 20 40
M  V30 44 1 22 41
M  V30 45 1 24 42
M  V30 46 1 27 43
M  V30 47 1 27 44
M  V30 48 1 27 45
M  V30 END BOND
M  V30 END CTAB
M  END
>  <Dataset>  (853) 
ChEMBL_Kinases

>  <Ligand_Instance>  (853) 
nan

>  <PDB_ID>  (853) 
nan

>  <Standardized_SMILES>  (853) 
COc1ccc(-c2nnc(COc3ccc4ccccc4c3)o2)cc1OC

>  <Name>  (853) 
nan

>  <Pocket>  (853) 
nan

>  <ATP_Site>  (853) 
nan

>  <Peripheral>  (853) 
nan

>  <Num_H_Atoms_ProtBoundConf>  (853) 
nan

>  <Num_Resolved_Atoms>  (853) 
nan

>  <Num_Not_Resolved_Atoms>  (853) 
nan

$$$$
CHEMBL1599915
     RDKit          3D

  0  0  0  0  0  0  0  0  0  0999 V3000
M  V30 BEGIN CTAB
M  V30 COUNTS 51 55 0 0 0
M  V30 BEGIN ATOM
M  V30 1 C 0.424769 -7.290938 0.321794 0
M  V30 2 O 0.316480 -6.072956 1.075702 0
M  V30 3 C 0.394034 -4.838927 0.452319 0
M  V30 4 C 0.577195 -4.707101 -0.920808 0
M  V30 5 C 0.651533 -3.449993 -1.519729 0
M  V30 6 C 0.544542 -2.305309 -0.754985 0
M  V30 7 C 0.365096 -2.447628 0.591217 0
M  V30 8 C 0.286348 -3.697908 1.220739 0
M  V30 9 O 0.102164 -3.839929 2.597247 0
M  V30 10 C -0.015740 -2.694263 3.420012 0
M  V30 11 C 0.626951 -0.992184 -1.380718 0
M  V30 12 C 0.536072 0.148108 -0.641161 0
M  V30 13 C 0.637366 1.348575 -1.309939 0
M  V30 14 N 0.557371 2.623226 -0.694526 0
M  V30 15 C 0.268297 3.088338 0.604309 0
M  V30 16 C 0.893957 4.175228 1.227135 0
M  V30 17 C 0.497155 4.526877 2.491497 0
M  V30 18 C -0.482993 3.894286 3.219443 0
M  V30 19 C -1.108022 2.808449 2.594745 0
M  V30 20 C -0.725783 2.428667 1.312919 0
M  V30 21 O -2.094041 2.191169 3.353662 0
M  V30 22 C -2.677760 2.769511 4.509542 0
M  V30 23 C -1.638891 3.496475 5.340452 0
M  V30 24 O -0.822916 4.320738 4.504742 0
M  V30 25 N 0.816083 1.321408 -2.628262 0
M  V30 26 C 0.902864 0.190909 -3.341418 0
M  V30 27 O 1.072956 0.312030 -4.588937 0
M  V30 28 N 0.806650 -1.018010 -2.707880 0
M  V30 29 C 0.920598 -2.130595 -3.627654 0
M  V30 30 C 0.851324 -3.476104 -2.992973 0
M  V30 31 H 1.423577 -7.384813 -0.132260 0
M  V30 32 H -0.404223 -7.250126 -0.414550 0
M  V30 33 H 0.289488 -8.164253 0.978096 0
M  V30 34 H 0.654524 -5.652056 -1.467531 0
M  V30 35 H 0.272346 -1.633214 1.253391 0
M  V30 36 H 0.814174 -1.975825 3.201625 0
M  V30 37 H -1.019446 -2.232963 3.333554 0
M  V30 38 H 0.139242 -2.977292 4.486257 0
M  V30 39 H 0.404311 0.134763 0.401315 0
M  V30 40 H 0.742358 3.485813 -1.282598 0
M  V30 41 H 1.666892 4.678545 0.663347 0
M  V30 42 H 1.003755 5.378995 2.954068 0
M  V30 43 H -1.318645 1.589162 0.996513 0
M  V30 44 H -3.076048 1.932954 5.115505 0
M  V30 45 H -3.527848 3.440763 4.283482 0
M  V30 46 H -0.955642 2.804143 5.863803 0
M  V30 47 H -2.130311 4.165331 6.064794 0
M  V30 48 H 0.150084 -2.043986 -4.450367 0
M  V30 49 H 1.909054 -2.034123 -4.165202 0
M  V30 50 H 1.768997 -4.050159 -3.267131 0
M  V30 51 H -0.042595 -4.020518 -3.419937 0
M  V30 END ATOM
M  V30 BEGIN BOND
M  V30 1 1 1 2
M  V30 2 1 2 3
M  V30 3 2 3 4
M  V30 4 1 4 5
M  V30 5 2 5 6
M  V30 6 1 6 7
M  V30 7 2 7 8
M  V30 8 1 8 9
M  V30 9 1 9 10
M  V30 10 1 6 11
M  V30 11 2 11 12
M  V30 12 1 12 13
M  V30 13 1 13 14
M  V30 14 1 14 15
M  V30 15 2 15 16
M  V30 16 1 16 17
M  V30 17 2 17 18
M  V30 18 1 18 19
M  V30 19 2 19 20
M  V30 20 1 19 21
M  V30 21 1 21 22
M  V30 22 1 22 23
M  V30 23 1 23 24
M  V30 24 2 13 25
M  V30 25 1 25 26
M  V30 26 2 26 27
M  V30 27 1 26 28
M  V30 28 1 28 29
M  V30 29 1 29 30
M  V30 30 1 8 3
M  V30 31 1 28 11
M  V30 32 1 30 5
M  V30 33 1 20 15
M  V30 34 1 24 18
M  V30 35 1 1 31
M  V30 36 1 1 32
M  V30 37 1 1 33
M  V30 38 1 4 34
M  V30 39 1 7 35
M  V30 40 1 10 36
M  V30 41 1 10 37
M  V30 42 1 10 38
M  V30 43 1 12 39
M  V30 44 1 14 40
M  V30 45 1 16 41
M  V30 46 1 17 42
M  V30 47 1 20 43
M  V30 48 1 22 44
M  V30 49 1 22 45
M  V30 50 1 23 46
M  V30 51 1 23 47
M  V30 52 1 29 48
M  V30 53 1 29 49
M  V30 54 1 30 50
M  V30 55 1 30 51
M  V30 END BOND
M  V30 END CTAB
M  END
>  <Dataset>  (854) 
ChEMBL_Kinases

>  <Ligand_Instance>  (854) 
nan

>  <PDB_ID>  (854) 
nan

>  <Standardized_SMILES>  (854) 
COc1cc2c(cc1OC)-c1cc(Nc3ccc4c(c3)OCCO4)nc(=O)n1CC2

>  <Name>  (854) 
nan

>  <Pocket>  (854) 
nan

>  <ATP_Site>  (854) 
nan

>  <Peripheral>  (854) 
nan

>  <Num_H_Atoms_ProtBoundConf>  (854) 
nan

>  <Num_Resolved_Atoms>  (854) 
nan

>  <Num_Not_Resolved_Atoms>  (854) 
nan

$$$$
CHEMBL1599896
     RDKit          3D

  0  0  0  0  0  0  0  0  0  0999 V3000
M  V30 BEGIN CTAB
M  V30 COUNTS 46 48 0 0 0
M  V30 BEGIN ATOM
M  V30 1 C -6.511671 -4.221776 0.232320 0
M  V30 2 O -6.026001 -3.538808 -0.912456 0
M  V30 3 C -4.718757 -3.083615 -1.003721 0
M  V30 4 C -3.881149 -3.315596 0.069851 0
M  V30 5 C -2.595708 -2.838471 -0.083724 0
M  V30 6 C -2.124146 -2.171971 -1.202544 0
M  V30 7 C -0.716944 -1.707291 -1.246186 0
M  V30 8 C -0.578517 -0.312930 -0.697496 0
M  V30 9 O -1.492015 0.431433 -0.240356 0
M  V30 10 N 0.776620 0.182061 -0.719921 0
M  V30 11 C 1.029179 1.496285 -0.223048 0
M  V30 12 C 0.657883 1.685670 1.192925 0
M  V30 13 N -0.559689 2.100360 1.652249 0
M  V30 14 N -0.472966 2.137894 2.979963 0
M  V30 15 C 0.755858 1.761932 3.379707 0
M  V30 16 S 1.273176 1.679689 5.090091 0
M  V30 17 N 1.450374 1.483088 2.259742 0
M  V30 18 C 2.822074 1.040543 2.242506 0
M  V30 19 C 2.952253 -0.340732 2.309167 0
M  V30 20 C 4.238212 -0.868543 2.298730 0
M  V30 21 C 5.335257 -0.035834 2.224396 0
M  V30 22 C 5.171249 1.333794 2.159313 0
M  V30 23 C 6.331913 2.258339 2.078418 0
M  V30 24 C 3.899021 1.899267 2.167433 0
M  V30 25 C -3.025646 -1.972541 -2.249372 0
M  V30 26 C -4.344189 -2.431271 -2.158184 0
M  V30 27 H -5.914987 -5.172685 0.345182 0
M  V30 28 H -7.583302 -4.432104 0.102152 0
M  V30 29 H -6.298126 -3.579257 1.106762 0
M  V30 30 H -4.198374 -3.830599 0.966534 0
M  V30 31 H -1.902323 -3.001023 0.741263 0
M  V30 32 H -0.134587 -2.369438 -0.561376 0
M  V30 33 H -0.244245 -1.812010 -2.229716 0
M  V30 34 H 1.586851 -0.398993 -1.092927 0
M  V30 35 H 0.403176 2.208448 -0.836840 0
M  V30 36 H 2.069730 1.801396 -0.437824 0
M  V30 37 H 2.658444 1.475538 5.103891 0
M  V30 38 H 2.111591 -1.020076 2.368241 0
M  V30 39 H 4.454944 -1.946167 2.347393 0
M  V30 40 H 6.351478 -0.399551 2.213415 0
M  V30 41 H 6.055317 3.129872 1.438724 0
M  V30 42 H 7.223134 1.758175 1.612760 0
M  V30 43 H 6.566286 2.633322 3.087447 0
M  V30 44 H 3.692301 2.965843 2.119053 0
M  V30 45 H -2.640402 -1.447477 -3.121392 0
M  V30 46 H -5.014284 -2.260658 -2.984642 0
M  V30 END ATOM
M  V30 BEGIN BOND
M  V30 1 1 1 2
M  V30 2 1 2 3
M  V30 3 2 3 4
M  V30 4 1 4 5
M  V30 5 2 5 6
M  V30 6 1 6 7
M  V30 7 1 7 8
M  V30 8 2 8 9
M  V30 9 1 8 10
M  V30 10 1 10 11
M  V30 11 1 11 12
M  V30 12 2 12 13
M  V30 13 1 13 14
M  V30 14 2 14 15
M  V30 15 1 15 16
M  V30 16 1 15 17
M  V30 17 1 17 18
M  V30 18 2 18 19
M  V30 19 1 19 20
M  V30 20 2 20 21
M  V30 21 1 21 22
M  V30 22 1 22 23
M  V30 23 2 22 24
M  V30 24 1 6 25
M  V30 25 2 25 26
M  V30 26 1 26 3
M  V30 27 1 17 12
M  V30 28 1 24 18
M  V30 29 1 1 27
M  V30 30 1 1 28
M  V30 31 1 1 29
M  V30 32 1 4 30
M  V30 33 1 5 31
M  V30 34 1 7 32
M  V30 35 1 7 33
M  V30 36 1 10 34
M  V30 37 1 11 35
M  V30 38 1 11 36
M  V30 39 1 16 37
M  V30 40 1 19 38
M  V30 41 1 20 39
M  V30 42 1 21 40
M  V30 43 1 23 41
M  V30 44 1 23 42
M  V30 45 1 23 43
M  V30 46 1 24 44
M  V30 47 1 25 45
M  V30 48 1 26 46
M  V30 END BOND
M  V30 END CTAB
M  END
>  <Dataset>  (855) 
ChEMBL_Kinases

>  <Ligand_Instance>  (855) 
nan

>  <PDB_ID>  (855) 
nan

>  <Standardized_SMILES>  (855) 
COc1ccc(CC(=O)NCc2nnc(S)n2-c2cccc(C)c2)cc1

>  <Name>  (855) 
nan

>  <Pocket>  (855) 
nan

>  <ATP_Site>  (855) 
nan

>  <Peripheral>  (855) 
nan

>  <Num_H_Atoms_ProtBoundConf>  (855) 
nan

>  <Num_Resolved_Atoms>  (855) 
nan

>  <Num_Not_Resolved_Atoms>  (855) 
nan

$$$$
CHEMBL1599676
     RDKit          3D

  0  0  0  0  0  0  0  0  0  0999 V3000
M  V30 BEGIN CTAB
M  V30 COUNTS 37 39 0 0 0
M  V30 BEGIN ATOM
M  V30 1 O -1.277282 -1.570406 4.644724 0
M  V30 2 C -1.311378 -1.950174 3.444762 0
M  V30 3 C -0.726393 -3.314182 3.227151 0
M  V30 4 S 1.092300 -3.207829 3.172521 0
M  V30 5 C 1.603427 -2.244483 1.767032 0
M  V30 6 C 1.875007 -2.636476 0.479441 0
M  V30 7 C 2.257918 -1.732865 -0.486377 0
M  V30 8 C 2.355879 -0.414186 -0.098132 0
M  V30 9 C 2.761691 0.598517 -1.061816 0
M  V30 10 C 3.066883 0.372411 -2.387642 0
M  V30 11 C 3.443112 1.423913 -3.190299 0
M  V30 12 N 3.534650 2.690209 -2.753779 0
M  V30 13 C 3.257192 2.994598 -1.486810 0
M  V30 14 C 2.874414 1.924239 -0.671265 0
M  V30 15 N 2.086220 -0.065617 1.156130 0
M  V30 16 N 1.714214 -0.924830 2.103239 0
M  V30 17 N -1.829959 -1.240688 2.315295 0
M  V30 18 C -1.883947 -1.700449 0.949165 0
M  V30 19 C -2.850507 -0.764824 0.258306 0
M  V30 20 C -3.403108 0.172548 1.308578 0
M  V30 21 C -2.380246 0.084468 2.405714 0
M  V30 22 H -1.007993 -3.969516 4.057858 0
M  V30 23 H -1.132104 -3.754858 2.305389 0
M  V30 24 H 1.752226 -3.700472 0.342519 0
M  V30 25 H 2.458435 -2.101272 -1.479297 0
M  V30 26 H 2.999324 -0.634615 -2.759098 0
M  V30 27 H 3.683467 1.235250 -4.238933 0
M  V30 28 H 3.289013 3.981738 -0.997417 0
M  V30 29 H 2.636098 2.129965 0.373619 0
M  V30 30 H -0.877334 -1.629082 0.510625 0
M  V30 31 H -2.256668 -2.763015 0.918368 0
M  V30 32 H -3.682077 -1.315582 -0.224797 0
M  V30 33 H -2.275885 -0.181387 -0.503526 0
M  V30 34 H -4.429294 -0.089414 1.641394 0
M  V30 35 H -3.447175 1.220250 0.886847 0
M  V30 36 H -1.568316 0.784948 2.115399 0
M  V30 37 H -2.804157 0.336744 3.398080 0
M  V30 END ATOM
M  V30 BEGIN BOND
M  V30 1 2 1 2
M  V30 2 1 2 3
M  V30 3 1 3 4
M  V30 4 1 4 5
M  V30 5 2 5 6
M  V30 6 1 6 7
M  V30 7 2 7 8
M  V30 8 1 8 9
M  V30 9 2 9 10
M  V30 10 1 10 11
M  V30 11 2 11 12
M  V30 12 1 12 13
M  V30 13 2 13 14
M  V30 14 1 8 15
M  V30 15 2 15 16
M  V30 16 1 2 17
M  V30 17 1 17 18
M  V30 18 1 18 19
M  V30 19 1 19 20
M  V30 20 1 20 21
M  V30 21 1 16 5
M  V30 22 1 21 17
M  V30 23 1 14 9
M  V30 24 1 3 22
M  V30 25 1 3 23
M  V30 26 1 6 24
M  V30 27 1 7 25
M  V30 28 1 10 26
M  V30 29 1 11 27
M  V30 30 1 13 28
M  V30 31 1 14 29
M  V30 32 1 18 30
M  V30 33 1 18 31
M  V30 34 1 19 32
M  V30 35 1 19 33
M  V30 36 1 20 34
M  V30 37 1 20 35
M  V30 38 1 21 36
M  V30 39 1 21 37
M  V30 END BOND
M  V30 END CTAB
M  END
>  <Dataset>  (856) 
ChEMBL_Kinases

>  <Ligand_Instance>  (856) 
nan

>  <PDB_ID>  (856) 
nan

>  <Standardized_SMILES>  (856) 
O=C(CSc1ccc(-c2ccncc2)nn1)N1CCCC1

>  <Name>  (856) 
nan

>  <Pocket>  (856) 
nan

>  <ATP_Site>  (856) 
nan

>  <Peripheral>  (856) 
nan

>  <Num_H_Atoms_ProtBoundConf>  (856) 
nan

>  <Num_Resolved_Atoms>  (856) 
nan

>  <Num_Not_Resolved_Atoms>  (856) 
nan

$$$$
CHEMBL1599589
     RDKit          3D

  0  0  0  0  0  0  0  0  0  0999 V3000
M  V30 BEGIN CTAB
M  V30 COUNTS 43 47 0 0 0
M  V30 BEGIN ATOM
M  V30 1 C 0.211136 -2.779488 0.177581 0
M  V30 2 C 0.658456 -2.153502 -1.116009 0
M  V30 3 N 1.665381 -1.114106 -0.910163 0
M  V30 4 C 2.988473 -1.357234 -0.898811 0
M  V30 5 C 3.754867 -2.500125 -1.053371 0
M  V30 6 C 5.124850 -2.361283 -0.978987 0
M  V30 7 C 5.752874 -1.140857 -0.758986 0
M  V30 8 C 4.981234 -0.014343 -0.607136 0
M  V30 9 C 3.609184 -0.144200 -0.680306 0
M  V30 10 C 2.654064 0.844011 -0.558183 0
M  V30 11 N 2.639066 2.179981 -0.344840 0
M  V30 12 N 1.525981 2.892957 -0.273399 0
M  V30 13 C 0.327619 2.282797 -0.416855 0
M  V30 14 S -1.292878 2.998939 -0.369180 0
M  V30 15 C -1.995641 3.040763 1.299964 0
M  V30 16 N -2.263451 1.749716 1.850844 0
M  V30 17 C -1.240444 1.087480 2.608461 0
M  V30 18 O -0.059891 1.468339 2.896037 0
M  V30 19 C -1.702991 -0.212626 3.085838 0
M  V30 20 C -1.153770 -1.230726 3.832861 0
M  V30 21 C -1.893906 -2.362142 4.110787 0
M  V30 22 C -3.182346 -2.456839 3.632521 0
M  V30 23 C -3.801526 -1.477412 2.876730 0
M  V30 24 C -3.003668 -0.355820 2.627389 0
M  V30 25 C -3.365984 0.850230 1.861074 0
M  V30 26 O -4.423042 1.178671 1.260286 0
M  V30 27 N 0.316425 0.942842 -0.631886 0
M  V30 28 C 1.435090 0.196350 -0.708629 0
M  V30 29 H 0.813938 -2.434515 1.045895 0
M  V30 30 H 0.296730 -3.877937 0.080217 0
M  V30 31 H -0.883540 -2.601850 0.378556 0
M  V30 32 H -0.257725 -1.714225 -1.596619 0
M  V30 33 H 1.016541 -2.939499 -1.791359 0
M  V30 34 H 3.270647 -3.461508 -1.225837 0
M  V30 35 H 5.708896 -3.268671 -1.102085 0
M  V30 36 H 6.827918 -1.148407 -0.719934 0
M  V30 37 H 5.470906 0.941908 -0.434712 0
M  V30 38 H -2.987442 3.563098 1.210138 0
M  V30 39 H -1.392840 3.674501 1.994422 0
M  V30 40 H -0.138624 -1.135022 4.198441 0
M  V30 41 H -1.447822 -3.135962 4.691580 0
M  V30 42 H -3.788788 -3.350155 3.843092 0
M  V30 43 H -4.798991 -1.543511 2.503364 0
M  V30 END ATOM
M  V30 BEGIN BOND
M  V30 1 1 1 2
M  V30 2 1 2 3
M  V30 3 1 3 4
M  V30 4 2 4 5
M  V30 5 1 5 6
M  V30 6 2 6 7
M  V30 7 1 7 8
M  V30 8 2 8 9
M  V30 9 1 9 10
M  V30 10 2 10 11
M  V30 11 1 11 12
M  V30 12 2 12 13
M  V30 13 1 13 14
M  V30 14 1 14 15
M  V30 15 1 15 16
M  V30 16 1 16 17
M  V30 17 2 17 18
M  V30 18 1 17 19
M  V30 19 2 19 20
M  V30 20 1 20 21
M  V30 21 2 21 22
M  V30 22 1 22 23
M  V30 23 2 23 24
M  V30 24 1 24 25
M  V30 25 2 25 26
M  V30 26 1 13 27
M  V30 27 2 27 28
M  V30 28 1 28 3
M  V30 29 1 9 4
M  V30 30 1 28 10
M  V30 31 1 25 16
M  V30 32 1 24 19
M  V30 33 1 1 29
M  V30 34 1 1 30
M  V30 35 1 1 31
M  V30 36 1 2 32
M  V30 37 1 2 33
M  V30 38 1 5 34
M  V30 39 1 6 35
M  V30 40 1 7 36
M  V30 41 1 8 37
M  V30 42 1 15 38
M  V30 43 1 15 39
M  V30 44 1 20 40
M  V30 45 1 21 41
M  V30 46 1 22 42
M  V30 47 1 23 43
M  V30 END BOND
M  V30 END CTAB
M  END
>  <Dataset>  (857) 
ChEMBL_Kinases

>  <Ligand_Instance>  (857) 
nan

>  <PDB_ID>  (857) 
nan

>  <Standardized_SMILES>  (857) 
CCn1c2ccccc2c2nnc(SCN3C(=O)c4ccccc4C3=O)nc21

>  <Name>  (857) 
nan

>  <Pocket>  (857) 
nan

>  <ATP_Site>  (857) 
nan

>  <Peripheral>  (857) 
nan

>  <Num_H_Atoms_ProtBoundConf>  (857) 
nan

>  <Num_Resolved_Atoms>  (857) 
nan

>  <Num_Not_Resolved_Atoms>  (857) 
nan

$$$$
CHEMBL1599369
     RDKit          3D

  0  0  0  0  0  0  0  0  0  0999 V3000
M  V30 BEGIN CTAB
M  V30 COUNTS 32 34 0 0 0
M  V30 BEGIN ATOM
M  V30 1 C 1.891724 -5.331927 4.738321 0
M  V30 2 O 1.302404 -4.716910 3.614988 0
M  V30 3 C 1.975868 -3.805902 2.783709 0
M  V30 4 O 3.157284 -3.519149 3.044064 0
M  V30 5 C 1.168516 -3.285187 1.666550 0
M  V30 6 C -0.148396 -3.552035 1.307188 0
M  V30 7 C -0.322712 -2.767384 0.184985 0
M  V30 8 C 0.832421 -2.071746 -0.104730 0
M  V30 9 C 1.059902 -1.123206 -1.225393 0
M  V30 10 N 0.726362 0.241459 -0.863154 0
M  V30 11 N 1.554263 1.127081 -0.332987 0
M  V30 12 N 1.168133 2.355635 -0.031184 0
M  V30 13 C -0.078421 2.826446 -0.225965 0
M  V30 14 C -0.467793 4.110280 0.093397 0
M  V30 15 C -1.788224 4.496140 -0.150690 0
M  V30 16 C -2.712230 3.615440 -0.706365 0
M  V30 17 C -2.291299 2.327937 -1.018035 0
M  V30 18 C -0.986518 1.947101 -0.776691 0
M  V30 19 C -0.548127 0.673694 -1.078729 0
M  V30 20 O -1.382952 -0.122376 -1.580895 0
M  V30 21 O 1.680996 -2.438111 0.832332 0
M  V30 22 H 1.416162 -4.876845 5.640529 0
M  V30 23 H 1.583837 -6.411679 4.746433 0
M  V30 24 H 2.985278 -5.290917 4.757387 0
M  V30 25 H -0.788575 -4.230632 1.851858 0
M  V30 26 H -1.271744 -2.741041 -0.360552 0
M  V30 27 H 0.475226 -1.417479 -2.142367 0
M  V30 28 H 2.126257 -1.179770 -1.514293 0
M  V30 29 H 0.253537 4.791010 0.524911 0
M  V30 30 H -2.116430 5.509820 0.095591 0
M  V30 31 H -3.740353 3.889533 -0.905235 0
M  V30 32 H -3.016510 1.626423 -1.457604 0
M  V30 END ATOM
M  V30 BEGIN BOND
M  V30 1 1 1 2
M  V30 2 1 2 3
M  V30 3 2 3 4
M  V30 4 1 3 5
M  V30 5 2 5 6
M  V30 6 1 6 7
M  V30 7 2 7 8
M  V30 8 1 8 9
M  V30 9 1 9 10
M  V30 10 1 10 11
M  V30 11 2 11 12
M  V30 12 1 12 13
M  V30 13 2 13 14
M  V30 14 1 14 15
M  V30 15 2 15 16
M  V30 16 1 16 17
M  V30 17 2 17 18
M  V30 18 1 18 19
M  V30 19 2 19 20
M  V30 20 1 8 21
M  V30 21 1 21 5
M  V30 22 1 19 10
M  V30 23 1 18 13
M  V30 24 1 1 22
M  V30 25 1 1 23
M  V30 26 1 1 24
M  V30 27 1 6 25
M  V30 28 1 7 26
M  V30 29 1 9 27
M  V30 30 1 9 28
M  V30 31 1 14 29
M  V30 32 1 15 30
M  V30 33 1 16 31
M  V30 34 1 17 32
M  V30 END BOND
M  V30 END CTAB
M  END
>  <Dataset>  (858) 
ChEMBL_Kinases

>  <Ligand_Instance>  (858) 
nan

>  <PDB_ID>  (858) 
nan

>  <Standardized_SMILES>  (858) 
COC(=O)c1ccc(Cn2nnc3ccccc3c2=O)o1

>  <Name>  (858) 
nan

>  <Pocket>  (858) 
nan

>  <ATP_Site>  (858) 
nan

>  <Peripheral>  (858) 
nan

>  <Num_H_Atoms_ProtBoundConf>  (858) 
nan

>  <Num_Resolved_Atoms>  (858) 
nan

>  <Num_Not_Resolved_Atoms>  (858) 
nan

$$$$
CHEMBL1599281
     RDKit          3D

  0  0  0  0  0  0  0  0  0  0999 V3000
M  V30 BEGIN CTAB
M  V30 COUNTS 33 33 0 0 0
M  V30 BEGIN ATOM
M  V30 1 C -2.622647 -3.466386 2.965305 0
M  V30 2 C -1.327213 -3.217979 2.276011 0
M  V30 3 C -0.101204 -3.528503 2.832936 0
M  V30 4 C 1.078632 -3.279342 2.154352 0
M  V30 5 C 2.390908 -3.625976 2.782046 0
M  V30 6 N 0.987643 -2.721795 0.928380 0
M  V30 7 C -0.197326 -2.407717 0.359184 0
M  V30 8 N -0.073738 -1.820158 -0.956234 0
M  V30 9 C 0.020884 -0.416156 -0.768023 0
M  V30 10 O 0.012337 0.309820 0.283382 0
M  V30 11 C 0.163888 0.647048 -1.809959 0
M  V30 12 C 0.213485 1.935199 -1.019040 0
M  V30 13 C 0.356141 3.151083 -1.863632 0
M  V30 14 C 0.385852 4.311415 -0.902607 0
M  V30 15 O 0.297565 4.134300 0.341343 0
M  V30 16 O 0.513312 5.637751 -1.356689 0
M  V30 17 C -1.391017 -2.645346 1.013690 0
M  V30 18 H -3.385223 -3.708832 2.210810 0
M  V30 19 H -2.540922 -4.193167 3.781429 0
M  V30 20 H -2.955846 -2.501566 3.442818 0
M  V30 21 H -0.109368 -3.981380 3.837574 0
M  V30 22 H 2.309710 -4.485101 3.462056 0
M  V30 23 H 3.178690 -3.741631 2.011460 0
M  V30 24 H 2.667044 -2.716761 3.371002 0
M  V30 25 H -0.035852 -2.108023 -1.945327 0
M  V30 26 H -0.596348 0.622391 -2.585910 0
M  V30 27 H 1.152759 0.527391 -2.332148 0
M  V30 28 H 1.038121 1.836068 -0.292168 0
M  V30 29 H -0.753691 2.020428 -0.478856 0
M  V30 30 H 1.218107 3.180454 -2.531914 0
M  V30 31 H -0.572149 3.250268 -2.482499 0
M  V30 32 H 0.911013 6.379841 -0.770835 0
M  V30 33 H -2.292571 -2.359707 0.477172 0
M  V30 END ATOM
M  V30 BEGIN BOND
M  V30 1 1 1 2
M  V30 2 2 2 3
M  V30 3 1 3 4
M  V30 4 1 4 5
M  V30 5 2 4 6
M  V30 6 1 6 7
M  V30 7 1 7 8
M  V30 8 1 8 9
M  V30 9 2 9 10
M  V30 10 1 9 11
M  V30 11 1 11 12
M  V30 12 1 12 13
M  V30 13 1 13 14
M  V30 14 2 14 15
M  V30 15 1 14 16
M  V30 16 2 7 17
M  V30 17 1 17 2
M  V30 18 1 1 18
M  V30 19 1 1 19
M  V30 20 1 1 20
M  V30 21 1 3 21
M  V30 22 1 5 22
M  V30 23 1 5 23
M  V30 24 1 5 24
M  V30 25 1 8 25
M  V30 26 1 11 26
M  V30 27 1 11 27
M  V30 28 1 12 28
M  V30 29 1 12 29
M  V30 30 1 13 30
M  V30 31 1 13 31
M  V30 32 1 16 32
M  V30 33 1 17 33
M  V30 END BOND
M  V30 END CTAB
M  END
>  <Dataset>  (859) 
ChEMBL_Kinases

>  <Ligand_Instance>  (859) 
nan

>  <PDB_ID>  (859) 
nan

>  <Standardized_SMILES>  (859) 
Cc1cc(C)nc(NC(=O)CCCC(=O)O)c1

>  <Name>  (859) 
nan

>  <Pocket>  (859) 
nan

>  <ATP_Site>  (859) 
nan

>  <Peripheral>  (859) 
nan

>  <Num_H_Atoms_ProtBoundConf>  (859) 
nan

>  <Num_Resolved_Atoms>  (859) 
nan

>  <Num_Not_Resolved_Atoms>  (859) 
nan

$$$$
CHEMBL1598964
     RDKit          3D

  0  0  0  0  0  0  0  0  0  0999 V3000
M  V30 BEGIN CTAB
M  V30 COUNTS 32 34 0 0 0
M  V30 BEGIN ATOM
M  V30 1 C -2.399496 -2.745736 2.679411 0
M  V30 2 C -1.874286 -4.009619 2.042895 0
M  V30 3 C -0.352927 -4.118438 2.198080 0
M  V30 4 C 0.065775 -2.989032 1.311601 0
M  V30 5 C 1.201646 -2.216353 1.366231 0
M  V30 6 C 1.395308 -1.215417 0.448553 0
M  V30 7 C 2.519264 -0.301876 0.291147 0
M  V30 8 C 2.314535 1.012743 0.176071 0
M  V30 9 S 3.538853 2.335813 -0.031874 0
M  V30 10 C 2.373636 3.375515 -0.962939 0
M  V30 11 S 2.572506 4.479393 -2.175430 0
M  V30 12 N 1.126675 3.026168 -0.390920 0
M  V30 13 C -0.040559 3.933049 -0.454124 0
M  V30 14 C 1.071579 1.769529 0.224642 0
M  V30 15 O 0.020790 1.297334 0.797029 0
M  V30 16 C 0.404633 -1.033053 -0.513870 0
M  V30 17 C -0.733783 -1.806896 -0.569508 0
M  V30 18 C -0.942965 -2.827760 0.358027 0
M  V30 19 O -1.932042 -3.791356 0.619383 0
M  V30 20 H -3.161599 -2.288113 1.999605 0
M  V30 21 H -1.556390 -2.025199 2.742403 0
M  V30 22 H -2.850439 -2.903439 3.682358 0
M  V30 23 H -2.388120 -4.922303 2.321781 0
M  V30 24 H -0.034803 -4.014230 3.232691 0
M  V30 25 H -0.035586 -5.053472 1.720262 0
M  V30 26 H 2.001912 -2.308392 2.080992 0
M  V30 27 H 3.577278 -0.549989 0.250286 0
M  V30 28 H -0.988899 3.359656 -0.344409 0
M  V30 29 H -0.099843 4.463753 -1.417534 0
M  V30 30 H 0.001115 4.707876 0.343045 0
M  V30 31 H 0.421903 -0.294227 -1.315745 0
M  V30 32 H -1.517785 -1.690225 -1.302765 0
M  V30 END ATOM
M  V30 BEGIN BOND
M  V30 1 1 1 2
M  V30 2 1 2 3
M  V30 3 1 3 4
M  V30 4 2 4 5
M  V30 5 1 5 6
M  V30 6 1 6 7
M  V30 7 2 7 8
M  V30 8 1 8 9
M  V30 9 1 9 10
M  V30 10 2 10 11
M  V30 11 1 10 12
M  V30 12 1 12 13
M  V30 13 1 12 14
M  V30 14 2 14 15
M  V30 15 2 6 16
M  V30 16 1 16 17
M  V30 17 2 17 18
M  V30 18 1 18 19
M  V30 19 1 19 2
M  V30 20 1 18 4
M  V30 21 1 14 8
M  V30 22 1 1 20
M  V30 23 1 1 21
M  V30 24 1 1 22
M  V30 25 1 2 23
M  V30 26 1 3 24
M  V30 27 1 3 25
M  V30 28 1 5 26
M  V30 29 1 7 27
M  V30 30 1 13 28
M  V30 31 1 13 29
M  V30 32 1 13 30
M  V30 33 1 16 31
M  V30 34 1 17 32
M  V30 END BOND
M  V30 END CTAB
M  END
>  <Dataset>  (860) 
ChEMBL_Kinases

>  <Ligand_Instance>  (860) 
nan

>  <PDB_ID>  (860) 
nan

>  <Standardized_SMILES>  (860) 
CC1Cc2cc(/C=C3/SC(=S)N(C)C3=O)ccc2O1

>  <Name>  (860) 
nan

>  <Pocket>  (860) 
nan

>  <ATP_Site>  (860) 
nan

>  <Peripheral>  (860) 
nan

>  <Num_H_Atoms_ProtBoundConf>  (860) 
nan

>  <Num_Resolved_Atoms>  (860) 
nan

>  <Num_Not_Resolved_Atoms>  (860) 
nan

$$$$
CHEMBL1598873
     RDKit          3D

  0  0  0  0  0  0  0  0  0  0999 V3000
M  V30 BEGIN CTAB
M  V30 COUNTS 48 51 0 0 0
M  V30 BEGIN ATOM
M  V30 1 C 0.033842 -6.110232 1.590381 0
M  V30 2 N -0.786580 -5.007556 1.224570 0
M  V30 3 C -1.193829 -4.927598 -0.137915 0
M  V30 4 C -0.257078 -4.120783 -1.020094 0
M  V30 5 N -0.148267 -2.746679 -0.485642 0
M  V30 6 C 0.758528 -2.023187 -1.337042 0
M  V30 7 C 0.782957 -0.560209 -1.107612 0
M  V30 8 O 1.633792 -0.002565 -1.863751 0
M  V30 9 N -0.051209 0.096681 -0.166017 0
M  V30 10 C -0.305125 1.410380 0.302000 0
M  V30 11 C 0.293856 2.152584 1.322009 0
M  V30 12 C 1.399330 1.670652 2.160897 0
M  V30 13 O 1.796070 0.519587 1.859406 0
M  V30 14 C 1.875701 2.588735 3.212424 0
M  V30 15 C 2.600896 2.022180 4.432508 0
M  V30 16 C 3.395859 2.648294 3.332746 0
M  V30 17 O -0.311743 3.314251 1.365725 0
M  V30 18 C -1.261457 3.426133 0.473419 0
M  V30 19 C -2.140987 4.440587 0.160246 0
M  V30 20 C -3.034799 4.205311 -0.869532 0
M  V30 21 C -3.123399 3.037765 -1.615250 0
M  V30 22 C -2.209832 2.034472 -1.261916 0
M  V30 23 C -1.308304 2.227004 -0.248267 0
M  V30 24 C 0.491555 -2.927600 0.826250 0
M  V30 25 C -0.417597 -3.732042 1.732915 0
M  V30 26 H 0.929286 -5.810378 2.196592 0
M  V30 27 H 0.426572 -6.684250 0.721011 0
M  V30 28 H -0.533167 -6.853319 2.219339 0
M  V30 29 H -1.235354 -5.952817 -0.557948 0
M  V30 30 H -2.233192 -4.532087 -0.195749 0
M  V30 31 H -0.697885 -4.090900 -2.027418 0
M  V30 32 H 0.736508 -4.568297 -0.993235 0
M  V30 33 H 0.557849 -2.229865 -2.427276 0
M  V30 34 H 1.819917 -2.389761 -1.210140 0
M  V30 35 H -0.748692 -0.465302 0.409686 0
M  V30 36 H 1.339940 3.572573 3.350038 0
M  V30 37 H 2.646230 0.922857 4.562911 0
M  V30 38 H 2.471693 2.581267 5.399023 0
M  V30 39 H 3.996721 2.003192 2.677761 0
M  V30 40 H 3.836911 3.652176 3.522567 0
M  V30 41 H -2.108735 5.364157 0.715164 0
M  V30 42 H -3.700569 5.046755 -1.063883 0
M  V30 43 H -3.857856 2.959471 -2.398498 0
M  V30 44 H -2.255464 1.095782 -1.836555 0
M  V30 45 H 0.723303 -1.987653 1.287288 0
M  V30 46 H 1.423838 -3.533405 0.713887 0
M  V30 47 H 0.068350 -3.766015 2.732667 0
M  V30 48 H -1.374362 -3.137558 1.815036 0
M  V30 END ATOM
M  V30 BEGIN BOND
M  V30 1 1 1 2
M  V30 2 1 2 3
M  V30 3 1 3 4
M  V30 4 1 4 5
M  V30 5 1 5 6
M  V30 6 1 6 7
M  V30 7 2 7 8
M  V30 8 1 7 9
M  V30 9 1 9 10
M  V30 10 2 10 11
M  V30 11 1 11 12
M  V30 12 2 12 13
M  V30 13 1 12 14
M  V30 14 1 14 15
M  V30 15 1 15 16
M  V30 16 1 11 17
M  V30 17 1 17 18
M  V30 18 2 18 19
M  V30 19 1 19 20
M  V30 20 2 20 21
M  V30 21 1 21 22
M  V30 22 2 22 23
M  V30 23 1 5 24
M  V30 24 1 24 25
M  V30 25 1 25 2
M  V30 26 1 23 10
M  V30 27 1 16 14
M  V30 28 1 23 18
M  V30 29 1 1 26
M  V30 30 1 1 27
M  V30 31 1 1 28
M  V30 32 1 3 29
M  V30 33 1 3 30
M  V30 34 1 4 31
M  V30 35 1 4 32
M  V30 36 1 6 33
M  V30 37 1 6 34
M  V30 38 1 9 35
M  V30 39 1 14 36
M  V30 40 1 15 37
M  V30 41 1 15 38
M  V30 42 1 16 39
M  V30 43 1 16 40
M  V30 44 1 19 41
M  V30 45 1 20 42
M  V30 46 1 21 43
M  V30 47 1 22 44
M  V30 48 1 24 45
M  V30 49 1 24 46
M  V30 50 1 25 47
M  V30 51 1 25 48
M  V30 END BOND
M  V30 END CTAB
M  END
>  <Dataset>  (861) 
ChEMBL_Kinases

>  <Ligand_Instance>  (861) 
nan

>  <PDB_ID>  (861) 
nan

>  <Standardized_SMILES>  (861) 
CN1CCN(CC(=O)Nc2c(C(=O)C3CC3)oc3ccccc23)CC1

>  <Name>  (861) 
nan

>  <Pocket>  (861) 
nan

>  <ATP_Site>  (861) 
nan

>  <Peripheral>  (861) 
nan

>  <Num_H_Atoms_ProtBoundConf>  (861) 
nan

>  <Num_Resolved_Atoms>  (861) 
nan

>  <Num_Not_Resolved_Atoms>  (861) 
nan

$$$$
CHEMBL1598852
     RDKit          3D

  0  0  0  0  0  0  0  0  0  0999 V3000
M  V30 BEGIN CTAB
M  V30 COUNTS 38 41 0 0 0
M  V30 BEGIN ATOM
M  V30 1 O 0.618045 -3.915282 -0.235375 0
M  V30 2 C 1.219476 -2.819825 -0.235598 0
M  V30 3 C 2.650624 -2.939078 -0.516317 0
M  V30 4 C 3.429010 -4.071113 -0.778585 0
M  V30 5 C 4.745784 -3.886628 -1.006668 0
M  V30 6 C 5.325687 -2.579811 -0.981264 0
M  V30 7 S 3.809199 -1.524194 -0.588372 0
M  V30 8 N 0.701104 -1.522609 -0.005022 0
M  V30 9 N 1.319186 -0.352693 -0.000706 0
M  V30 10 C 0.425761 0.629396 0.267826 0
M  V30 11 C 0.740379 2.053309 0.355175 0
M  V30 12 C 0.204942 3.000297 -0.519343 0
M  V30 13 C 0.523287 4.339166 -0.409009 0
M  V30 14 C 1.379018 4.755014 0.573122 0
M  V30 15 N 1.907139 3.863939 1.426436 0
M  V30 16 C 1.603683 2.535860 1.332424 0
M  V30 17 N -0.751499 -0.004112 0.423537 0
M  V30 18 C -0.605878 -1.345836 0.258308 0
M  V30 19 N -1.691878 -2.257821 0.368253 0
M  V30 20 C -3.052510 -1.801908 0.670349 0
M  V30 21 C -3.131515 -1.107136 1.963992 0
M  V30 22 C -3.399763 -1.854886 3.106103 0
M  V30 23 C -3.421581 -0.984172 4.173572 0
M  V30 24 C -3.162002 0.277491 3.631296 0
M  V30 25 O -2.999770 0.143858 2.327645 0
M  V30 26 H 2.984155 -5.050639 -0.795709 0
M  V30 27 H 5.471361 -4.657457 -1.221932 0
M  V30 28 H 6.252600 -2.209523 -1.117128 0
M  V30 29 H -0.474007 2.614960 -1.286661 0
M  V30 30 H 0.084187 5.039395 -1.109736 0
M  V30 31 H 1.636963 5.797488 0.671651 0
M  V30 32 H 2.048732 1.839238 2.039819 0
M  V30 33 H -1.574145 -3.283394 0.240794 0
M  V30 34 H -3.791698 -2.584366 0.520762 0
M  V30 35 H -3.268586 -1.020505 -0.112750 0
M  V30 36 H -3.573995 -2.910513 3.251657 0
M  V30 37 H -3.602441 -1.223886 5.220255 0
M  V30 38 H -3.104331 1.196847 4.179377 0
M  V30 END ATOM
M  V30 BEGIN BOND
M  V30 1 2 1 2
M  V30 2 1 2 3
M  V30 3 2 3 4
M  V30 4 1 4 5
M  V30 5 2 5 6
M  V30 6 1 6 7
M  V30 7 1 2 8
M  V30 8 1 8 9
M  V30 9 2 9 10
M  V30 10 1 10 11
M  V30 11 2 11 12
M  V30 12 1 12 13
M  V30 13 2 13 14
M  V30 14 1 14 15
M  V30 15 2 15 16
M  V30 16 1 10 17
M  V30 17 2 17 18
M  V30 18 1 18 19
M  V30 19 1 19 20
M  V30 20 1 20 21
M  V30 21 2 21 22
M  V30 22 1 22 23
M  V30 23 2 23 24
M  V30 24 1 24 25
M  V30 25 1 7 3
M  V30 26 1 18 8
M  V30 27 1 25 21
M  V30 28 1 16 11
M  V30 29 1 4 26
M  V30 30 1 5 27
M  V30 31 1 6 28
M  V30 32 1 12 29
M  V30 33 1 13 30
M  V30 34 1 14 31
M  V30 35 1 16 32
M  V30 36 1 19 33
M  V30 37 1 20 34
M  V30 38 1 20 35
M  V30 39 1 22 36
M  V30 40 1 23 37
M  V30 41 1 24 38
M  V30 END BOND
M  V30 END CTAB
M  END
>  <Dataset>  (862) 
ChEMBL_Kinases

>  <Ligand_Instance>  (862) 
nan

>  <PDB_ID>  (862) 
nan

>  <Standardized_SMILES>  (862) 
O=C(c1cccs1)n1nc(-c2cccnc2)nc1NCc1ccco1

>  <Name>  (862) 
nan

>  <Pocket>  (862) 
nan

>  <ATP_Site>  (862) 
nan

>  <Peripheral>  (862) 
nan

>  <Num_H_Atoms_ProtBoundConf>  (862) 
nan

>  <Num_Resolved_Atoms>  (862) 
nan

>  <Num_Not_Resolved_Atoms>  (862) 
nan

$$$$
CHEMBL1598806
     RDKit          3D

  0  0  0  0  0  0  0  0  0  0999 V3000
M  V30 BEGIN CTAB
M  V30 COUNTS 41 44 0 0 0
M  V30 BEGIN ATOM
M  V30 1 C -0.455446 -5.609962 1.537580 0
M  V30 2 C 0.055253 -4.216737 1.459168 0
M  V30 3 C 0.422103 -3.647407 0.258733 0
M  V30 4 C 0.897764 -2.330675 0.234707 0
M  V30 5 C 1.008735 -1.575445 1.415795 0
M  V30 6 C 1.532345 -0.264324 1.092707 0
M  V30 7 N 0.872672 0.507636 0.087007 0
M  V30 8 C -0.237588 0.563316 -0.827074 0
M  V30 9 C -1.317223 -0.256727 -0.617204 0
M  V30 10 C -2.403454 -0.296339 -1.464377 0
M  V30 11 C -2.440255 0.510597 -2.580501 0
M  V30 12 C -1.363243 1.338973 -2.801952 0
M  V30 13 C -0.297041 1.356112 -1.941884 0
M  V30 14 C 1.773576 1.648206 0.037131 0
M  V30 15 O 2.261635 2.477380 -0.807887 0
M  V30 16 N 2.197431 1.830859 1.413483 0
M  V30 17 C 2.779582 2.457804 2.619350 0
M  V30 18 C 1.488688 2.442779 3.472963 0
M  V30 19 C 0.717826 1.240943 2.855606 0
M  V30 20 N 1.798113 0.645824 2.131618 0
M  V30 21 C 0.620840 -2.224281 2.563927 0
M  V30 22 C 0.148517 -3.512107 2.638529 0
M  V30 23 H -1.573556 -5.537300 1.395847 0
M  V30 24 H -0.043920 -6.230475 0.707255 0
M  V30 25 H -0.231524 -6.031373 2.526751 0
M  V30 26 H 0.308748 -4.287251 -0.599192 0
M  V30 27 H 1.137468 -2.046775 -0.783048 0
M  V30 28 H 2.584776 -0.467074 0.638873 0
M  V30 29 H -1.472045 -0.924007 0.192223 0
M  V30 30 H -3.282613 -0.915813 -1.359314 0
M  V30 31 H -3.232160 0.549537 -3.289798 0
M  V30 32 H -1.348240 1.987854 -3.662379 0
M  V30 33 H 0.512388 2.026574 -2.176233 0
M  V30 34 H 3.105779 3.473837 2.409988 0
M  V30 35 H 3.530227 1.778094 3.027198 0
M  V30 36 H 1.775360 2.185646 4.510121 0
M  V30 37 H 0.913013 3.366210 3.365430 0
M  V30 38 H -0.068552 1.682656 2.190154 0
M  V30 39 H 0.248999 0.669002 3.640359 0
M  V30 40 H 0.738468 -1.595275 3.430349 0
M  V30 41 H -0.110610 -3.866539 3.613073 0
M  V30 END ATOM
M  V30 BEGIN BOND
M  V30 1 1 1 2
M  V30 2 2 2 3
M  V30 3 1 3 4
M  V30 4 2 4 5
M  V30 5 1 5 6
M  V30 6 1 6 7
M  V30 7 1 7 8
M  V30 8 2 8 9
M  V30 9 1 9 10
M  V30 10 2 10 11
M  V30 11 1 11 12
M  V30 12 2 12 13
M  V30 13 1 7 14
M  V30 14 2 14 15
M  V30 15 1 14 16
M  V30 16 1 16 17
M  V30 17 1 17 18
M  V30 18 1 18 19
M  V30 19 1 19 20
M  V30 20 1 5 21
M  V30 21 2 21 22
M  V30 22 1 22 2
M  V30 23 1 20 6
M  V30 24 1 13 8
M  V30 25 1 20 16
M  V30 26 1 1 23
M  V30 27 1 1 24
M  V30 28 1 1 25
M  V30 29 1 3 26
M  V30 30 1 4 27
M  V30 31 1 6 28
M  V30 32 1 9 29
M  V30 33 1 10 30
M  V30 34 1 11 31
M  V30 35 1 12 32
M  V30 36 1 13 33
M  V30 37 1 17 34
M  V30 38 1 17 35
M  V30 39 1 18 36
M  V30 40 1 18 37
M  V30 41 1 19 38
M  V30 42 1 19 39
M  V30 43 1 21 40
M  V30 44 1 22 41
M  V30 END BOND
M  V30 END CTAB
M  END
>  <Dataset>  (863) 
ChEMBL_Kinases

>  <Ligand_Instance>  (863) 
nan

>  <PDB_ID>  (863) 
nan

>  <Standardized_SMILES>  (863) 
Cc1ccc(C2N(c3ccccc3)C(=O)N3CCCN23)cc1

>  <Name>  (863) 
nan

>  <Pocket>  (863) 
nan

>  <ATP_Site>  (863) 
nan

>  <Peripheral>  (863) 
nan

>  <Num_H_Atoms_ProtBoundConf>  (863) 
nan

>  <Num_Resolved_Atoms>  (863) 
nan

>  <Num_Not_Resolved_Atoms>  (863) 
nan

$$$$
CHEMBL1598680
     RDKit          3D

  0  0  0  0  0  0  0  0  0  0999 V3000
M  V30 BEGIN CTAB
M  V30 COUNTS 64 66 0 0 0
M  V30 BEGIN ATOM
M  V30 1 C 2.465689 -0.884307 4.420614 0
M  V30 2 O 2.060273 -0.534951 3.127320 0
M  V30 3 C 2.835483 0.177043 2.225348 0
M  V30 4 O 3.958421 0.480075 2.699689 0
M  V30 5 C 2.407789 0.538319 0.879296 0
M  V30 6 C 3.253718 1.219674 0.129526 0
M  V30 7 C 4.607059 1.642491 0.561274 0
M  V30 8 N 2.772261 1.536389 -1.167563 0
M  V30 9 C 1.486212 1.194282 -1.725473 0
M  V30 10 C 1.124783 1.591542 -3.089584 0
M  V30 11 C 0.702659 0.513988 -0.910763 0
M  V30 12 C -0.643117 0.108723 -1.379236 0
M  V30 13 O -0.942518 0.455468 -2.550069 0
M  V30 14 O -1.506817 -0.607322 -0.567288 0
M  V30 15 C -2.762152 -0.976383 -1.032840 0
M  V30 16 C -2.795316 -1.857915 -2.224683 0
M  V30 17 N -2.193428 -3.102548 -2.232389 0
M  V30 18 C -2.391426 -3.664118 -3.590544 0
M  V30 19 C -2.505798 -4.138073 -1.330692 0
M  V30 20 C -2.095385 -3.994813 0.077055 0
M  V30 21 C -0.758100 -4.330094 0.279990 0
M  V30 22 C -0.096392 -4.323914 1.505091 0
M  V30 23 C -0.797260 -3.960347 2.626853 0
M  V30 24 C -2.121301 -3.620014 2.481457 0
M  V30 25 C -2.716788 -3.644172 1.258046 0
M  V30 26 C 1.056795 0.100817 0.488352 0 CFG=2
M  V30 27 C 0.055805 0.670856 1.454242 0
M  V30 28 C -0.883026 0.024558 2.230373 0
M  V30 29 C -1.688764 0.785856 3.041416 0
M  V30 30 C -1.594184 2.151797 3.106454 0
M  V30 31 C -0.658729 2.798763 2.333439 0
M  V30 32 N -0.584465 4.223925 2.423613 0 CHG=1 VAL=4
M  V30 33 O 0.233849 4.872885 1.756744 0
M  V30 34 O -1.387729 4.990509 3.233034 0 CHG=-1 VAL=1
M  V30 35 C 0.178116 2.064183 1.497261 0
M  V30 36 H 3.487079 -1.289336 4.411540 0
M  V30 37 H 1.703092 -1.577371 4.823223 0
M  V30 38 H 2.417403 0.047341 5.048232 0
M  V30 39 H 4.573877 2.337819 1.422399 0
M  V30 40 H 5.287485 0.763679 0.739205 0
M  V30 41 H 5.093052 2.200357 -0.260828 0
M  V30 42 H 3.431215 2.084614 -1.794284 0
M  V30 43 H 1.035842 0.696661 -3.735504 0
M  V30 44 H 0.296618 2.313077 -3.174718 0
M  V30 45 H 2.011894 2.145083 -3.522012 0
M  V30 46 H -3.383731 -0.026417 -1.272080 0
M  V30 47 H -3.347404 -1.417301 -0.217604 0
M  V30 48 H -2.426703 -1.215505 -3.097016 0
M  V30 49 H -3.887452 -2.016835 -2.559585 0
M  V30 50 H -1.916125 -3.024676 -4.334402 0
M  V30 51 H -2.129224 -4.729403 -3.618709 0
M  V30 52 H -3.497420 -3.609861 -3.746843 0
M  V30 53 H -3.641713 -4.342210 -1.328660 0
M  V30 54 H -2.115801 -5.140730 -1.656239 0
M  V30 55 H -0.073530 -4.640656 -0.523784 0
M  V30 56 H 0.924939 -4.582246 1.645456 0
M  V30 57 H -0.411651 -3.914169 3.618748 0
M  V30 58 H -2.792330 -3.314921 3.274559 0
M  V30 59 H -3.769073 -3.394683 1.036747 0
M  V30 60 H 0.918860 -1.002448 0.494106 0
M  V30 61 H -0.858991 -1.039369 2.091493 0
M  V30 62 H -2.405045 0.208544 3.624331 0
M  V30 63 H -2.259939 2.713327 3.769362 0
M  V30 64 H 0.869029 2.679082 0.941222 0
M  V30 END ATOM
M  V30 BEGIN BOND
M  V30 1 1 1 2
M  V30 2 1 2 3
M  V30 3 2 3 4
M  V30 4 1 3 5
M  V30 5 2 5 6
M  V30 6 1 6 7
M  V30 7 1 6 8
M  V30 8 1 8 9
M  V30 9 1 9 10
M  V30 10 2 9 11
M  V30 11 1 11 12
M  V30 12 2 12 13
M  V30 13 1 12 14
M  V30 14 1 14 15
M  V30 15 1 15 16
M  V30 16 1 16 17
M  V30 17 1 17 18
M  V30 18 1 17 19
M  V30 19 1 19 20
M  V30 20 2 20 21
M  V30 21 1 21 22
M  V30 22 2 22 23
M  V30 23 1 23 24
M  V30 24 2 24 25
M  V30 25 1 11 26
M  V30 26 1 26 27
M  V30 27 2 27 28
M  V30 28 1 28 29
M  V30 29 2 29 30
M  V30 30 1 30 31
M  V30 31 1 31 32
M  V30 32 2 32 33
M  V30 33 1 32 34
M  V30 34 2 31 35
M  V30 35 1 26 5
M  V30 36 1 35 27
M  V30 37 1 25 20
M  V30 38 1 1 36
M  V30 39 1 1 37
M  V30 40 1 1 38
M  V30 41 1 7 39
M  V30 42 1 7 40
M  V30 43 1 7 41
M  V30 44 1 8 42
M  V30 45 1 10 43
M  V30 46 1 10 44
M  V30 47 1 10 45
M  V30 48 1 15 46
M  V30 49 1 15 47
M  V30 50 1 16 48
M  V30 51 1 16 49
M  V30 52 1 18 50
M  V30 53 1 18 51
M  V30 54 1 18 52
M  V30 55 1 19 53
M  V30 56 1 19 54
M  V30 57 1 21 55
M  V30 58 1 22 56
M  V30 59 1 23 57
M  V30 60 1 24 58
M  V30 61 1 25 59
M  V30 62 1 26 60 CFG=3
M  V30 63 1 28 61
M  V30 64 1 29 62
M  V30 65 1 30 63
M  V30 66 1 35 64
M  V30 END BOND
M  V30 END CTAB
M  END
>  <Dataset>  (864) 
ChEMBL_Kinases

>  <Ligand_Instance>  (864) 
nan

>  <PDB_ID>  (864) 
nan

>  <Standardized_SMILES>  (864) 
COC(=O)C1=C(C)NC(C)=C(C(=O)OCCN(C)Cc2ccccc2)[C@@H]1c1cccc([N+](=O)[O-])c1

>  <Name>  (864) 
nan

>  <Pocket>  (864) 
nan

>  <ATP_Site>  (864) 
nan

>  <Peripheral>  (864) 
nan

>  <Num_H_Atoms_ProtBoundConf>  (864) 
nan

>  <Num_Resolved_Atoms>  (864) 
nan

>  <Num_Not_Resolved_Atoms>  (864) 
nan

$$$$
CHEMBL1598592
     RDKit          3D

  0  0  0  0  0  0  0  0  0  0999 V3000
M  V30 BEGIN CTAB
M  V30 COUNTS 46 49 0 0 0
M  V30 BEGIN ATOM
M  V30 1 N 2.037186 -1.669740 -3.222932 0
M  V30 2 C 1.630758 -1.397807 -2.162562 0
M  V30 3 C 1.113459 -1.082094 -0.848212 0
M  V30 4 C 0.287116 -1.934000 -0.272367 0
M  V30 5 N -0.050558 -3.122565 -0.979774 0
M  V30 6 N -0.216195 -1.586214 1.037975 0
M  V30 7 C 0.210301 -0.357177 1.615532 0
M  V30 8 C 1.039676 0.451514 0.990949 0
M  V30 9 C 1.341414 1.654936 1.762075 0
M  V30 10 N 1.567392 2.637223 2.380973 0
M  V30 11 C 1.646495 0.239615 -0.337255 0
M  V30 12 C 3.139223 0.212794 -0.341991 0
M  V30 13 C 3.737495 1.547029 -0.136733 0
M  V30 14 C 3.165796 2.644767 -0.961556 0
M  V30 15 C 1.683144 2.624041 -1.115047 0
M  V30 16 C 1.134665 1.244878 -1.356455 0
M  V30 17 S -0.650193 -0.336641 3.213179 0
M  V30 18 C -0.947270 -2.131286 3.263944 0
M  V30 19 C -2.239058 -2.377552 3.971220 0
M  V30 20 C -3.115921 -1.154426 3.689238 0
M  V30 21 C -3.160419 -0.981769 2.182218 0
M  V30 22 C -2.569976 -2.150159 1.446151 0
M  V30 23 C -1.117422 -2.401930 1.775084 0
M  V30 24 O -0.881034 -3.737343 1.548896 0
M  V30 25 H 0.037970 -4.117161 -0.631765 0
M  V30 26 H -0.421450 -2.968640 -1.938405 0
M  V30 27 H 3.544347 -0.505676 0.401555 0
M  V30 28 H 3.439521 -0.139672 -1.364731 0
M  V30 29 H 3.767601 1.874893 0.923574 0
M  V30 30 H 4.845421 1.512462 -0.417075 0
M  V30 31 H 3.407790 3.623103 -0.450476 0
M  V30 32 H 3.671467 2.741672 -1.952755 0
M  V30 33 H 1.114724 3.132323 -0.335268 0
M  V30 34 H 1.460546 3.194077 -2.064612 0
M  V30 35 H 1.350988 0.829965 -2.354309 0
M  V30 36 H 0.038887 1.285798 -1.240767 0
M  V30 37 H -0.085987 -2.690602 3.679833 0
M  V30 38 H -2.739993 -3.327208 3.732004 0
M  V30 39 H -2.015891 -2.440859 5.069736 0
M  V30 40 H -2.578860 -0.290782 4.132014 0
M  V30 41 H -4.111381 -1.301089 4.142887 0
M  V30 42 H -2.773400 0.003662 1.842882 0
M  V30 43 H -4.240001 -0.965273 1.917083 0
M  V30 44 H -3.147500 -3.046944 1.752485 0
M  V30 45 H -2.762152 -2.010267 0.380609 0
M  V30 46 H -1.700426 -4.276347 1.520850 0
M  V30 END ATOM
M  V30 BEGIN BOND
M  V30 1 3 1 2
M  V30 2 1 2 3
M  V30 3 2 3 4
M  V30 4 1 4 5
M  V30 5 1 4 6
M  V30 6 1 6 7
M  V30 7 2 7 8
M  V30 8 1 8 9
M  V30 9 3 9 10
M  V30 10 1 8 11
M  V30 11 1 11 12
M  V30 12 1 12 13
M  V30 13 1 13 14
M  V30 14 1 14 15
M  V30 15 1 15 16
M  V30 16 1 7 17
M  V30 17 1 17 18
M  V30 18 1 18 19
M  V30 19 1 19 20
M  V30 20 1 20 21
M  V30 21 1 21 22
M  V30 22 1 22 23
M  V30 23 1 23 24
M  V30 24 1 11 3
M  V30 25 1 23 18
M  V30 26 1 23 6
M  V30 27 1 16 11
M  V30 28 1 5 25
M  V30 29 1 5 26
M  V30 30 1 12 27
M  V30 31 1 12 28
M  V30 32 1 13 29
M  V30 33 1 13 30
M  V30 34 1 14 31
M  V30 35 1 14 32
M  V30 36 1 15 33
M  V30 37 1 15 34
M  V30 38 1 16 35
M  V30 39 1 16 36
M  V30 40 1 18 37
M  V30 41 1 19 38
M  V30 42 1 19 39
M  V30 43 1 20 40
M  V30 44 1 20 41
M  V30 45 1 21 42
M  V30 46 1 21 43
M  V30 47 1 22 44
M  V30 48 1 22 45
M  V30 49 1 24 46
M  V30 END BOND
M  V30 END CTAB
M  END
>  <Dataset>  (865) 
ChEMBL_Kinases

>  <Ligand_Instance>  (865) 
nan

>  <PDB_ID>  (865) 
nan

>  <Standardized_SMILES>  (865) 
N#CC1=C(N)N2C(=C(C#N)C13CCCCC3)SC1CCCCC12O

>  <Name>  (865) 
nan

>  <Pocket>  (865) 
nan

>  <ATP_Site>  (865) 
nan

>  <Peripheral>  (865) 
nan

>  <Num_H_Atoms_ProtBoundConf>  (865) 
nan

>  <Num_Resolved_Atoms>  (865) 
nan

>  <Num_Not_Resolved_Atoms>  (865) 
nan

$$$$
CHEMBL1598352
     RDKit          3D

  0  0  0  0  0  0  0  0  0  0999 V3000
M  V30 BEGIN CTAB
M  V30 COUNTS 59 61 0 0 0
M  V30 BEGIN ATOM
M  V30 1 C 4.638258 -4.374970 4.236359 0
M  V30 2 C 5.398308 -5.030588 3.104225 0
M  V30 3 O 4.614083 -5.162698 1.957974 0
M  V30 4 C 4.028591 -4.121923 1.253701 0
M  V30 5 C 4.149527 -2.791763 1.602743 0
M  V30 6 C 3.564230 -1.758270 0.898008 0
M  V30 7 N 3.704777 -0.472293 1.269435 0
M  V30 8 C 3.112528 0.521510 0.549455 0
M  V30 9 O 3.334965 1.667453 1.020082 0
M  V30 10 N 2.371177 0.233005 -0.553755 0
M  V30 11 C 1.785895 1.361141 -1.246026 0
M  V30 12 C 0.432217 1.712908 -0.746663 0
M  V30 13 C 0.162254 2.590405 0.260898 0
M  V30 14 C -1.087324 2.911609 0.717944 0
M  V30 15 C -2.183242 2.310996 0.126503 0
M  V30 16 C -3.510973 2.663279 0.624485 0
M  V30 17 O -3.594984 3.491814 1.562610 0
M  V30 18 N -4.705471 2.132341 0.119066 0
M  V30 19 C -5.864658 2.674153 0.817219 0
M  V30 20 C -7.151406 2.119750 0.292497 0
M  V30 21 O -8.251105 2.620421 0.940742 0
M  V30 22 C -8.427585 3.978691 0.877317 0
M  V30 23 C -1.978551 1.420146 -0.891072 0
M  V30 24 C -0.686906 1.114450 -1.333902 0
M  V30 25 C 2.226812 -1.050462 -0.930335 0
M  V30 26 O 1.538673 -1.299604 -1.951899 0
M  V30 27 C 2.817871 -2.074577 -0.216064 0
M  V30 28 C 2.689075 -3.395061 -0.575184 0
M  V30 29 C 3.277980 -4.417957 0.136179 0
M  V30 30 O 3.143881 -5.744221 -0.231183 0
M  V30 31 C 2.423037 -6.226636 -1.328787 0
M  V30 32 C 0.973703 -5.893772 -1.303089 0
M  V30 33 H 4.492620 -5.084034 5.089124 0
M  V30 34 H 5.146637 -3.476221 4.631975 0
M  V30 35 H 3.621144 -4.087926 3.911141 0
M  V30 36 H 5.753975 -6.027407 3.419395 0
M  V30 37 H 6.319235 -4.429454 2.923494 0
M  V30 38 H 4.730248 -2.524107 2.471335 0
M  V30 39 H 4.283861 -0.309865 2.122884 0
M  V30 40 H 1.678614 1.085718 -2.311039 0
M  V30 41 H 2.470520 2.227147 -1.201776 0
M  V30 42 H 0.988164 3.075311 0.742913 0
M  V30 43 H -1.211507 3.630035 1.535427 0
M  V30 44 H -4.672527 1.437838 -0.664401 0
M  V30 45 H -5.883615 3.785758 0.647425 0
M  V30 46 H -5.809602 2.412294 1.894273 0
M  V30 47 H -7.259357 2.262316 -0.812249 0
M  V30 48 H -7.157238 1.019261 0.436797 0
M  V30 49 H -7.633804 4.599164 1.289703 0
M  V30 50 H -8.614197 4.351883 -0.151522 0
M  V30 51 H -9.349724 4.226297 1.447589 0
M  V30 52 H -2.823035 0.939057 -1.367373 0
M  V30 53 H -0.617825 0.396516 -2.146612 0
M  V30 54 H 2.101023 -3.582075 -1.445611 0
M  V30 55 H 2.542894 -7.328383 -1.325344 0
M  V30 56 H 2.836227 -5.885879 -2.301476 0
M  V30 57 H 0.382824 -6.830088 -1.314622 0
M  V30 58 H 0.790003 -5.291117 -0.390998 0
M  V30 59 H 0.617674 -5.316251 -2.180387 0
M  V30 END ATOM
M  V30 BEGIN BOND
M  V30 1 1 1 2
M  V30 2 1 2 3
M  V30 3 1 3 4
M  V30 4 2 4 5
M  V30 5 1 5 6
M  V30 6 1 6 7
M  V30 7 1 7 8
M  V30 8 2 8 9
M  V30 9 1 8 10
M  V30 10 1 10 11
M  V30 11 1 11 12
M  V30 12 2 12 13
M  V30 13 1 13 14
M  V30 14 2 14 15
M  V30 15 1 15 16
M  V30 16 2 16 17
M  V30 17 1 16 18
M  V30 18 1 18 19
M  V30 19 1 19 20
M  V30 20 1 20 21
M  V30 21 1 21 22
M  V30 22 1 15 23
M  V30 23 2 23 24
M  V30 24 1 10 25
M  V30 25 2 25 26
M  V30 26 1 25 27
M  V30 27 1 27 28
M  V30 28 2 28 29
M  V30 29 1 29 30
M  V30 30 1 30 31
M  V30 31 1 31 32
M  V30 32 1 29 4
M  V30 33 2 27 6
M  V30 34 1 24 12
M  V30 35 1 1 33
M  V30 36 1 1 34
M  V30 37 1 1 35
M  V30 38 1 2 36
M  V30 39 1 2 37
M  V30 40 1 5 38
M  V30 41 1 7 39
M  V30 42 1 11 40
M  V30 43 1 11 41
M  V30 44 1 13 42
M  V30 45 1 14 43
M  V30 46 1 18 44
M  V30 47 1 19 45
M  V30 48 1 19 46
M  V30 49 1 20 47
M  V30 50 1 20 48
M  V30 51 1 22 49
M  V30 52 1 22 50
M  V30 53 1 22 51
M  V30 54 1 23 52
M  V30 55 1 24 53
M  V30 56 1 28 54
M  V30 57 1 31 55
M  V30 58 1 31 56
M  V30 59 1 32 57
M  V30 60 1 32 58
M  V30 61 1 32 59
M  V30 END BOND
M  V30 END CTAB
M  END
>  <Dataset>  (866) 
ChEMBL_Kinases

>  <Ligand_Instance>  (866) 
nan

>  <PDB_ID>  (866) 
nan

>  <Standardized_SMILES>  (866) 
CCOc1cc2[nH]c(=O)n(Cc3ccc(C(=O)NCCOC)cc3)c(=O)c2cc1OCC

>  <Name>  (866) 
nan

>  <Pocket>  (866) 
nan

>  <ATP_Site>  (866) 
nan

>  <Peripheral>  (866) 
nan

>  <Num_H_Atoms_ProtBoundConf>  (866) 
nan

>  <Num_Resolved_Atoms>  (866) 
nan

>  <Num_Not_Resolved_Atoms>  (866) 
nan

$$$$
CHEMBL1598271
     RDKit          3D

  0  0  0  0  0  0  0  0  0  0999 V3000
M  V30 BEGIN CTAB
M  V30 COUNTS 38 40 0 0 0
M  V30 BEGIN ATOM
M  V30 1 C 0.147527 -3.645529 0.009073 0
M  V30 2 C 0.804447 -2.498754 -0.703081 0
M  V30 3 N 0.996564 -1.316208 0.071722 0
M  V30 4 C 1.782824 -1.365170 1.257545 0
M  V30 5 C 2.415873 -2.517838 1.699437 0
M  V30 6 C 3.177958 -2.613070 2.843940 0
M  V30 7 C 3.341681 -1.503393 3.624971 0
M  V30 8 C 2.753829 -0.335417 3.260481 0
M  V30 9 C 2.002869 -0.296884 2.106795 0
M  V30 10 C 0.488819 -0.017307 -0.216525 0
M  V30 11 N 1.532633 0.820368 -0.489913 0
M  V30 12 C 1.350885 2.113723 -0.811702 0
M  V30 13 N 2.117402 3.174788 -1.127007 0
M  V30 14 O 1.392957 4.229764 -1.357313 0
M  V30 15 N 0.146042 3.887716 -1.199717 0
M  V30 16 C 0.059084 2.589704 -0.861603 0
M  V30 17 N -0.943835 1.746002 -0.588783 0
M  V30 18 C -0.801377 0.454357 -0.265065 0
M  V30 19 N -1.819148 -0.469074 0.029253 0
M  V30 20 C -3.216089 -0.189544 0.039842 0
M  V30 21 C -3.662794 0.791810 1.097464 0
M  V30 22 O -3.050613 2.027546 0.955665 0
M  V30 23 H -0.876731 -3.845211 -0.435233 0
M  V30 24 H 0.695634 -4.596344 -0.121290 0
M  V30 25 H -0.034032 -3.370928 1.074430 0
M  V30 26 H 0.189827 -2.265749 -1.607997 0
M  V30 27 H 1.786803 -2.855135 -1.124892 0
M  V30 28 H 2.340103 -3.430985 1.137649 0
M  V30 29 H 3.650281 -3.528143 3.147915 0
M  V30 30 H 3.928633 -1.550573 4.518784 0
M  V30 31 H 2.883053 0.547067 3.879882 0
M  V30 32 H 1.557361 0.658135 1.867510 0
M  V30 33 H -1.616116 -1.451584 0.271972 0
M  V30 34 H -3.480898 0.226972 -0.961744 0
M  V30 35 H -3.855543 -1.088690 0.147759 0
M  V30 36 H -3.438049 0.412962 2.121841 0
M  V30 37 H -4.755589 0.962647 1.046852 0
M  V30 38 H -2.517554 2.286836 1.743263 0
M  V30 END ATOM
M  V30 BEGIN BOND
M  V30 1 1 1 2
M  V30 2 1 2 3
M  V30 3 1 3 4
M  V30 4 2 4 5
M  V30 5 1 5 6
M  V30 6 2 6 7
M  V30 7 1 7 8
M  V30 8 2 8 9
M  V30 9 1 3 10
M  V30 10 2 10 11
M  V30 11 1 11 12
M  V30 12 2 12 13
M  V30 13 1 13 14
M  V30 14 1 14 15
M  V30 15 2 15 16
M  V30 16 1 16 17
M  V30 17 2 17 18
M  V30 18 1 18 19
M  V30 19 1 19 20
M  V30 20 1 20 21
M  V30 21 1 21 22
M  V30 22 1 9 4
M  V30 23 1 18 10
M  V30 24 1 16 12
M  V30 25 1 1 23
M  V30 26 1 1 24
M  V30 27 1 1 25
M  V30 28 1 2 26
M  V30 29 1 2 27
M  V30 30 1 5 28
M  V30 31 1 6 29
M  V30 32 1 7 30
M  V30 33 1 8 31
M  V30 34 1 9 32
M  V30 35 1 19 33
M  V30 36 1 20 34
M  V30 37 1 20 35
M  V30 38 1 21 36
M  V30 39 1 21 37
M  V30 40 1 22 38
M  V30 END BOND
M  V30 END CTAB
M  END
>  <Dataset>  (867) 
ChEMBL_Kinases

>  <Ligand_Instance>  (867) 
nan

>  <PDB_ID>  (867) 
nan

>  <Standardized_SMILES>  (867) 
CCN(c1ccccc1)c1nc2nonc2nc1NCCO

>  <Name>  (867) 
nan

>  <Pocket>  (867) 
nan

>  <ATP_Site>  (867) 
nan

>  <Peripheral>  (867) 
nan

>  <Num_H_Atoms_ProtBoundConf>  (867) 
nan

>  <Num_Resolved_Atoms>  (867) 
nan

>  <Num_Not_Resolved_Atoms>  (867) 
nan

$$$$
CHEMBL1597037
     RDKit          3D

  0  0  0  0  0  0  0  0  0  0999 V3000
M  V30 BEGIN CTAB
M  V30 COUNTS 38 41 0 0 0
M  V30 BEGIN ATOM
M  V30 1 C -0.759322 -1.781014 2.582588 0
M  V30 2 C 0.517786 -2.513271 2.369087 0
M  V30 3 C 0.682728 -3.838669 2.714299 0
M  V30 4 C 1.877722 -4.496188 2.506383 0
M  V30 5 C 2.919041 -3.781201 1.935148 0
M  V30 6 C 2.734975 -2.445876 1.593440 0
M  V30 7 C 1.540043 -1.782064 1.799428 0
M  V30 8 C 1.504734 -0.390682 1.389798 0
M  V30 9 C 2.600078 0.383608 1.752388 0
M  V30 10 C 2.629564 1.723527 1.391658 0
M  V30 11 C 1.581187 2.238834 0.691360 0
M  V30 12 N 1.529657 3.529415 0.316665 0
M  V30 13 C 0.526774 4.079446 -0.356170 0
M  V30 14 N -0.516417 3.348503 -0.705697 0
M  V30 15 C -0.607119 2.023490 -0.396971 0
M  V30 16 N -1.733427 1.274386 -0.778591 0
M  V30 17 C -2.474573 0.076405 -0.886188 0
M  V30 18 C -1.912353 -1.008775 -1.749655 0
M  V30 19 C -3.195126 -0.380766 -2.096130 0
M  V30 20 C 0.472385 1.527515 0.303036 0
M  V30 21 C 0.485280 0.210649 0.680723 0
M  V30 22 H -1.531832 -2.002547 1.824963 0
M  V30 23 H -1.177356 -2.221324 3.535648 0
M  V30 24 H -0.622218 -0.714875 2.815006 0
M  V30 25 H -0.197920 -4.295132 3.152517 0
M  V30 26 H 1.898186 -5.536524 2.814483 0
M  V30 27 H 3.842962 -4.322881 1.784485 0
M  V30 28 H 3.621694 -1.976297 1.149184 0
M  V30 29 H 3.450771 0.007363 2.308574 0
M  V30 30 H 3.480211 2.337554 1.669966 0
M  V30 31 H 0.498899 5.118709 -0.650177 0
M  V30 32 H -2.490489 1.869525 -1.230450 0
M  V30 33 H -2.944992 -0.238105 0.091536 0
M  V30 34 H -1.941575 -2.051563 -1.359843 0
M  V30 35 H -1.058973 -0.736720 -2.417314 0
M  V30 36 H -3.284040 0.325064 -2.963609 0
M  V30 37 H -4.139353 -0.935364 -1.947642 0
M  V30 38 H -0.332873 -0.445287 0.448253 0
M  V30 END ATOM
M  V30 BEGIN BOND
M  V30 1 1 1 2
M  V30 2 2 2 3
M  V30 3 1 3 4
M  V30 4 2 4 5
M  V30 5 1 5 6
M  V30 6 2 6 7
M  V30 7 1 7 8
M  V30 8 2 8 9
M  V30 9 1 9 10
M  V30 10 2 10 11
M  V30 11 1 11 12
M  V30 12 2 12 13
M  V30 13 1 13 14
M  V30 14 2 14 15
M  V30 15 1 15 16
M  V30 16 1 16 17
M  V30 17 1 17 18
M  V30 18 1 18 19
M  V30 19 1 15 20
M  V30 20 2 20 21
M  V30 21 1 7 2
M  V30 22 1 21 8
M  V30 23 1 20 11
M  V30 24 1 19 17
M  V30 25 1 1 22
M  V30 26 1 1 23
M  V30 27 1 1 24
M  V30 28 1 3 25
M  V30 29 1 4 26
M  V30 30 1 5 27
M  V30 31 1 6 28
M  V30 32 1 9 29
M  V30 33 1 10 30
M  V30 34 1 13 31
M  V30 35 1 16 32
M  V30 36 1 17 33
M  V30 37 1 18 34
M  V30 38 1 18 35
M  V30 39 1 19 36
M  V30 40 1 19 37
M  V30 41 1 21 38
M  V30 END BOND
M  V30 END CTAB
M  END
>  <Dataset>  (868) 
ChEMBL_Kinases

>  <Ligand_Instance>  (868) 
nan

>  <PDB_ID>  (868) 
nan

>  <Standardized_SMILES>  (868) 
Cc1ccccc1-c1ccc2ncnc(NC3CC3)c2c1

>  <Name>  (868) 
nan

>  <Pocket>  (868) 
nan

>  <ATP_Site>  (868) 
nan

>  <Peripheral>  (868) 
nan

>  <Num_H_Atoms_ProtBoundConf>  (868) 
nan

>  <Num_Resolved_Atoms>  (868) 
nan

>  <Num_Not_Resolved_Atoms>  (868) 
nan

$$$$
CHEMBL1597107
     RDKit          3D

  0  0  0  0  0  0  0  0  0  0999 V3000
M  V30 BEGIN CTAB
M  V30 COUNTS 41 43 0 0 0
M  V30 BEGIN ATOM
M  V30 1 C 1.082869 -5.116322 -0.774733 0
M  V30 2 O -0.041029 -4.892435 -0.020999 0
M  V30 3 C 0.140132 -4.580299 1.285416 0
M  V30 4 C 0.816178 -3.310602 1.631443 0
M  V30 5 N 0.183782 -2.101143 1.237763 0
M  V30 6 C 0.287549 -1.338591 0.140727 0
M  V30 7 O 1.088892 -1.728233 -0.712373 0
M  V30 8 C -0.391789 -0.181744 -0.135834 0
M  V30 9 C -0.177191 0.545236 -1.376696 0
M  V30 10 C 1.079567 1.337040 -1.455984 0
M  V30 11 C 1.227637 2.384844 -0.437083 0
M  V30 12 C 1.862363 1.895643 0.710758 0
M  V30 13 C 2.102884 2.730796 1.802855 0
M  V30 14 C 1.699770 4.052624 1.724797 0
M  V30 15 C 1.073719 4.545731 0.599495 0
M  V30 16 C 0.847407 3.699208 -0.467033 0
M  V30 17 N -1.271425 0.244823 0.806650 0
M  V30 18 C -1.432336 -0.481105 1.954804 0
M  V30 19 C -2.356834 0.079345 2.810588 0
M  V30 20 N -2.527829 -0.635110 3.962076 0
M  V30 21 C -1.835537 -1.763825 4.182415 0
M  V30 22 N -0.937715 -2.300625 3.342665 0
M  V30 23 C -0.712013 -1.648110 2.175227 0
M  V30 24 H 1.617489 -5.994226 -0.321301 0
M  V30 25 H 1.806759 -4.281498 -0.778216 0
M  V30 26 H 0.785211 -5.447112 -1.790522 0
M  V30 27 H 0.734451 -5.405447 1.776410 0
M  V30 28 H -0.853706 -4.608807 1.788626 0
M  V30 29 H 1.062815 -3.282972 2.720441 0
M  V30 30 H 1.824053 -3.320393 1.113492 0
M  V30 31 H -0.137873 -0.186357 -2.224915 0
M  V30 32 H -1.026185 1.219509 -1.622432 0
M  V30 33 H 1.033047 1.875466 -2.440985 0
M  V30 34 H 1.994890 0.701595 -1.555089 0
M  V30 35 H 2.219901 0.879649 0.882701 0
M  V30 36 H 2.591415 2.393832 2.711868 0
M  V30 37 H 1.857056 4.751049 2.536906 0
M  V30 38 H 0.726626 5.560149 0.453089 0
M  V30 39 H 0.364556 3.982260 -1.397525 0
M  V30 40 H -2.895114 0.981534 2.610166 0
M  V30 41 H -1.961608 -2.351429 5.105423 0
M  V30 END ATOM
M  V30 BEGIN BOND
M  V30 1 1 1 2
M  V30 2 1 2 3
M  V30 3 1 3 4
M  V30 4 1 4 5
M  V30 5 1 5 6
M  V30 6 2 6 7
M  V30 7 1 6 8
M  V30 8 1 8 9
M  V30 9 1 9 10
M  V30 10 1 10 11
M  V30 11 2 11 12
M  V30 12 1 12 13
M  V30 13 2 13 14
M  V30 14 1 14 15
M  V30 15 2 15 16
M  V30 16 2 8 17
M  V30 17 1 17 18
M  V30 18 2 18 19
M  V30 19 1 19 20
M  V30 20 2 20 21
M  V30 21 1 21 22
M  V30 22 2 22 23
M  V30 23 1 23 5
M  V30 24 1 16 11
M  V30 25 1 23 18
M  V30 26 1 1 24
M  V30 27 1 1 25
M  V30 28 1 1 26
M  V30 29 1 3 27
M  V30 30 1 3 28
M  V30 31 1 4 29
M  V30 32 1 4 30
M  V30 33 1 9 31
M  V30 34 1 9 32
M  V30 35 1 10 33
M  V30 36 1 10 34
M  V30 37 1 12 35
M  V30 38 1 13 36
M  V30 39 1 14 37
M  V30 40 1 15 38
M  V30 41 1 16 39
M  V30 42 1 19 40
M  V30 43 1 21 41
M  V30 END BOND
M  V30 END CTAB
M  END
>  <Dataset>  (869) 
ChEMBL_Kinases

>  <Ligand_Instance>  (869) 
nan

>  <PDB_ID>  (869) 
nan

>  <Standardized_SMILES>  (869) 
COCCn1c(=O)c(CCc2ccccc2)nc2cncnc21

>  <Name>  (869) 
nan

>  <Pocket>  (869) 
nan

>  <ATP_Site>  (869) 
nan

>  <Peripheral>  (869) 
nan

>  <Num_H_Atoms_ProtBoundConf>  (869) 
nan

>  <Num_Resolved_Atoms>  (869) 
nan

>  <Num_Not_Resolved_Atoms>  (869) 
nan

$$$$
CHEMBL1597171
     RDKit          3D

  0  0  0  0  0  0  0  0  0  0999 V3000
M  V30 BEGIN CTAB
M  V30 COUNTS 40 42 0 0 0
M  V30 BEGIN ATOM
M  V30 1 C 1.010839 -4.999495 0.549972 0
M  V30 2 C 1.053766 -3.634966 1.115561 0
M  V30 3 C 1.413749 -3.528140 2.440144 0
M  V30 4 C 1.482890 -2.289875 3.064030 0
M  V30 5 C 1.865482 -2.137209 4.479786 0
M  V30 6 C 1.171825 -1.199825 2.279439 0
M  V30 7 C 0.799639 -1.233436 0.932786 0
M  V30 8 N 0.505537 -0.045861 0.238990 0
M  V30 9 C 1.577242 0.625684 -0.410821 0
M  V30 10 O 2.766725 0.216245 -0.400581 0
M  V30 11 C 1.375435 1.883062 -1.165531 0
M  V30 12 C 1.133814 2.369955 -2.437240 0
M  V30 13 C 1.071772 3.740911 -2.308299 0
M  V30 14 C 1.276862 4.036449 -0.971319 0
M  V30 15 Br 1.255591 5.858654 -0.429576 0
M  V30 16 O 1.453905 2.896719 -0.324667 0
M  V30 17 C -0.810770 0.542612 0.137194 0
M  V30 18 C -1.722830 -0.406380 -0.502917 0
M  V30 19 C -3.011441 -0.377465 -0.182326 0
M  V30 20 S -3.128241 0.923997 1.007982 0
M  V30 21 O -3.480091 2.218476 0.357589 0
M  V30 22 O -4.008465 0.558242 2.138904 0
M  V30 23 C -1.386891 0.947093 1.479045 0
M  V30 24 C 0.752497 -2.513231 0.374082 0
M  V30 25 H 0.321969 -5.595109 1.210950 0
M  V30 26 H 0.517340 -4.988273 -0.445583 0
M  V30 27 H 2.013644 -5.490883 0.519424 0
M  V30 28 H 1.653874 -4.394133 3.038610 0
M  V30 29 H 0.998400 -1.765405 5.049597 0
M  V30 30 H 2.212087 -3.132701 4.835110 0
M  V30 31 H 2.747815 -1.464573 4.620604 0
M  V30 32 H 1.216301 -0.218692 2.731267 0
M  V30 33 H 1.063534 1.576172 -3.159214 0
M  V30 34 H 0.881600 4.281755 -3.243814 0
M  V30 35 H -0.762058 1.491154 -0.473091 0
M  V30 36 H -1.372606 -1.148021 -1.245525 0
M  V30 37 H -3.796795 -1.011508 -0.570276 0
M  V30 38 H -1.084997 1.962746 1.773132 0
M  V30 39 H -1.298132 0.187312 2.256555 0
M  V30 40 H 0.472662 -2.590506 -0.654143 0
M  V30 END ATOM
M  V30 BEGIN BOND
M  V30 1 1 1 2
M  V30 2 2 2 3
M  V30 3 1 3 4
M  V30 4 1 4 5
M  V30 5 2 4 6
M  V30 6 1 6 7
M  V30 7 1 7 8
M  V30 8 1 8 9
M  V30 9 2 9 10
M  V30 10 1 9 11
M  V30 11 2 11 12
M  V30 12 1 12 13
M  V30 13 2 13 14
M  V30 14 1 14 15
M  V30 15 1 14 16
M  V30 16 1 8 17
M  V30 17 1 17 18
M  V30 18 2 18 19
M  V30 19 1 19 20
M  V30 20 2 20 21
M  V30 21 2 20 22
M  V30 22 1 20 23
M  V30 23 2 7 24
M  V30 24 1 24 2
M  V30 25 1 16 11
M  V30 26 1 23 17
M  V30 27 1 1 25
M  V30 28 1 1 26
M  V30 29 1 1 27
M  V30 30 1 3 28
M  V30 31 1 5 29
M  V30 32 1 5 30
M  V30 33 1 5 31
M  V30 34 1 6 32
M  V30 35 1 12 33
M  V30 36 1 13 34
M  V30 37 1 17 35
M  V30 38 1 18 36
M  V30 39 1 19 37
M  V30 40 1 23 38
M  V30 41 1 23 39
M  V30 42 1 24 40
M  V30 END BOND
M  V30 END CTAB
M  END
>  <Dataset>  (870) 
ChEMBL_Kinases

>  <Ligand_Instance>  (870) 
nan

>  <PDB_ID>  (870) 
nan

>  <Standardized_SMILES>  (870) 
Cc1cc(C)cc(N(C(=O)c2ccc(Br)o2)C2C=CS(=O)(=O)C2)c1

>  <Name>  (870) 
nan

>  <Pocket>  (870) 
nan

>  <ATP_Site>  (870) 
nan

>  <Peripheral>  (870) 
nan

>  <Num_H_Atoms_ProtBoundConf>  (870) 
nan

>  <Num_Resolved_Atoms>  (870) 
nan

>  <Num_Not_Resolved_Atoms>  (870) 
nan

$$$$
CHEMBL1597230
     RDKit          3D

  0  0  0  0  0  0  0  0  0  0999 V3000
M  V30 BEGIN CTAB
M  V30 COUNTS 55 59 0 0 0
M  V30 BEGIN ATOM
M  V30 1 C 0.921661 -3.380947 3.613062 0
M  V30 2 C 1.849427 -2.777268 2.611964 0
M  V30 3 N 2.772774 -3.465140 1.912492 0
M  V30 4 C 3.576567 -2.824688 1.015674 0
M  V30 5 N 4.549344 -3.373140 0.236797 0
M  V30 6 C 5.039691 -2.337062 -0.460890 0
M  V30 7 N 4.411438 -1.193194 -0.141312 0
M  V30 8 N 3.495478 -1.482294 0.779036 0
M  V30 9 C 2.573663 -0.776425 1.472031 0
M  V30 10 N 2.572128 0.610231 1.148944 0
M  V30 11 C 2.906681 1.772107 1.986525 0
M  V30 12 C 1.677049 2.623119 2.131573 0
M  V30 13 C 0.745401 2.596849 0.980904 0
M  V30 14 C 1.248166 2.085138 -0.300924 0
M  V30 15 C 0.115245 1.598572 -1.174557 0
M  V30 16 O -0.207848 2.077400 -2.314226 0
M  V30 17 N -0.628956 0.528090 -0.669940 0
M  V30 18 C -1.715206 -0.353650 -0.913661 0
M  V30 19 C -1.408661 -1.527985 -1.590441 0
M  V30 20 C -2.354368 -2.507724 -1.907873 0
M  V30 21 C -3.626404 -2.196531 -1.483455 0
M  V30 22 C -4.009790 -1.061410 -0.811666 0
M  V30 23 C -3.028514 -0.144697 -0.534553 0
M  V30 24 C -5.463579 -1.060974 -0.511156 0
M  V30 25 C -6.019769 -2.125002 -1.397082 0
M  V30 26 C -4.855236 -3.029389 -1.660199 0
M  V30 27 C 2.202230 0.945087 -0.235578 0
M  V30 28 C 1.767956 -1.427728 2.373706 0
M  V30 29 C 0.788966 -0.622435 3.118860 0
M  V30 30 H 0.986350 -2.811774 4.560744 0
M  V30 31 H -0.122039 -3.390854 3.203826 0
M  V30 32 H 1.195120 -4.444079 3.769101 0
M  V30 33 H 5.850862 -2.474651 -1.185802 0
M  V30 34 H 3.744045 2.287622 1.469362 0
M  V30 35 H 3.265500 1.428536 2.961407 0
M  V30 36 H 1.164847 2.290911 3.059417 0
M  V30 37 H 2.046961 3.653705 2.369372 0
M  V30 38 H 0.423515 3.667932 0.806174 0
M  V30 39 H -0.206030 2.094702 1.244840 0
M  V30 40 H 1.710006 2.889474 -0.908074 0
M  V30 41 H -0.403156 0.112645 0.246992 0
M  V30 42 H -0.378625 -1.739748 -1.913136 0
M  V30 43 H -2.098573 -3.414509 -2.434377 0
M  V30 44 H -3.240554 0.782838 -0.006258 0
M  V30 45 H -5.661602 -1.350732 0.542198 0
M  V30 46 H -5.908588 -0.051355 -0.671228 0
M  V30 47 H -6.837944 -2.687760 -0.874576 0
M  V30 48 H -6.404374 -1.610439 -2.320086 0
M  V30 49 H -4.894251 -3.417968 -2.699757 0
M  V30 50 H -4.883303 -3.854205 -0.891771 0
M  V30 51 H 1.881195 0.040695 -0.794909 0
M  V30 52 H 3.191046 1.213235 -0.716850 0
M  V30 53 H -0.007011 -1.296173 3.525980 0
M  V30 54 H 1.367290 -0.156690 3.969168 0
M  V30 55 H 0.268861 0.128798 2.521437 0
M  V30 END ATOM
M  V30 BEGIN BOND
M  V30 1 1 1 2
M  V30 2 2 2 3
M  V30 3 1 3 4
M  V30 4 2 4 5
M  V30 5 1 5 6
M  V30 6 2 6 7
M  V30 7 1 7 8
M  V30 8 1 8 9
M  V30 9 1 9 10
M  V30 10 1 10 11
M  V30 11 1 11 12
M  V30 12 1 12 13
M  V30 13 1 13 14
M  V30 14 1 14 15
M  V30 15 2 15 16
M  V30 16 1 15 17
M  V30 17 1 17 18
M  V30 18 2 18 19
M  V30 19 1 19 20
M  V30 20 2 20 21
M  V30 21 1 21 22
M  V30 22 2 22 23
M  V30 23 1 22 24
M  V30 24 1 24 25
M  V30 25 1 25 26
M  V30 26 1 14 27
M  V30 27 2 9 28
M  V30 28 1 28 29
M  V30 29 1 28 2
M  V30 30 1 8 4
M  V30 31 1 27 10
M  V30 32 1 23 18
M  V30 33 1 26 21
M  V30 34 1 1 30
M  V30 35 1 1 31
M  V30 36 1 1 32
M  V30 37 1 6 33
M  V30 38 1 11 34
M  V30 39 1 11 35
M  V30 40 1 12 36
M  V30 41 1 12 37
M  V30 42 1 13 38
M  V30 43 1 13 39
M  V30 44 1 14 40
M  V30 45 1 17 41
M  V30 46 1 19 42
M  V30 47 1 20 43
M  V30 48 1 23 44
M  V30 49 1 24 45
M  V30 50 1 24 46
M  V30 51 1 25 47
M  V30 52 1 25 48
M  V30 53 1 26 49
M  V30 54 1 26 50
M  V30 55 1 27 51
M  V30 56 1 27 52
M  V30 57 1 29 53
M  V30 58 1 29 54
M  V30 59 1 29 55
M  V30 END BOND
M  V30 END CTAB
M  END
>  <Dataset>  (871) 
ChEMBL_Kinases

>  <Ligand_Instance>  (871) 
nan

>  <PDB_ID>  (871) 
nan

>  <Standardized_SMILES>  (871) 
Cc1nc2ncnn2c(N2CCCC(C(=O)Nc3ccc4c(c3)CCC4)C2)c1C

>  <Name>  (871) 
nan

>  <Pocket>  (871) 
nan

>  <ATP_Site>  (871) 
nan

>  <Peripheral>  (871) 
nan

>  <Num_H_Atoms_ProtBoundConf>  (871) 
nan

>  <Num_Resolved_Atoms>  (871) 
nan

>  <Num_Not_Resolved_Atoms>  (871) 
nan

$$$$
CHEMBL1597278
     RDKit          3D

  0  0  0  0  0  0  0  0  0  0999 V3000
M  V30 BEGIN CTAB
M  V30 COUNTS 45 49 0 0 0
M  V30 BEGIN ATOM
M  V30 1 C 0.845074 -2.660900 1.656645 0
M  V30 2 C -0.049335 -1.970488 0.671510 0
M  V30 3 C 0.048024 -0.607041 0.569501 0
M  V30 4 C 0.906708 0.326122 1.283319 0
M  V30 5 O 1.706109 -0.109860 2.137616 0
M  V30 6 N 0.857914 1.716348 1.032851 0
M  V30 7 C 1.605416 2.733864 1.624384 0
M  V30 8 C 1.409548 4.052170 1.239176 0
M  V30 9 C 2.075111 5.121920 1.742079 0
M  V30 10 C 3.029005 4.928168 2.713687 0
M  V30 11 C 3.280965 3.649020 3.148680 0
M  V30 12 C 2.568969 2.624817 2.593238 0
M  V30 13 O 4.236671 3.474925 4.119217 0
M  V30 14 C 5.123430 4.547047 4.448474 0
M  V30 15 C 4.388138 5.870328 4.464328 0
M  V30 16 O 3.718540 6.010664 3.238462 0
M  V30 17 S -1.107629 -0.121479 -0.644500 0
M  V30 18 C -1.697890 -1.849562 -0.977111 0
M  V30 19 N -2.549410 -2.637352 -1.704986 0
M  V30 20 C -2.340213 -3.905283 -1.313564 0
M  V30 21 C -3.084253 -5.004841 -1.889803 0
M  V30 22 C -4.028637 -4.754412 -2.860634 0
M  V30 23 C -4.734780 -5.833594 -3.402377 0
M  V30 24 C -4.513410 -7.131398 -2.994603 0
M  V30 25 C -3.541119 -7.302365 -2.007705 0
M  V30 26 C -2.816282 -6.274860 -1.439955 0
M  V30 27 C -1.360184 -3.820997 -0.356210 0
M  V30 28 N -0.943186 -2.560215 -0.127052 0
M  V30 29 H 0.634481 -2.370901 2.683856 0
M  V30 30 H 0.790301 -3.748563 1.598919 0
M  V30 31 H 1.909927 -2.374444 1.438324 0
M  V30 32 H 0.162836 1.990458 0.305323 0
M  V30 33 H 0.658347 4.275078 0.463830 0
M  V30 34 H 1.872487 6.116272 1.397242 0
M  V30 35 H 2.819485 1.660350 2.981084 0
M  V30 36 H 5.943489 4.653390 3.692333 0
M  V30 37 H 5.570327 4.436047 5.451723 0
M  V30 38 H 5.168909 6.646536 4.604296 0
M  V30 39 H 3.620528 5.903284 5.273206 0
M  V30 40 H -4.259102 -3.762573 -3.232918 0
M  V30 41 H -5.493647 -5.692052 -4.173824 0
M  V30 42 H -5.052655 -7.961172 -3.407477 0
M  V30 43 H -3.395461 -8.350936 -1.711074 0
M  V30 44 H -2.085783 -6.512778 -0.682556 0
M  V30 45 H -1.068927 -4.791745 0.073190 0
M  V30 END ATOM
M  V30 BEGIN BOND
M  V30 1 1 1 2
M  V30 2 2 2 3
M  V30 3 1 3 4
M  V30 4 2 4 5
M  V30 5 1 4 6
M  V30 6 1 6 7
M  V30 7 2 7 8
M  V30 8 1 8 9
M  V30 9 2 9 10
M  V30 10 1 10 11
M  V30 11 2 11 12
M  V30 12 1 11 13
M  V30 13 1 13 14
M  V30 14 1 14 15
M  V30 15 1 15 16
M  V30 16 1 3 17
M  V30 17 1 17 18
M  V30 18 2 18 19
M  V30 19 1 19 20
M  V30 20 1 20 21
M  V30 21 2 21 22
M  V30 22 1 22 23
M  V30 23 2 23 24
M  V30 24 1 24 25
M  V30 25 2 25 26
M  V30 26 2 20 27
M  V30 27 1 27 28
M  V30 28 1 28 2
M  V30 29 1 12 7
M  V30 30 1 28 18
M  V30 31 1 16 10
M  V30 32 1 26 21
M  V30 33 1 1 29
M  V30 34 1 1 30
M  V30 35 1 1 31
M  V30 36 1 6 32
M  V30 37 1 8 33
M  V30 38 1 9 34
M  V30 39 1 12 35
M  V30 40 1 14 36
M  V30 41 1 14 37
M  V30 42 1 15 38
M  V30 43 1 15 39
M  V30 44 1 22 40
M  V30 45 1 23 41
M  V30 46 1 24 42
M  V30 47 1 25 43
M  V30 48 1 26 44
M  V30 49 1 27 45
M  V30 END BOND
M  V30 END CTAB
M  END
>  <Dataset>  (872) 
ChEMBL_Kinases

>  <Ligand_Instance>  (872) 
nan

>  <PDB_ID>  (872) 
nan

>  <Standardized_SMILES>  (872) 
Cc1c(C(=O)Nc2ccc3c(c2)OCCO3)sc2nc(-c3ccccc3)cn12

>  <Name>  (872) 
nan

>  <Pocket>  (872) 
nan

>  <ATP_Site>  (872) 
nan

>  <Peripheral>  (872) 
nan

>  <Num_H_Atoms_ProtBoundConf>  (872) 
nan

>  <Num_Resolved_Atoms>  (872) 
nan

>  <Num_Not_Resolved_Atoms>  (872) 
nan

$$$$
CHEMBL1597288
     RDKit          3D

  0  0  0  0  0  0  0  0  0  0999 V3000
M  V30 BEGIN CTAB
M  V30 COUNTS 68 72 0 0 0
M  V30 BEGIN ATOM
M  V30 1 O 1.051586 -2.810566 4.354024 0
M  V30 2 C 1.491338 -3.241030 3.256911 0
M  V30 3 N 2.361856 -2.606466 2.337738 0
M  V30 4 C 2.969773 -1.319397 2.406532 0
M  V30 5 C 4.181917 -1.206387 3.002313 0
M  V30 6 C 4.794446 0.029509 3.083023 0
M  V30 7 C 4.201356 1.164689 2.568907 0
M  V30 8 C 2.967880 1.066106 1.959595 0
M  V30 9 N 2.154926 2.063798 1.358927 0
M  V30 10 C 2.431618 2.234947 -0.037220 0
M  V30 11 O 3.329839 1.503376 -0.533299 0
M  V30 12 N 1.690408 3.208044 -0.786924 0
M  V30 13 C 0.639823 4.111009 -0.356373 0
M  V30 14 C -0.608498 3.920945 -1.171356 0
M  V30 15 N -0.364895 3.139474 -2.369979 0
M  V30 16 C -1.563322 2.764271 -3.066893 0
M  V30 17 C -2.814871 3.126744 -2.615226 0
M  V30 18 C -4.002074 2.796358 -3.240929 0
M  V30 19 C -3.936612 2.050921 -4.400398 0
M  V30 20 C -2.713973 1.660043 -4.898982 0
M  V30 21 C -1.562600 2.018099 -4.233344 0
M  V30 22 C 0.879791 2.685412 -2.963419 0
M  V30 23 C 2.008039 3.342355 -2.196726 0
M  V30 24 C 2.349998 -0.185090 1.879068 0
M  V30 25 N 0.994369 -4.540529 2.991022 0
M  V30 26 C 0.114633 -5.066479 4.017478 0
M  V30 27 C -0.974034 -5.872592 3.311079 0
M  V30 28 N -1.192805 -5.209047 2.039468 0
M  V30 29 C -2.330832 -4.426946 1.740425 0
M  V30 30 C -3.320123 -4.215570 2.656513 0
M  V30 31 C -4.451608 -3.445218 2.375292 0
M  V30 32 C -4.602925 -2.863479 1.134350 0
M  V30 33 C -3.605771 -3.074759 0.206660 0
M  V30 34 C -2.487113 -3.849316 0.517080 0
M  V30 35 C -0.114068 -5.429076 1.093915 0
M  V30 36 C 1.226193 -5.436144 1.846704 0
M  V30 37 H 2.640245 -3.096821 1.459376 0
M  V30 38 H 4.747334 -2.006595 3.439579 0
M  V30 39 H 5.758393 0.172577 3.546991 0
M  V30 40 H 4.573754 2.173086 2.570081 0
M  V30 41 H 1.423971 2.624725 1.871228 0
M  V30 42 H 1.008885 5.148152 -0.582485 0
M  V30 43 H 0.445876 4.075551 0.723929 0
M  V30 44 H -1.150838 4.849524 -1.360146 0
M  V30 45 H -1.282696 3.275165 -0.536462 0
M  V30 46 H -2.914533 3.709400 -1.714268 0
M  V30 47 H -4.963462 3.101263 -2.851851 0
M  V30 48 H -4.849300 1.769530 -4.924502 0
M  V30 49 H -2.622778 1.073015 -5.807901 0
M  V30 50 H -0.614172 1.701429 -4.640485 0
M  V30 51 H 0.902727 2.928070 -4.044303 0
M  V30 52 H 0.904142 1.579882 -2.826153 0
M  V30 53 H 2.058275 4.410584 -2.455907 0
M  V30 54 H 2.961270 2.838027 -2.455664 0
M  V30 55 H 1.372060 -0.399818 1.421741 0
M  V30 56 H 0.662575 -5.705468 4.743446 0
M  V30 57 H -0.411034 -4.284499 4.599893 0
M  V30 58 H -1.851587 -6.025961 3.922220 0
M  V30 59 H -0.507654 -6.881257 3.151194 0
M  V30 60 H -3.297778 -4.625771 3.655600 0
M  V30 61 H -5.225274 -3.292153 3.123045 0
M  V30 62 H -5.494799 -2.271909 0.951773 0
M  V30 63 H -3.743946 -2.609820 -0.759094 0
M  V30 64 H -1.797765 -3.932682 -0.281343 0
M  V30 65 H -0.004466 -4.664208 0.329859 0
M  V30 66 H -0.224942 -6.416066 0.588501 0
M  V30 67 H 1.450767 -6.455378 2.192824 0
M  V30 68 H 2.035862 -5.030448 1.218096 0
M  V30 END ATOM
M  V30 BEGIN BOND
M  V30 1 2 1 2
M  V30 2 1 2 3
M  V30 3 1 3 4
M  V30 4 2 4 5
M  V30 5 1 5 6
M  V30 6 2 6 7
M  V30 7 1 7 8
M  V30 8 1 8 9
M  V30 9 1 9 10
M  V30 10 2 10 11
M  V30 11 1 10 12
M  V30 12 1 12 13
M  V30 13 1 13 14
M  V30 14 1 14 15
M  V30 15 1 15 16
M  V30 16 2 16 17
M  V30 17 1 17 18
M  V30 18 2 18 19
M  V30 19 1 19 20
M  V30 20 2 20 21
M  V30 21 1 15 22
M  V30 22 1 22 23
M  V30 23 2 8 24
M  V30 24 1 2 25
M  V30 25 1 25 26
M  V30 26 1 26 27
M  V30 27 1 27 28
M  V30 28 1 28 29
M  V30 29 2 29 30
M  V30 30 1 30 31
M  V30 31 2 31 32
M  V30 32 1 32 33
M  V30 33 2 33 34
M  V30 34 1 28 35
M  V30 35 1 35 36
M  V30 36 1 24 4
M  V30 37 1 36 25
M  V30 38 1 23 12
M  V30 39 1 34 29
M  V30 40 1 21 16
M  V30 41 1 3 37
M  V30 42 1 5 38
M  V30 43 1 6 39
M  V30 44 1 7 40
M  V30 45 1 9 41
M  V30 46 1 13 42
M  V30 47 1 13 43
M  V30 48 1 14 44
M  V30 49 1 14 45
M  V30 50 1 17 46
M  V30 51 1 18 47
M  V30 52 1 19 48
M  V30 53 1 20 49
M  V30 54 1 21 50
M  V30 55 1 22 51
M  V30 56 1 22 52
M  V30 57 1 23 53
M  V30 58 1 23 54
M  V30 59 1 24 55
M  V30 60 1 26 56
M  V30 61 1 26 57
M  V30 62 1 27 58
M  V30 63 1 27 59
M  V30 64 1 30 60
M  V30 65 1 31 61
M  V30 66 1 32 62
M  V30 67 1 33 63
M  V30 68 1 34 64
M  V30 69 1 35 65
M  V30 70 1 35 66
M  V30 71 1 36 67
M  V30 72 1 36 68
M  V30 END BOND
M  V30 END CTAB
M  END
>  <Dataset>  (873) 
ChEMBL_Kinases

>  <Ligand_Instance>  (873) 
nan

>  <PDB_ID>  (873) 
nan

>  <Standardized_SMILES>  (873) 
O=C(Nc1cccc(NC(=O)N2CCN(c3ccccc3)CC2)c1)N1CCN(c2ccccc2)CC1

>  <Name>  (873) 
nan

>  <Pocket>  (873) 
nan

>  <ATP_Site>  (873) 
nan

>  <Peripheral>  (873) 
nan

>  <Num_H_Atoms_ProtBoundConf>  (873) 
nan

>  <Num_Resolved_Atoms>  (873) 
nan

>  <Num_Not_Resolved_Atoms>  (873) 
nan

$$$$
CHEMBL1597353
     RDKit          3D

  0  0  0  0  0  0  0  0  0  0999 V3000
M  V30 BEGIN CTAB
M  V30 COUNTS 36 37 0 0 0
M  V30 BEGIN ATOM
M  V30 1 O -0.222290 -2.982063 2.405320 0
M  V30 2 C 0.244958 -2.265269 1.451377 0
M  V30 3 C 1.619115 -2.727335 1.194232 0
M  V30 4 O 2.240525 -2.013847 0.172606 0
M  V30 5 C 2.473882 -0.631589 0.308633 0
M  V30 6 O 2.157988 0.059554 1.331720 0
M  V30 7 C 3.119721 0.059404 -0.791737 0
M  V30 8 C 3.373494 1.413933 -0.713710 0
M  V30 9 C 3.990970 2.094807 -1.756202 0
M  V30 10 C 4.370973 1.442697 -2.902555 0
M  V30 11 O 4.991062 2.052998 -3.984074 0
M  V30 12 C 4.119913 0.081044 -2.989930 0
M  V30 13 C 3.500798 -0.590526 -1.939435 0
M  V30 14 N -0.612520 -1.269930 0.909271 0
M  V30 15 C -1.915816 -1.142935 1.468072 0
M  V30 16 C -2.322554 -0.355820 2.515771 0
M  V30 17 C -3.643089 -0.370422 2.914557 0
M  V30 18 C -4.017896 0.506499 4.057119 0
M  V30 19 F -5.298700 0.290096 4.482913 0
M  V30 20 F -3.880712 1.837793 3.670151 0
M  V30 21 F -3.112476 0.346111 5.110043 0
M  V30 22 C -4.564484 -1.183262 2.255041 0
M  V30 23 C -4.161695 -1.976253 1.201719 0
M  V30 24 C -2.830152 -1.963402 0.797421 0
M  V30 25 Cl -2.440928 -3.014047 -0.552666 0
M  V30 26 H 1.533008 -3.779481 0.841051 0
M  V30 27 H 2.230585 -2.785016 2.123464 0
M  V30 28 H 3.097472 2.003493 0.173578 0
M  V30 29 H 4.188117 3.153095 -1.692754 0
M  V30 30 H 4.472740 2.113238 -4.850829 0
M  V30 31 H 4.363547 -0.554750 -3.827501 0
M  V30 32 H 3.287419 -1.660061 -1.972350 0
M  V30 33 H -0.114664 -0.770819 0.139250 0
M  V30 34 H -1.524964 0.232105 2.951499 0
M  V30 35 H -5.601061 -1.181933 2.583018 0
M  V30 36 H -4.898618 -2.594977 0.710901 0
M  V30 END ATOM
M  V30 BEGIN BOND
M  V30 1 2 1 2
M  V30 2 1 2 3
M  V30 3 1 3 4
M  V30 4 1 4 5
M  V30 5 2 5 6
M  V30 6 1 5 7
M  V30 7 2 7 8
M  V30 8 1 8 9
M  V30 9 2 9 10
M  V30 10 1 10 11
M  V30 11 1 10 12
M  V30 12 2 12 13
M  V30 13 1 2 14
M  V30 14 1 14 15
M  V30 15 2 15 16
M  V30 16 1 16 17
M  V30 17 1 17 18
M  V30 18 1 18 19
M  V30 19 1 18 20
M  V30 20 1 18 21
M  V30 21 2 17 22
M  V30 22 1 22 23
M  V30 23 2 23 24
M  V30 24 1 24 25
M  V30 25 1 13 7
M  V30 26 1 24 15
M  V30 27 1 3 26
M  V30 28 1 3 27
M  V30 29 1 8 28
M  V30 30 1 9 29
M  V30 31 1 11 30
M  V30 32 1 12 31
M  V30 33 1 13 32
M  V30 34 1 14 33
M  V30 35 1 16 34
M  V30 36 1 22 35
M  V30 37 1 23 36
M  V30 END BOND
M  V30 END CTAB
M  END
>  <Dataset>  (874) 
ChEMBL_Kinases

>  <Ligand_Instance>  (874) 
nan

>  <PDB_ID>  (874) 
nan

>  <Standardized_SMILES>  (874) 
O=C(COC(=O)c1ccc(O)cc1)Nc1cc(C(F)(F)F)ccc1Cl

>  <Name>  (874) 
nan

>  <Pocket>  (874) 
nan

>  <ATP_Site>  (874) 
nan

>  <Peripheral>  (874) 
nan

>  <Num_H_Atoms_ProtBoundConf>  (874) 
nan

>  <Num_Resolved_Atoms>  (874) 
nan

>  <Num_Not_Resolved_Atoms>  (874) 
nan

$$$$
CHEMBL1597427
     RDKit          3D

  0  0  0  0  0  0  0  0  0  0999 V3000
M  V30 BEGIN CTAB
M  V30 COUNTS 50 52 0 0 0
M  V30 BEGIN ATOM
M  V30 1 C -2.303885 -2.566109 4.871224 0
M  V30 2 C -2.413260 -1.715565 3.624077 0
M  V30 3 O -2.945870 -2.510357 2.601161 0
M  V30 4 C -3.174979 -2.014507 1.308461 0
M  V30 5 C -2.854497 -0.699190 1.075163 0
M  V30 6 C -3.028573 -0.091075 -0.140970 0
M  V30 7 C -2.734527 1.292333 -0.592698 0
M  V30 8 N -1.461014 1.436355 -1.253002 0
M  V30 9 C -0.116334 1.306107 -0.849420 0
M  V30 10 C 0.310892 0.994638 0.421044 0
M  V30 11 C 1.626492 0.861854 0.813645 0
M  V30 12 C 2.564165 1.065848 -0.177915 0
M  V30 13 N 3.940588 0.949454 0.139780 0
M  V30 14 C 4.447479 0.606461 1.456936 0
M  V30 15 C 5.900982 0.237945 1.263663 0
M  V30 16 C 6.031797 0.047653 -0.228244 0
M  V30 17 C 5.073274 1.136593 -0.719904 0
M  V30 18 C 2.214007 1.380649 -1.472276 0
M  V30 19 C 0.879073 1.493755 -1.778888 0
M  V30 20 C -3.563415 -0.912877 -1.143732 0
M  V30 21 C -3.898945 -2.241668 -0.948778 0
M  V30 22 Cl -4.562248 -3.230245 -2.227274 0
M  V30 23 C -3.699245 -2.810458 0.314230 0
M  V30 24 O -4.019620 -4.137931 0.559782 0
M  V30 25 C -3.017629 -5.122995 0.338983 0
M  V30 26 H -3.268219 -2.507973 5.437246 0
M  V30 27 H -2.137543 -3.611785 4.540352 0
M  V30 28 H -1.447287 -2.281740 5.506745 0
M  V30 29 H -2.943566 -0.767848 3.806531 0
M  V30 30 H -1.360673 -1.474410 3.304894 0
M  V30 31 H -2.460072 -0.069505 1.828702 0
M  V30 32 H -2.772994 1.980980 0.317914 0
M  V30 33 H -3.582741 1.613081 -1.211038 0
M  V30 34 H -1.618003 1.699044 -2.274953 0
M  V30 35 H -0.409843 0.842282 1.190101 0
M  V30 36 H 1.884502 0.610775 1.849545 0
M  V30 37 H 3.929680 -0.343617 1.778414 0
M  V30 38 H 4.292392 1.402658 2.199852 0
M  V30 39 H 6.216244 -0.626859 1.843399 0
M  V30 40 H 6.537924 1.106584 1.566800 0
M  V30 41 H 5.654949 -0.955053 -0.455450 0
M  V30 42 H 7.059240 0.242952 -0.571813 0
M  V30 43 H 5.585357 2.094145 -0.423797 0
M  V30 44 H 4.888645 1.068857 -1.788242 0
M  V30 45 H 2.959892 1.536829 -2.234410 0
M  V30 46 H 0.651923 1.747345 -2.825982 0
M  V30 47 H -3.750237 -0.562218 -2.140626 0
M  V30 48 H -2.024111 -4.754993 0.690309 0
M  V30 49 H -3.291221 -6.102713 0.750393 0
M  V30 50 H -2.887425 -5.284923 -0.770672 0
M  V30 END ATOM
M  V30 BEGIN BOND
M  V30 1 1 1 2
M  V30 2 1 2 3
M  V30 3 1 3 4
M  V30 4 2 4 5
M  V30 5 1 5 6
M  V30 6 1 6 7
M  V30 7 1 7 8
M  V30 8 1 8 9
M  V30 9 2 9 10
M  V30 10 1 10 11
M  V30 11 2 11 12
M  V30 12 1 12 13
M  V30 13 1 13 14
M  V30 14 1 14 15
M  V30 15 1 15 16
M  V30 16 1 16 17
M  V30 17 1 12 18
M  V30 18 2 18 19
M  V30 19 2 6 20
M  V30 20 1 20 21
M  V30 21 1 21 22
M  V30 22 2 21 23
M  V30 23 1 23 24
M  V30 24 1 24 25
M  V30 25 1 23 4
M  V30 26 1 19 9
M  V30 27 1 17 13
M  V30 28 1 1 26
M  V30 29 1 1 27
M  V30 30 1 1 28
M  V30 31 1 2 29
M  V30 32 1 2 30
M  V30 33 1 5 31
M  V30 34 1 7 32
M  V30 35 1 7 33
M  V30 36 1 8 34
M  V30 37 1 10 35
M  V30 38 1 11 36
M  V30 39 1 14 37
M  V30 40 1 14 38
M  V30 41 1 15 39
M  V30 42 1 15 40
M  V30 43 1 16 41
M  V30 44 1 16 42
M  V30 45 1 17 43
M  V30 46 1 17 44
M  V30 47 1 18 45
M  V30 48 1 19 46
M  V30 49 1 20 47
M  V30 50 1 25 48
M  V30 51 1 25 49
M  V30 52 1 25 50
M  V30 END BOND
M  V30 END CTAB
M  END
>  <Dataset>  (875) 
ChEMBL_Kinases

>  <Ligand_Instance>  (875) 
nan

>  <PDB_ID>  (875) 
nan

>  <Standardized_SMILES>  (875) 
CCOc1cc(CNc2ccc(N3CCCC3)cc2)cc(Cl)c1OC

>  <Name>  (875) 
nan

>  <Pocket>  (875) 
nan

>  <ATP_Site>  (875) 
nan

>  <Peripheral>  (875) 
nan

>  <Num_H_Atoms_ProtBoundConf>  (875) 
nan

>  <Num_Resolved_Atoms>  (875) 
nan

>  <Num_Not_Resolved_Atoms>  (875) 
nan

$$$$
CHEMBL1598218
     RDKit          3D

  0  0  0  0  0  0  0  0  0  0999 V3000
M  V30 BEGIN CTAB
M  V30 COUNTS 42 43 0 0 0
M  V30 BEGIN ATOM
M  V30 1 C 2.236605 -5.110831 1.219418 0
M  V30 2 O 0.875671 -4.721136 1.196127 0
M  V30 3 C 0.494541 -3.454066 1.606365 0
M  V30 4 C 1.272242 -2.417033 2.072857 0
M  V30 5 C 0.700157 -1.216909 2.436287 0
M  V30 6 C 1.567848 -0.129184 2.931263 0
M  V30 7 C 2.035977 0.751055 1.813816 0
M  V30 8 O 2.806048 1.641039 2.258534 0
M  V30 9 N 1.671018 0.611808 0.447810 0
M  V30 10 C 2.183662 1.516838 -0.531815 0
M  V30 11 S 3.744179 1.143005 -1.388335 0
M  V30 12 C 3.717809 2.720916 -2.442070 0
M  V30 13 C 2.530440 3.336199 -2.015239 0
M  V30 14 C 1.737985 2.786014 -1.077300 0
M  V30 15 C 0.496703 3.334815 -0.567181 0
M  V30 16 N 0.010272 4.571994 -1.064018 0
M  V30 17 O -0.091407 2.661078 0.311028 0
M  V30 18 C -0.661365 -0.971731 2.361362 0
M  V30 19 C -1.418525 -2.029973 1.889680 0
M  V30 20 O -2.790028 -1.827046 1.798367 0
M  V30 21 C -3.401925 -0.613937 2.161667 0
M  V30 22 C -0.886653 -3.246442 1.515514 0
M  V30 23 O -1.781933 -4.227297 1.055193 0
M  V30 24 C -2.028392 -4.226385 -0.341763 0
M  V30 25 H 2.238568 -6.203328 1.506274 0
M  V30 26 H 2.744841 -4.966176 0.240410 0
M  V30 27 H 2.811758 -4.614424 2.004961 0
M  V30 28 H 2.309344 -2.640889 2.116536 0
M  V30 29 H 1.020183 0.538994 3.656613 0
M  V30 30 H 2.405700 -0.551260 3.498042 0
M  V30 31 H 1.021164 -0.179566 0.235897 0
M  V30 32 H 4.431405 3.033669 -3.162532 0
M  V30 33 H 2.291855 4.275197 -2.483588 0
M  V30 34 H 0.233975 5.570366 -0.820447 0
M  V30 35 H -0.709969 4.781710 -1.815200 0
M  V30 36 H -1.060523 -0.033605 2.651272 0
M  V30 37 H -3.062371 -0.383589 3.212747 0
M  V30 38 H -3.068914 0.258947 1.557815 0
M  V30 39 H -4.506644 -0.757841 2.159993 0
M  V30 40 H -1.617558 -3.348830 -0.866779 0
M  V30 41 H -1.510928 -5.133316 -0.766607 0
M  V30 42 H -3.127925 -4.321397 -0.541259 0
M  V30 END ATOM
M  V30 BEGIN BOND
M  V30 1 1 1 2
M  V30 2 1 2 3
M  V30 3 2 3 4
M  V30 4 1 4 5
M  V30 5 1 5 6
M  V30 6 1 6 7
M  V30 7 2 7 8
M  V30 8 1 7 9
M  V30 9 1 9 10
M  V30 10 1 10 11
M  V30 11 1 11 12
M  V30 12 2 12 13
M  V30 13 1 13 14
M  V30 14 1 14 15
M  V30 15 1 15 16
M  V30 16 2 15 17
M  V30 17 2 5 18
M  V30 18 1 18 19
M  V30 19 1 19 20
M  V30 20 1 20 21
M  V30 21 2 19 22
M  V30 22 1 22 23
M  V30 23 1 23 24
M  V30 24 1 22 3
M  V30 25 2 14 10
M  V30 26 1 1 25
M  V30 27 1 1 26
M  V30 28 1 1 27
M  V30 29 1 4 28
M  V30 30 1 6 29
M  V30 31 1 6 30
M  V30 32 1 9 31
M  V30 33 1 12 32
M  V30 34 1 13 33
M  V30 35 1 16 34
M  V30 36 1 16 35
M  V30 37 1 18 36
M  V30 38 1 21 37
M  V30 39 1 21 38
M  V30 40 1 21 39
M  V30 41 1 24 40
M  V30 42 1 24 41
M  V30 43 1 24 42
M  V30 END BOND
M  V30 END CTAB
M  END
>  <Dataset>  (876) 
ChEMBL_Kinases

>  <Ligand_Instance>  (876) 
nan

>  <PDB_ID>  (876) 
nan

>  <Standardized_SMILES>  (876) 
COc1cc(CC(=O)Nc2sccc2C(N)=O)cc(OC)c1OC

>  <Name>  (876) 
nan

>  <Pocket>  (876) 
nan

>  <ATP_Site>  (876) 
nan

>  <Peripheral>  (876) 
nan

>  <Num_H_Atoms_ProtBoundConf>  (876) 
nan

>  <Num_Resolved_Atoms>  (876) 
nan

>  <Num_Not_Resolved_Atoms>  (876) 
nan

$$$$
CHEMBL1597529
     RDKit          3D

  0  0  0  0  0  0  0  0  0  0999 V3000
M  V30 BEGIN CTAB
M  V30 COUNTS 36 39 0 0 0
M  V30 BEGIN ATOM
M  V30 1 O -2.134626 -4.012445 3.515950 0
M  V30 2 C -1.110444 -3.679767 2.870021 0
M  V30 3 C -0.789834 -2.353722 2.787385 0
M  V30 4 C 0.279659 -1.785613 2.134475 0
M  V30 5 C 0.652065 -0.371707 2.026187 0
M  V30 6 N 0.087174 0.308723 0.901162 0
M  V30 7 C 0.449391 -0.240447 -0.364689 0
M  V30 8 C 1.508595 0.584092 -1.104919 0
M  V30 9 C 0.805647 1.888336 -1.383620 0
M  V30 10 C 0.753631 2.439422 -2.641160 0
M  V30 11 C 0.072821 3.646902 -2.759554 0
M  V30 12 C -0.512972 4.238877 -1.645185 0
M  V30 13 C -0.443006 3.659936 -0.395354 0
M  V30 14 C 0.233138 2.454725 -0.261411 0
M  V30 15 C 0.392744 1.712052 1.016909 0
M  V30 16 N 1.043752 -2.718118 1.537042 0
M  V30 17 C 0.771358 -4.011072 1.590976 0
M  V30 18 S 1.636477 -5.514847 0.870743 0
M  V30 19 C 0.377769 -6.748862 1.583849 0
M  V30 20 C -0.492429 -5.879340 2.245393 0
M  V30 21 N -0.316758 -4.562694 2.257837 0
M  V30 22 H -1.453640 -1.633534 3.297617 0
M  V30 23 H 1.775219 -0.310285 1.923619 0
M  V30 24 H 0.340543 0.199471 2.940137 0
M  V30 25 H -0.459914 -0.168697 -1.027821 0
M  V30 26 H 0.758975 -1.283222 -0.372550 0
M  V30 27 H 1.739706 0.069608 -2.036743 0
M  V30 28 H 2.353759 0.819077 -0.447402 0
M  V30 29 H 1.222747 1.942289 -3.470863 0
M  V30 30 H 0.001259 4.125504 -3.728945 0
M  V30 31 H -1.047084 5.185480 -1.736182 0
M  V30 32 H -0.885630 4.086498 0.503106 0
M  V30 33 H 1.494625 1.753141 1.256474 0
M  V30 34 H -0.167026 2.197918 1.829892 0
M  V30 35 H 0.545639 -7.702474 1.379347 0
M  V30 36 H -1.269665 -6.462076 2.703263 0
M  V30 END ATOM
M  V30 BEGIN BOND
M  V30 1 2 1 2
M  V30 2 1 2 3
M  V30 3 2 3 4
M  V30 4 1 4 5
M  V30 5 1 5 6
M  V30 6 1 6 7
M  V30 7 1 7 8
M  V30 8 1 8 9
M  V30 9 2 9 10
M  V30 10 1 10 11
M  V30 11 2 11 12
M  V30 12 1 12 13
M  V30 13 2 13 14
M  V30 14 1 14 15
M  V30 15 1 4 16
M  V30 16 2 16 17
M  V30 17 1 17 18
M  V30 18 1 18 19
M  V30 19 2 19 20
M  V30 20 1 20 21
M  V30 21 1 21 2
M  V30 22 1 15 6
M  V30 23 1 21 17
M  V30 24 1 14 9
M  V30 25 1 3 22
M  V30 26 1 5 23
M  V30 27 1 5 24
M  V30 28 1 7 25
M  V30 29 1 7 26
M  V30 30 1 8 27
M  V30 31 1 8 28
M  V30 32 1 10 29
M  V30 33 1 11 30
M  V30 34 1 12 31
M  V30 35 1 13 32
M  V30 36 1 15 33
M  V30 37 1 15 34
M  V30 38 1 19 35
M  V30 39 1 20 36
M  V30 END BOND
M  V30 END CTAB
M  END
>  <Dataset>  (877) 
ChEMBL_Kinases

>  <Ligand_Instance>  (877) 
nan

>  <PDB_ID>  (877) 
nan

>  <Standardized_SMILES>  (877) 
O=c1cc(CN2CCc3ccccc3C2)nc2sccn12

>  <Name>  (877) 
nan

>  <Pocket>  (877) 
nan

>  <ATP_Site>  (877) 
nan

>  <Peripheral>  (877) 
nan

>  <Num_H_Atoms_ProtBoundConf>  (877) 
nan

>  <Num_Resolved_Atoms>  (877) 
nan

>  <Num_Not_Resolved_Atoms>  (877) 
nan

$$$$
CHEMBL1597687
     RDKit          3D

  0  0  0  0  0  0  0  0  0  0999 V3000
M  V30 BEGIN CTAB
M  V30 COUNTS 36 38 0 0 0
M  V30 BEGIN ATOM
M  V30 1 C -0.714269 -3.708436 4.555227 0
M  V30 2 S 0.723808 -2.791149 5.231084 0
M  V30 3 C 1.731955 -2.123402 3.872758 0
M  V30 4 N 2.886894 -1.493052 4.245953 0
M  V30 5 S 3.625656 -1.167973 2.539962 0
M  V30 6 C 2.202300 -1.955987 1.716412 0
M  V30 7 S 2.096363 -2.340193 -0.058203 0
M  V30 8 C 0.371569 -2.852629 -0.515420 0
M  V30 9 C -0.171270 -1.768607 -1.423834 0
M  V30 10 O -0.312835 -2.139993 -2.594259 0
M  V30 11 N -0.375905 -0.554605 -0.712292 0
M  V30 12 C -1.214863 -0.505308 0.455614 0
M  V30 13 C -1.816207 0.810371 0.773108 0
M  V30 14 C -1.376671 2.000119 0.007567 0
M  V30 15 C -0.198766 1.848516 -0.877006 0
M  V30 16 C 0.508488 2.934631 -1.346840 0
M  V30 17 C 1.595971 2.709703 -2.170648 0
M  V30 18 C 2.063475 1.456566 -2.586225 0
M  V30 19 C 1.308231 0.379705 -2.077356 0
M  V30 20 C 0.242826 0.636728 -1.270052 0
M  V30 21 N 1.414648 -2.337061 2.580677 0
M  V30 22 H -0.369002 -4.079873 3.536862 0
M  V30 23 H -0.986777 -4.589127 5.143956 0
M  V30 24 H -1.503214 -2.965522 4.342774 0
M  V30 25 H 0.319124 -3.837540 -0.934289 0
M  V30 26 H -0.224568 -2.819192 0.438202 0
M  V30 27 H -2.078391 -1.228928 0.265318 0
M  V30 28 H -0.615453 -0.925420 1.286287 0
M  V30 29 H -2.954956 0.745456 0.689234 0
M  V30 30 H -1.679687 0.974023 1.876595 0
M  V30 31 H -1.133521 2.837187 0.729193 0
M  V30 32 H -2.240729 2.452059 -0.583286 0
M  V30 33 H 0.254704 3.956391 -1.092174 0
M  V30 34 H 2.203497 3.542088 -2.581636 0
M  V30 35 H 2.918823 1.349748 -3.228711 0
M  V30 36 H 1.712418 -0.576165 -2.439566 0
M  V30 END ATOM
M  V30 BEGIN BOND
M  V30 1 1 1 2
M  V30 2 1 2 3
M  V30 3 2 3 4
M  V30 4 1 4 5
M  V30 5 1 5 6
M  V30 6 1 6 7
M  V30 7 1 7 8
M  V30 8 1 8 9
M  V30 9 2 9 10
M  V30 10 1 9 11
M  V30 11 1 11 12
M  V30 12 1 12 13
M  V30 13 1 13 14
M  V30 14 1 14 15
M  V30 15 2 15 16
M  V30 16 1 16 17
M  V30 17 2 17 18
M  V30 18 1 18 19
M  V30 19 2 19 20
M  V30 20 2 6 21
M  V30 21 1 21 3
M  V30 22 1 20 11
M  V30 23 1 20 15
M  V30 24 1 1 22
M  V30 25 1 1 23
M  V30 26 1 1 24
M  V30 27 1 8 25
M  V30 28 1 8 26
M  V30 29 1 12 27
M  V30 30 1 12 28
M  V30 31 1 13 29
M  V30 32 1 13 30
M  V30 33 1 14 31
M  V30 34 1 14 32
M  V30 35 1 16 33
M  V30 36 1 17 34
M  V30 37 1 18 35
M  V30 38 1 19 36
M  V30 END BOND
M  V30 END CTAB
M  END
>  <Dataset>  (878) 
ChEMBL_Kinases

>  <Ligand_Instance>  (878) 
nan

>  <PDB_ID>  (878) 
nan

>  <Standardized_SMILES>  (878) 
CSc1nsc(SCC(=O)N2CCCc3ccccc32)n1

>  <Name>  (878) 
nan

>  <Pocket>  (878) 
nan

>  <ATP_Site>  (878) 
nan

>  <Peripheral>  (878) 
nan

>  <Num_H_Atoms_ProtBoundConf>  (878) 
nan

>  <Num_Resolved_Atoms>  (878) 
nan

>  <Num_Not_Resolved_Atoms>  (878) 
nan

$$$$
CHEMBL1597691
     RDKit          3D

  0  0  0  0  0  0  0  0  0  0999 V3000
M  V30 BEGIN CTAB
M  V30 COUNTS 41 43 0 0 0
M  V30 BEGIN ATOM
M  V30 1 C 2.019006 -6.701558 0.552288 0
M  V30 2 C 1.462248 -5.367214 1.050764 0
M  V30 3 O 1.630013 -4.392461 0.053509 0
M  V30 4 C 1.223880 -3.078652 0.207734 0
M  V30 5 O 0.725160 -3.030062 1.359723 0
M  V30 6 C 1.410507 -2.090074 -0.842681 0
M  V30 7 N 1.988620 -2.385779 -2.019128 0
M  V30 8 N 2.001632 -1.293639 -2.717619 0
M  V30 9 N 1.481284 -0.251020 -2.136973 0
M  V30 10 C 1.401736 1.017342 -2.738823 0
M  V30 11 N 1.943776 1.260668 -3.939438 0
M  V30 12 O 1.802930 2.477999 -4.295741 0
M  V30 13 N 1.165248 3.167743 -3.394096 0
M  V30 14 C 0.920168 2.250323 -2.432244 0
M  V30 15 N 0.200006 2.648373 -1.309983 0
M  V30 16 C 1.111152 -0.745854 -0.958291 0
M  V30 17 C 0.482581 -0.184537 0.208856 0
M  V30 18 C 0.848979 0.849177 1.050379 0
M  V30 19 C 0.140778 1.299727 2.137571 0
M  V30 20 C -1.052789 0.681906 2.443590 0
M  V30 21 O -1.790721 1.114459 3.535679 0
M  V30 22 C -1.370811 2.178247 4.366157 0
M  V30 23 C -2.343378 2.446984 5.471843 0
M  V30 24 C -1.539612 -0.363479 1.688939 0
M  V30 25 C -0.749640 -0.736787 0.619331 0
M  V30 26 H 1.303387 -7.527965 0.794469 0
M  V30 27 H 2.964919 -6.945976 1.057184 0
M  V30 28 H 2.225717 -6.688877 -0.539521 0
M  V30 29 H 1.985977 -5.088693 1.987252 0
M  V30 30 H 0.391570 -5.530055 1.309427 0
M  V30 31 H 0.524892 3.386727 -0.618000 0
M  V30 32 H -0.336211 2.940731 -0.479624 0
M  V30 33 H 1.794368 1.294002 0.758556 0
M  V30 34 H 0.559188 2.117355 2.696374 0
M  V30 35 H -1.272768 3.102645 3.753888 0
M  V30 36 H -0.331815 2.005972 4.761077 0
M  V30 37 H -2.916097 1.517671 5.720708 0
M  V30 38 H -3.069556 3.209242 5.115660 0
M  V30 39 H -1.766244 2.781561 6.361423 0
M  V30 40 H -2.462210 -0.870984 1.892350 0
M  V30 41 H -1.155040 -1.571238 0.022513 0
M  V30 END ATOM
M  V30 BEGIN BOND
M  V30 1 1 1 2
M  V30 2 1 2 3
M  V30 3 1 3 4
M  V30 4 2 4 5
M  V30 5 1 4 6
M  V30 6 1 6 7
M  V30 7 2 7 8
M  V30 8 1 8 9
M  V30 9 1 9 10
M  V30 10 2 10 11
M  V30 11 1 11 12
M  V30 12 1 12 13
M  V30 13 2 13 14
M  V30 14 1 14 15
M  V30 15 1 9 16
M  V30 16 1 16 17
M  V30 17 2 17 18
M  V30 18 1 18 19
M  V30 19 2 19 20
M  V30 20 1 20 21
M  V30 21 1 21 22
M  V30 22 1 22 23
M  V30 23 1 20 24
M  V30 24 2 24 25
M  V30 25 2 16 6
M  V30 26 1 25 17
M  V30 27 1 14 10
M  V30 28 1 1 26
M  V30 29 1 1 27
M  V30 30 1 1 28
M  V30 31 1 2 29
M  V30 32 1 2 30
M  V30 33 1 15 31
M  V30 34 1 15 32
M  V30 35 1 18 33
M  V30 36 1 19 34
M  V30 37 1 22 35
M  V30 38 1 22 36
M  V30 39 1 23 37
M  V30 40 1 23 38
M  V30 41 1 23 39
M  V30 42 1 24 40
M  V30 43 1 25 41
M  V30 END BOND
M  V30 END CTAB
M  END
>  <Dataset>  (879) 
ChEMBL_Kinases

>  <Ligand_Instance>  (879) 
nan

>  <PDB_ID>  (879) 
nan

>  <Standardized_SMILES>  (879) 
CCOC(=O)c1nnn(-c2nonc2N)c1-c1ccc(OCC)cc1

>  <Name>  (879) 
nan

>  <Pocket>  (879) 
nan

>  <ATP_Site>  (879) 
nan

>  <Peripheral>  (879) 
nan

>  <Num_H_Atoms_ProtBoundConf>  (879) 
nan

>  <Num_Resolved_Atoms>  (879) 
nan

>  <Num_Not_Resolved_Atoms>  (879) 
nan

$$$$
CHEMBL1597696
     RDKit          3D

  0  0  0  0  0  0  0  0  0  0999 V3000
M  V30 BEGIN CTAB
M  V30 COUNTS 57 61 0 0 0
M  V30 BEGIN ATOM
M  V30 1 C -1.634252 -2.018223 1.299579 0
M  V30 2 C -0.873782 -2.640305 0.194725 0
M  V30 3 C 0.402629 -2.214963 -0.069381 0
M  V30 4 N 1.370701 -1.268898 0.345679 0
M  V30 5 C 2.115160 -1.712235 1.465470 0
M  V30 6 O 1.660433 -2.869704 1.796504 0
M  V30 7 C 3.220322 -1.101982 2.222954 0
M  V30 8 S 2.822790 0.233181 3.318687 0
M  V30 9 C 2.315829 1.743968 2.548886 0
M  V30 10 N 3.429878 2.481974 2.251866 0
M  V30 11 N 3.052388 3.636777 1.685824 0
M  V30 12 C 1.721609 3.654190 1.614489 0
M  V30 13 C 0.858348 4.695704 1.084245 0
M  V30 14 C 1.286530 6.027101 1.010145 0
M  V30 15 C 0.302374 6.841138 0.473980 0
M  V30 16 C -0.709845 5.947490 0.238204 0
M  V30 17 O -0.351345 4.748452 0.598180 0
M  V30 18 N 1.293616 2.499939 2.143256 0
M  V30 19 C 0.006196 1.953602 2.371935 0
M  V30 20 C -0.336046 1.533987 3.660454 0
M  V30 21 C -1.543992 1.006331 4.035648 0
M  V30 22 C -2.522612 0.870556 3.063974 0
M  V30 23 C -2.233969 1.267767 1.782791 0
M  V30 24 C -1.005379 1.793085 1.448858 0
M  V30 25 C 0.807352 -3.016073 -1.139783 0
M  V30 26 O 1.866439 -3.126894 -1.847266 0
M  V30 27 N -0.187276 -3.855308 -1.471527 0
M  V30 28 C -0.377760 -4.881494 -2.455224 0
M  V30 29 C -0.800650 -6.141706 -2.115060 0
M  V30 30 C -0.990779 -7.123459 -3.034572 0
M  V30 31 C -0.760519 -6.887875 -4.380434 0
M  V30 32 C -0.335424 -5.620404 -4.717060 0
M  V30 33 C -0.137255 -4.613213 -3.804274 0
M  V30 34 N -1.221163 -3.621012 -0.647311 0
M  V30 35 C -2.543979 -4.254203 -0.576255 0
M  V30 36 H -1.057586 -1.355892 1.943668 0
M  V30 37 H -2.143758 -2.836451 1.895109 0
M  V30 38 H -2.493819 -1.446668 0.863575 0
M  V30 39 H 1.655782 -0.303418 -0.001094 0
M  V30 40 H 3.657284 -1.933662 2.862455 0
M  V30 41 H 4.000210 -0.760858 1.494538 0
M  V30 42 H 2.264215 6.426035 1.319763 0
M  V30 43 H 0.274141 7.884221 0.272169 0
M  V30 44 H -1.704885 6.131865 -0.187533 0
M  V30 45 H 0.426497 1.635185 4.437485 0
M  V30 46 H -1.703285 0.710997 5.082048 0
M  V30 47 H -3.449068 0.453240 3.414245 0
M  V30 48 H -3.009987 1.153980 1.042927 0
M  V30 49 H -0.816530 2.085588 0.443330 0
M  V30 50 H -0.993860 -6.367146 -1.073867 0
M  V30 51 H -1.322106 -8.101454 -2.738699 0
M  V30 52 H -0.898297 -7.642388 -5.147914 0
M  V30 53 H -0.159782 -5.447549 -5.775245 0
M  V30 54 H 0.201522 -3.621760 -4.130711 0
M  V30 55 H -2.587615 -5.019029 0.212405 0
M  V30 56 H -3.278788 -3.455137 -0.354288 0
M  V30 57 H -2.764834 -4.670741 -1.581464 0
M  V30 END ATOM
M  V30 BEGIN BOND
M  V30 1 1 1 2
M  V30 2 2 2 3
M  V30 3 1 3 4
M  V30 4 1 4 5
M  V30 5 2 5 6
M  V30 6 1 5 7
M  V30 7 1 7 8
M  V30 8 1 8 9
M  V30 9 2 9 10
M  V30 10 1 10 11
M  V30 11 2 11 12
M  V30 12 1 12 13
M  V30 13 2 13 14
M  V30 14 1 14 15
M  V30 15 2 15 16
M  V30 16 1 16 17
M  V30 17 1 12 18
M  V30 18 1 18 19
M  V30 19 2 19 20
M  V30 20 1 20 21
M  V30 21 2 21 22
M  V30 22 1 22 23
M  V30 23 2 23 24
M  V30 24 1 3 25
M  V30 25 2 25 26
M  V30 26 1 25 27
M  V30 27 1 27 28
M  V30 28 2 28 29
M  V30 29 1 29 30
M  V30 30 2 30 31
M  V30 31 1 31 32
M  V30 32 2 32 33
M  V30 33 1 27 34
M  V30 34 1 34 35
M  V30 35 1 34 2
M  V30 36 1 18 9
M  V30 37 1 24 19
M  V30 38 1 33 28
M  V30 39 1 17 13
M  V30 40 1 1 36
M  V30 41 1 1 37
M  V30 42 1 1 38
M  V30 43 1 4 39
M  V30 44 1 7 40
M  V30 45 1 7 41
M  V30 46 1 14 42
M  V30 47 1 15 43
M  V30 48 1 16 44
M  V30 49 1 20 45
M  V30 50 1 21 46
M  V30 51 1 22 47
M  V30 52 1 23 48
M  V30 53 1 24 49
M  V30 54 1 29 50
M  V30 55 1 30 51
M  V30 56 1 31 52
M  V30 57 1 32 53
M  V30 58 1 33 54
M  V30 59 1 35 55
M  V30 60 1 35 56
M  V30 61 1 35 57
M  V30 END BOND
M  V30 END CTAB
M  END
>  <Dataset>  (880) 
ChEMBL_Kinases

>  <Ligand_Instance>  (880) 
nan

>  <PDB_ID>  (880) 
nan

>  <Standardized_SMILES>  (880) 
Cc1c(NC(=O)CSc2nnc(-c3ccco3)n2-c2ccccc2)c(=O)n(-c2ccccc2)n1C

>  <Name>  (880) 
nan

>  <Pocket>  (880) 
nan

>  <ATP_Site>  (880) 
nan

>  <Peripheral>  (880) 
nan

>  <Num_H_Atoms_ProtBoundConf>  (880) 
nan

>  <Num_Resolved_Atoms>  (880) 
nan

>  <Num_Not_Resolved_Atoms>  (880) 
nan

$$$$
CHEMBL1597788
     RDKit          3D

  0  0  0  0  0  0  0  0  0  0999 V3000
M  V30 BEGIN CTAB
M  V30 COUNTS 23 23 0 0 0
M  V30 BEGIN ATOM
M  V30 1 N 0.819401 -2.835813 5.193811 0
M  V30 2 N 0.508249 -2.033783 4.089424 0
M  V30 3 C 1.168753 -1.661523 2.898370 0
M  V30 4 O 2.333687 -2.152160 2.752508 0
M  V30 5 C 0.498493 -0.784821 1.969429 0
M  V30 6 O -0.656301 -0.237443 2.010293 0
M  V30 7 N 1.190673 -0.441216 0.800193 0
M  V30 8 C 0.688862 0.419156 -0.242958 0
M  V30 9 C -0.026110 -0.152437 -1.299378 0
M  V30 10 C -0.488547 0.721575 -2.280097 0
M  V30 11 C -0.252694 2.076226 -2.210481 0
M  V30 12 O -0.719602 2.955507 -3.199914 0
M  V30 13 C 0.457105 2.609744 -1.153588 0
M  V30 14 C 0.939077 1.779199 -0.150663 0
M  V30 15 H 0.103103 -3.543042 5.404648 0
M  V30 16 H 0.886901 -2.180038 6.020730 0
M  V30 17 H -0.457015 -1.659927 4.265943 0
M  V30 18 H 2.163169 -0.793305 0.580178 0
M  V30 19 H -0.190525 -1.218926 -1.318679 0
M  V30 20 H -1.054659 0.303495 -3.124792 0
M  V30 21 H -1.590871 3.494786 -3.081912 0
M  V30 22 H 0.684604 3.672893 -1.028210 0
M  V30 23 H 1.508893 2.138695 0.714258 0
M  V30 END ATOM
M  V30 BEGIN BOND
M  V30 1 1 1 2
M  V30 2 1 2 3
M  V30 3 2 3 4
M  V30 4 1 3 5
M  V30 5 2 5 6
M  V30 6 1 5 7
M  V30 7 1 7 8
M  V30 8 2 8 9
M  V30 9 1 9 10
M  V30 10 2 10 11
M  V30 11 1 11 12
M  V30 12 1 11 13
M  V30 13 2 13 14
M  V30 14 1 14 8
M  V30 15 1 1 15
M  V30 16 1 1 16
M  V30 17 1 2 17
M  V30 18 1 7 18
M  V30 19 1 9 19
M  V30 20 1 10 20
M  V30 21 1 12 21
M  V30 22 1 13 22
M  V30 23 1 14 23
M  V30 END BOND
M  V30 END CTAB
M  END
>  <Dataset>  (881) 
ChEMBL_Kinases

>  <Ligand_Instance>  (881) 
nan

>  <PDB_ID>  (881) 
nan

>  <Standardized_SMILES>  (881) 
NNC(=O)C(=O)Nc1ccc(O)cc1

>  <Name>  (881) 
nan

>  <Pocket>  (881) 
nan

>  <ATP_Site>  (881) 
nan

>  <Peripheral>  (881) 
nan

>  <Num_H_Atoms_ProtBoundConf>  (881) 
nan

>  <Num_Resolved_Atoms>  (881) 
nan

>  <Num_Not_Resolved_Atoms>  (881) 
nan

$$$$
CHEMBL1597936
     RDKit          3D

  0  0  0  0  0  0  0  0  0  0999 V3000
M  V30 BEGIN CTAB
M  V30 COUNTS 36 38 0 0 0
M  V30 BEGIN ATOM
M  V30 1 C -0.915789 -2.063946 2.420733 0
M  V30 2 C 0.278983 -2.800340 1.914901 0
M  V30 3 C 0.837380 -3.790777 2.918353 0
M  V30 4 S 1.605093 -1.704913 1.315821 0
M  V30 5 C 1.019895 -0.847626 -0.139985 0
M  V30 6 N 1.192381 -1.406662 -1.348308 0
M  V30 7 C 0.774717 -0.808047 -2.489715 0
M  V30 8 C 0.169633 0.405856 -2.277759 0
M  V30 9 C -0.005634 0.976346 -1.039843 0
M  V30 10 O -0.585893 2.106582 -1.020897 0
M  V30 11 N 0.427492 0.340160 0.060143 0
M  V30 12 C 0.210515 1.006068 1.294310 0
M  V30 13 C 1.403578 1.171762 2.008938 0
M  V30 14 C 1.395388 1.809282 3.250394 0
M  V30 15 C 0.175474 2.272020 3.753407 0
M  V30 16 F 0.176688 2.894535 4.967267 0
M  V30 17 C -1.007774 2.116221 3.061584 0
M  V30 18 C -0.959641 1.484402 1.844458 0
M  V30 19 S -0.277160 0.953933 -3.945423 0
M  V30 20 C -0.176083 -0.703902 -4.716340 0
M  V30 21 C 0.904920 -1.307836 -3.850169 0
M  V30 22 H -1.489398 -2.765257 3.089840 0
M  V30 23 H -1.628632 -1.795916 1.600752 0
M  V30 24 H -0.673197 -1.153609 2.996829 0
M  V30 25 H -0.072466 -3.446908 1.054312 0
M  V30 26 H -0.025373 -4.140825 3.537345 0
M  V30 27 H 1.613495 -3.295384 3.525984 0
M  V30 28 H 1.206748 -4.705789 2.408184 0
M  V30 29 H 2.393802 0.841670 1.688509 0
M  V30 30 H 2.320625 1.947090 3.821318 0
M  V30 31 H -1.952442 2.466901 3.436710 0
M  V30 32 H -1.828608 1.301815 1.203091 0
M  V30 33 H 0.244554 -0.632771 -5.739230 0
M  V30 34 H -1.116070 -1.248422 -4.660593 0
M  V30 35 H 0.669026 -2.414059 -3.839581 0
M  V30 36 H 1.907438 -1.188524 -4.310358 0
M  V30 END ATOM
M  V30 BEGIN BOND
M  V30 1 1 1 2
M  V30 2 1 2 3
M  V30 3 1 2 4
M  V30 4 1 4 5
M  V30 5 2 5 6
M  V30 6 1 6 7
M  V30 7 2 7 8
M  V30 8 1 8 9
M  V30 9 2 9 10
M  V30 10 1 9 11
M  V30 11 1 11 12
M  V30 12 2 12 13
M  V30 13 1 13 14
M  V30 14 2 14 15
M  V30 15 1 15 16
M  V30 16 1 15 17
M  V30 17 2 17 18
M  V30 18 1 8 19
M  V30 19 1 19 20
M  V30 20 1 20 21
M  V30 21 1 11 5
M  V30 22 1 18 12
M  V30 23 1 21 7
M  V30 24 1 1 22
M  V30 25 1 1 23
M  V30 26 1 1 24
M  V30 27 1 2 25
M  V30 28 1 3 26
M  V30 29 1 3 27
M  V30 30 1 3 28
M  V30 31 1 13 29
M  V30 32 1 14 30
M  V30 33 1 17 31
M  V30 34 1 18 32
M  V30 35 1 20 33
M  V30 36 1 20 34
M  V30 37 1 21 35
M  V30 38 1 21 36
M  V30 END BOND
M  V30 END CTAB
M  END
>  <Dataset>  (882) 
ChEMBL_Kinases

>  <Ligand_Instance>  (882) 
nan

>  <PDB_ID>  (882) 
nan

>  <Standardized_SMILES>  (882) 
CC(C)Sc1nc2c(c(=O)n1-c1ccc(F)cc1)SCC2

>  <Name>  (882) 
nan

>  <Pocket>  (882) 
nan

>  <ATP_Site>  (882) 
nan

>  <Peripheral>  (882) 
nan

>  <Num_H_Atoms_ProtBoundConf>  (882) 
nan

>  <Num_Resolved_Atoms>  (882) 
nan

>  <Num_Not_Resolved_Atoms>  (882) 
nan

$$$$
CHEMBL1598001
     RDKit          3D

  0  0  0  0  0  0  0  0  0  0999 V3000
M  V30 BEGIN CTAB
M  V30 COUNTS 48 51 0 0 0
M  V30 BEGIN ATOM
M  V30 1 C -2.491514 -5.535573 -2.568241 0
M  V30 2 O -1.374391 -4.741736 -2.279211 0
M  V30 3 C -1.406863 -3.627123 -1.458594 0
M  V30 4 C -2.574740 -3.178601 -0.829528 0
M  V30 5 C -2.556269 -2.045371 -0.008481 0
M  V30 6 C -1.347383 -1.411749 0.140426 0
M  V30 7 C -0.192841 -1.835238 -0.466906 0
M  V30 8 C -0.193767 -2.950665 -1.279522 0
M  V30 9 O 0.961064 -3.374542 -1.887264 0
M  V30 10 C 2.142628 -2.638166 -1.656477 0
M  V30 11 C -1.371085 -0.240418 0.999177 0
M  V30 12 C -0.250060 0.509435 1.256975 0
M  V30 13 C -0.337302 1.611698 2.083509 0
M  V30 14 N 0.775648 2.435416 2.404933 0
M  V30 15 C 2.126612 2.272824 1.972357 0
M  V30 16 C 3.019648 3.415042 2.452209 0
M  V30 17 C 4.398905 2.831923 2.635683 0
M  V30 18 C 4.301292 1.372663 2.308185 0
M  V30 19 C 2.825328 1.104658 2.638910 0
M  V30 20 N -1.549643 1.885573 2.595618 0
M  V30 21 C -2.633362 1.136527 2.328638 0
M  V30 22 O -3.677284 1.578654 2.919988 0
M  V30 23 N -2.573253 0.043690 1.516235 0
M  V30 24 C -3.872766 -0.570744 1.402589 0
M  V30 25 C -3.903820 -1.777416 0.535799 0
M  V30 26 H -3.143547 -5.011565 -3.307770 0
M  V30 27 H -2.126144 -6.470721 -3.071191 0
M  V30 28 H -3.035745 -5.874441 -1.671413 0
M  V30 29 H -3.433881 -3.805881 -1.064239 0
M  V30 30 H 0.721821 -1.327316 -0.333482 0
M  V30 31 H 1.930965 -1.588602 -2.007976 0
M  V30 32 H 3.003469 -2.985914 -2.266808 0
M  V30 33 H 2.328477 -2.658165 -0.571152 0
M  V30 34 H 0.671431 0.251759 0.826195 0
M  V30 35 H 0.591535 3.269655 3.038682 0
M  V30 36 H 2.230572 2.135631 0.879017 0
M  V30 37 H 2.590590 3.800472 3.387020 0
M  V30 38 H 3.071789 4.156817 1.639535 0
M  V30 39 H 5.179059 3.379008 2.068271 0
M  V30 40 H 4.701955 2.917363 3.705782 0
M  V30 41 H 4.939748 0.777581 2.997713 0
M  V30 42 H 4.524281 1.132707 1.256627 0
M  V30 43 H 2.581808 0.127218 2.217434 0
M  V30 44 H 2.776401 1.183042 3.734289 0
M  V30 45 H -4.572302 0.231615 1.057291 0
M  V30 46 H -4.157976 -0.885758 2.451861 0
M  V30 47 H -4.289734 -2.653133 1.100875 0
M  V30 48 H -4.585329 -1.539345 -0.328844 0
M  V30 END ATOM
M  V30 BEGIN BOND
M  V30 1 1 1 2
M  V30 2 1 2 3
M  V30 3 2 3 4
M  V30 4 1 4 5
M  V30 5 2 5 6
M  V30 6 1 6 7
M  V30 7 2 7 8
M  V30 8 1 8 9
M  V30 9 1 9 10
M  V30 10 1 6 11
M  V30 11 2 11 12
M  V30 12 1 12 13
M  V30 13 1 13 14
M  V30 14 1 14 15
M  V30 15 1 15 16
M  V30 16 1 16 17
M  V30 17 1 17 18
M  V30 18 1 18 19
M  V30 19 2 13 20
M  V30 20 1 20 21
M  V30 21 2 21 22
M  V30 22 1 21 23
M  V30 23 1 23 24
M  V30 24 1 24 25
M  V30 25 1 8 3
M  V30 26 1 23 11
M  V30 27 1 25 5
M  V30 28 1 19 15
M  V30 29 1 1 26
M  V30 30 1 1 27
M  V30 31 1 1 28
M  V30 32 1 4 29
M  V30 33 1 7 30
M  V30 34 1 10 31
M  V30 35 1 10 32
M  V30 36 1 10 33
M  V30 37 1 12 34
M  V30 38 1 14 35
M  V30 39 1 15 36
M  V30 40 1 16 37
M  V30 41 1 16 38
M  V30 42 1 17 39
M  V30 43 1 17 40
M  V30 44 1 18 41
M  V30 45 1 18 42
M  V30 46 1 19 43
M  V30 47 1 19 44
M  V30 48 1 24 45
M  V30 49 1 24 46
M  V30 50 1 25 47
M  V30 51 1 25 48
M  V30 END BOND
M  V30 END CTAB
M  END
>  <Dataset>  (883) 
ChEMBL_Kinases

>  <Ligand_Instance>  (883) 
nan

>  <PDB_ID>  (883) 
nan

>  <Standardized_SMILES>  (883) 
COc1cc2c(cc1OC)-c1cc(NC3CCCC3)nc(=O)n1CC2

>  <Name>  (883) 
nan

>  <Pocket>  (883) 
nan

>  <ATP_Site>  (883) 
nan

>  <Peripheral>  (883) 
nan

>  <Num_H_Atoms_ProtBoundConf>  (883) 
nan

>  <Num_Resolved_Atoms>  (883) 
nan

>  <Num_Not_Resolved_Atoms>  (883) 
nan

$$$$
CHEMBL1598011
     RDKit          3D

  0  0  0  0  0  0  0  0  0  0999 V3000
M  V30 BEGIN CTAB
M  V30 COUNTS 46 48 0 0 0
M  V30 BEGIN ATOM
M  V30 1 C 0.417297 -2.668497 -0.531192 0
M  V30 2 C 1.326395 -1.761638 -1.320047 0
M  V30 3 N 2.005643 -2.130982 -2.349012 0
M  V30 4 N 2.767516 -1.133702 -2.910491 0
M  V30 5 C 3.623236 -1.224549 -4.049575 0
M  V30 6 C 3.235575 -0.992232 -5.364146 0
M  V30 7 C 4.187858 -1.125318 -6.325512 0
M  V30 8 C 5.486882 -1.475496 -6.022040 0
M  V30 9 C 5.890888 -1.711317 -4.712291 0
M  V30 10 C 4.919596 -1.575490 -3.732540 0
M  V30 11 C 2.580035 0.063906 -2.166458 0
M  V30 12 O 3.054986 1.215248 -2.294111 0
M  V30 13 C 1.627331 -0.352695 -1.115660 0
M  V30 14 C 1.133960 0.392378 -0.168088 0
M  V30 15 C 0.195613 -0.083850 0.839195 0
M  V30 16 C -0.228265 0.783442 1.748665 0
M  V30 17 C -1.150148 0.601416 2.858285 0
M  V30 18 C -1.475497 1.629532 3.708503 0
M  V30 19 C -2.346264 1.470693 4.762061 0
M  V30 20 C -2.949273 0.258891 5.029059 0
M  V30 21 N -3.847007 0.098500 6.116660 0
M  V30 22 C -4.147535 1.223995 6.975869 0
M  V30 23 C -4.454219 -1.186027 6.358496 0
M  V30 24 C -2.651600 -0.803317 4.200133 0
M  V30 25 C -1.772013 -0.590123 3.158049 0
M  V30 26 H -0.641550 -2.410978 -0.636792 0
M  V30 27 H 0.483614 -3.683019 -1.042665 0
M  V30 28 H 0.797052 -2.872332 0.469812 0
M  V30 29 H 2.211462 -0.725036 -5.518411 0
M  V30 30 H 3.897002 -0.945418 -7.365394 0
M  V30 31 H 6.242415 -1.579734 -6.797737 0
M  V30 32 H 6.910459 -1.986042 -4.475248 0
M  V30 33 H 5.281006 -1.769270 -2.725372 0
M  V30 34 H 1.461039 1.416679 -0.158830 0
M  V30 35 H -0.319117 -0.977042 1.126398 0
M  V30 36 H 0.165347 1.817913 1.676590 0
M  V30 37 H -1.035716 2.623260 3.559941 0
M  V30 38 H -2.555173 2.327223 5.390437 0
M  V30 39 H -3.264093 1.837125 7.239517 0
M  V30 40 H -4.886558 1.929827 6.506044 0
M  V30 41 H -4.667123 0.843323 7.898272 0
M  V30 42 H -4.971569 -1.494294 5.408883 0
M  V30 43 H -3.711478 -1.988034 6.548370 0
M  V30 44 H -5.224934 -1.104135 7.128268 0
M  V30 45 H -3.116673 -1.756643 4.398202 0
M  V30 46 H -1.598106 -1.472613 2.563802 0
M  V30 END ATOM
M  V30 BEGIN BOND
M  V30 1 1 1 2
M  V30 2 2 2 3
M  V30 3 1 3 4
M  V30 4 1 4 5
M  V30 5 2 5 6
M  V30 6 1 6 7
M  V30 7 2 7 8
M  V30 8 1 8 9
M  V30 9 2 9 10
M  V30 10 1 4 11
M  V30 11 2 11 12
M  V30 12 1 11 13
M  V30 13 2 13 14
M  V30 14 1 14 15
M  V30 15 2 15 16
M  V30 16 1 16 17
M  V30 17 2 17 18
M  V30 18 1 18 19
M  V30 19 2 19 20
M  V30 20 1 20 21
M  V30 21 1 21 22
M  V30 22 1 21 23
M  V30 23 1 20 24
M  V30 24 2 24 25
M  V30 25 1 13 2
M  V30 26 1 25 17
M  V30 27 1 10 5
M  V30 28 1 1 26
M  V30 29 1 1 27
M  V30 30 1 1 28
M  V30 31 1 6 29
M  V30 32 1 7 30
M  V30 33 1 8 31
M  V30 34 1 9 32
M  V30 35 1 10 33
M  V30 36 1 14 34
M  V30 37 1 15 35
M  V30 38 1 16 36
M  V30 39 1 18 37
M  V30 40 1 19 38
M  V30 41 1 22 39
M  V30 42 1 22 40
M  V30 43 1 22 41
M  V30 44 1 23 42
M  V30 45 1 23 43
M  V30 46 1 23 44
M  V30 47 1 24 45
M  V30 48 1 25 46
M  V30 END BOND
M  V30 END CTAB
M  END
>  <Dataset>  (884) 
ChEMBL_Kinases

>  <Ligand_Instance>  (884) 
nan

>  <PDB_ID>  (884) 
nan

>  <Standardized_SMILES>  (884) 
CC1=NN(c2ccccc2)C(=O)/C1=C/C=C/c1ccc(N(C)C)cc1

>  <Name>  (884) 
nan

>  <Pocket>  (884) 
nan

>  <ATP_Site>  (884) 
nan

>  <Peripheral>  (884) 
nan

>  <Num_H_Atoms_ProtBoundConf>  (884) 
nan

>  <Num_Resolved_Atoms>  (884) 
nan

>  <Num_Not_Resolved_Atoms>  (884) 
nan

$$$$
CHEMBL1597459
     RDKit          3D

  0  0  0  0  0  0  0  0  0  0999 V3000
M  V30 BEGIN CTAB
M  V30 COUNTS 28 30 0 0 0
M  V30 BEGIN ATOM
M  V30 1 C -2.171475 -2.041505 3.936038 0
M  V30 2 C -1.731673 -1.389795 2.657809 0
M  V30 3 C -0.795592 -0.360369 2.656865 0
M  V30 4 C -0.403674 0.226583 1.471068 0
M  V30 5 S 0.782511 1.543435 1.374984 0
M  V30 6 C 2.476227 0.879527 1.187269 0
M  V30 7 N 3.295771 0.569237 1.923864 0
M  V30 8 N 4.474404 0.105346 1.652124 0
M  V30 9 C 4.888141 -0.070783 0.553811 0
M  V30 10 N 6.115610 -0.558485 -0.033141 0
M  V30 11 S 3.395179 0.498903 -0.456561 0
M  V30 12 C -0.977841 -0.250415 0.297381 0
M  V30 13 C -0.621961 0.299903 -0.914935 0
M  V30 14 C -1.136406 -0.106808 -2.126880 0
M  V30 15 C -2.056900 -1.129076 -2.049735 0
M  V30 16 C -2.472509 -1.741981 -0.861075 0
M  V30 17 C -1.908976 -1.278055 0.325990 0
M  V30 18 N -2.279003 -1.838701 1.495173 0
M  V30 19 H -2.160311 -3.133193 3.877375 0
M  V30 20 H -1.530919 -1.656038 4.764763 0
M  V30 21 H -3.236634 -1.728163 4.085592 0
M  V30 22 H -0.362229 -0.007057 3.593053 0
M  V30 23 H 7.012526 -0.054483 0.201501 0
M  V30 24 H 6.076630 -1.403833 -0.678276 0
M  V30 25 H 0.115820 1.111551 -0.919268 0
M  V30 26 H -0.859028 0.322141 -3.073072 0
M  V30 27 H -2.517300 -1.517225 -2.950870 0
M  V30 28 H -3.204782 -2.543646 -0.888238 0
M  V30 END ATOM
M  V30 BEGIN BOND
M  V30 1 1 1 2
M  V30 2 2 2 3
M  V30 3 1 3 4
M  V30 4 1 4 5
M  V30 5 1 5 6
M  V30 6 2 6 7
M  V30 7 1 7 8
M  V30 8 2 8 9
M  V30 9 1 9 10
M  V30 10 1 9 11
M  V30 11 2 4 12
M  V30 12 1 12 13
M  V30 13 2 13 14
M  V30 14 1 14 15
M  V30 15 2 15 16
M  V30 16 1 16 17
M  V30 17 2 17 18
M  V30 18 1 18 2
M  V30 19 1 11 6
M  V30 20 1 17 12
M  V30 21 1 1 19
M  V30 22 1 1 20
M  V30 23 1 1 21
M  V30 24 1 3 22
M  V30 25 1 10 23
M  V30 26 1 10 24
M  V30 27 1 13 25
M  V30 28 1 14 26
M  V30 29 1 15 27
M  V30 30 1 16 28
M  V30 END BOND
M  V30 END CTAB
M  END
>  <Dataset>  (885) 
ChEMBL_Kinases

>  <Ligand_Instance>  (885) 
nan

>  <PDB_ID>  (885) 
nan

>  <Standardized_SMILES>  (885) 
Cc1cc(Sc2nnc(N)s2)c2ccccc2n1

>  <Name>  (885) 
nan

>  <Pocket>  (885) 
nan

>  <ATP_Site>  (885) 
nan

>  <Peripheral>  (885) 
nan

>  <Num_H_Atoms_ProtBoundConf>  (885) 
nan

>  <Num_Resolved_Atoms>  (885) 
nan

>  <Num_Not_Resolved_Atoms>  (885) 
nan

$$$$
CHEMBL1614995
     RDKit          3D

  0  0  0  0  0  0  0  0  0  0999 V3000
M  V30 BEGIN CTAB
M  V30 COUNTS 49 53 0 0 0
M  V30 BEGIN ATOM
M  V30 1 C 4.097783 -5.247112 2.093311 0
M  V30 2 O 4.354311 -3.886777 2.298661 0
M  V30 3 C 5.352594 -3.707166 3.221970 0
M  V30 4 C 5.725625 -2.287617 3.533936 0
M  V30 5 O 4.749149 -1.469603 4.046251 0
M  V30 6 C 3.604825 -1.031555 3.517685 0
M  V30 7 C 3.051726 -0.256124 4.567302 0
M  V30 8 N 1.855019 0.415813 4.506834 0
M  V30 9 C 1.127254 0.342355 3.352609 0
M  V30 10 C 1.600632 -0.391233 2.290830 0
M  V30 11 C 0.973543 -0.586869 0.989174 0
M  V30 12 C -0.241649 0.015236 0.743901 0
M  V30 13 C -0.918506 -0.106269 -0.452479 0
M  V30 14 C -0.389744 -0.857525 -1.480634 0
M  V30 15 C -0.964893 -1.055114 -2.716025 0
M  V30 16 C -2.179999 -0.433221 -2.915246 0
M  V30 17 C -2.771125 0.333308 -1.935926 0
M  V30 18 C -3.939355 1.060130 -1.828415 0
M  V30 19 C -4.025392 1.647206 -0.582856 0
M  V30 20 N -2.904231 1.274322 0.066988 0
M  V30 21 C -2.140991 0.498304 -0.701842 0
M  V30 22 C -5.150038 2.490170 -0.146363 0
M  V30 23 C -6.356189 2.355907 -1.014057 0
M  V30 24 N -6.101051 2.078363 -2.388625 0
M  V30 25 C -5.012923 1.268410 -2.796520 0
M  V30 26 O -4.945821 0.738925 -3.934033 0
M  V30 27 C 0.825610 -1.445274 -1.201850 0
M  V30 28 N 1.469832 -1.315026 -0.029302 0
M  V30 29 C 2.803601 -1.042175 2.407118 0
M  V30 30 H 4.977069 -5.806892 1.722290 0
M  V30 31 H 3.805591 -5.732488 3.062002 0
M  V30 32 H 3.281344 -5.375364 1.355546 0
M  V30 33 H 5.075902 -4.269826 4.149781 0
M  V30 34 H 6.265060 -4.237869 2.846722 0
M  V30 35 H 6.618180 -2.363868 4.226403 0
M  V30 36 H 6.210424 -1.851634 2.599056 0
M  V30 37 H 3.393542 -0.014610 5.589231 0
M  V30 38 H 0.175721 0.830528 3.198674 0
M  V30 39 H -0.780015 0.631352 1.445611 0
M  V30 40 H -0.454113 -1.664679 -3.439795 0
M  V30 41 H -2.671643 -0.556472 -3.865346 0
M  V30 42 H -2.664284 1.563201 1.061248 0
M  V30 43 H -4.790810 3.538972 -0.192968 0
M  V30 44 H -5.336373 2.246465 0.914027 0
M  V30 45 H -7.003672 3.264629 -0.886671 0
M  V30 46 H -6.951356 1.500703 -0.613622 0
M  V30 47 H -6.723287 2.473706 -3.145358 0
M  V30 48 H 1.340301 -2.059727 -1.931700 0
M  V30 49 H 3.275720 -1.623368 1.638071 0
M  V30 END ATOM
M  V30 BEGIN BOND
M  V30 1 1 1 2
M  V30 2 1 2 3
M  V30 3 1 3 4
M  V30 4 1 4 5
M  V30 5 1 5 6
M  V30 6 2 6 7
M  V30 7 1 7 8
M  V30 8 2 8 9
M  V30 9 1 9 10
M  V30 10 1 10 11
M  V30 11 2 11 12
M  V30 12 1 12 13
M  V30 13 2 13 14
M  V30 14 1 14 15
M  V30 15 2 15 16
M  V30 16 1 16 17
M  V30 17 1 17 18
M  V30 18 2 18 19
M  V30 19 1 19 20
M  V30 20 1 20 21
M  V30 21 1 19 22
M  V30 22 1 22 23
M  V30 23 1 23 24
M  V30 24 1 24 25
M  V30 25 2 25 26
M  V30 26 1 14 27
M  V30 27 2 27 28
M  V30 28 2 10 29
M  V30 29 1 29 6
M  V30 30 1 28 11
M  V30 31 1 21 13
M  V30 32 2 21 17
M  V30 33 1 25 18
M  V30 34 1 1 30
M  V30 35 1 1 31
M  V30 36 1 1 32
M  V30 37 1 3 33
M  V30 38 1 3 34
M  V30 39 1 4 35
M  V30 40 1 4 36
M  V30 41 1 7 37
M  V30 42 1 9 38
M  V30 43 1 12 39
M  V30 44 1 15 40
M  V30 45 1 16 41
M  V30 46 1 20 42
M  V30 47 1 22 43
M  V30 48 1 22 44
M  V30 49 1 23 45
M  V30 50 1 23 46
M  V30 51 1 24 47
M  V30 52 1 27 48
M  V30 53 1 29 49
M  V30 END BOND
M  V30 END CTAB
M  END
>  <Dataset>  (886) 
ChEMBL_Kinases

>  <Ligand_Instance>  (886) 
nan

>  <PDB_ID>  (886) 
nan

>  <Standardized_SMILES>  (886) 
COCCOc1cncc(-c2cc3c(ccc4c5c([nH]c43)CCNC5=O)cn2)c1

>  <Name>  (886) 
nan

>  <Pocket>  (886) 
nan

>  <ATP_Site>  (886) 
nan

>  <Peripheral>  (886) 
nan

>  <Num_H_Atoms_ProtBoundConf>  (886) 
nan

>  <Num_Resolved_Atoms>  (886) 
nan

>  <Num_Not_Resolved_Atoms>  (886) 
nan

$$$$
CHEMBL1614777
     RDKit          3D

  0  0  0  0  0  0  0  0  0  0999 V3000
M  V30 BEGIN CTAB
M  V30 COUNTS 62 65 0 0 0
M  V30 BEGIN ATOM
M  V30 1 C 1.728164 3.016447 4.422876 0
M  V30 2 C 1.066098 2.273091 3.290644 0 CFG=2
M  V30 3 C 0.069015 3.123766 2.543600 0
M  V30 4 C -0.533978 2.251276 1.462907 0 CFG=1
M  V30 5 N 0.381635 1.920126 0.435437 0
M  V30 6 C 0.337728 2.294818 -0.934114 0
M  V30 7 O -0.651482 3.007620 -1.228236 0
M  V30 8 O 1.349733 1.854900 -1.777239 0
M  V30 9 C 1.276096 2.247251 -3.141440 0
M  V30 10 C 0.008336 1.754069 -3.806289 0
M  V30 11 C 2.451081 1.788698 -3.937934 0
M  V30 12 C 1.216692 3.777370 -3.105711 0
M  V30 13 C -1.219224 1.091915 2.121300 0
M  V30 14 N -0.360516 0.306057 2.946419 0
M  V30 15 C -0.156247 -1.097798 2.878382 0
M  V30 16 C -0.782869 -1.923826 1.970462 0
M  V30 17 C -0.550902 -3.277471 1.945738 0
M  V30 18 C -1.202732 -4.169681 0.993943 0
M  V30 19 C -2.106483 -3.779144 0.028376 0
M  V30 20 C -2.695961 -4.664050 -0.849355 0
M  V30 21 C -2.399651 -6.001797 -0.795973 0
M  V30 22 C -2.820927 -7.080675 -1.520305 0
M  V30 23 N -3.761066 -6.976965 -2.590478 0
M  V30 24 N -2.177390 -8.148823 -1.004559 0
M  V30 25 N -1.400991 -7.759257 -0.017386 0
M  V30 26 C -1.504775 -6.419132 0.153447 0
M  V30 27 C -0.921751 -5.516342 1.027562 0
M  V30 28 N 0.326649 -3.777575 2.856965 0
M  V30 29 C 0.942842 -3.000166 3.742203 0
M  V30 30 N 1.839463 -3.608964 4.652019 0
M  V30 31 N 0.699168 -1.661302 3.750084 0
M  V30 32 C 0.311275 1.121985 3.902569 0
M  V30 33 H 2.040738 2.266012 5.204717 0
M  V30 34 H 2.668534 3.506054 4.060351 0
M  V30 35 H 1.035498 3.724339 4.919933 0
M  V30 36 H 1.841522 1.955144 2.582134 0
M  V30 37 H -0.728637 3.519166 3.200046 0
M  V30 38 H 0.636968 3.944728 2.044436 0
M  V30 39 H -1.336119 2.887929 0.995658 0
M  V30 40 H 1.192974 1.315120 0.756905 0
M  V30 41 H -0.322593 2.463309 -4.614647 0
M  V30 42 H -0.835021 1.642675 -3.116556 0
M  V30 43 H 0.226951 0.773158 -4.278778 0
M  V30 44 H 3.198697 2.600740 -4.041538 0
M  V30 45 H 2.871957 0.851861 -3.495216 0
M  V30 46 H 2.121316 1.515259 -4.961242 0
M  V30 47 H 1.654913 4.185663 -2.176711 0
M  V30 48 H 1.808787 4.157630 -3.976958 0
M  V30 49 H 0.185798 4.139062 -3.197414 0
M  V30 50 H -1.964683 1.561812 2.831660 0
M  V30 51 H -1.872353 0.515762 1.433536 0
M  V30 52 H -1.455252 -1.470689 1.287366 0
M  V30 53 H -2.355968 -2.730059 -0.033364 0
M  V30 54 H -3.404484 -4.303764 -1.594512 0
M  V30 55 H -3.437959 -7.051987 -3.582966 0
M  V30 56 H -4.792014 -6.829995 -2.614608 0
M  V30 57 H -2.354459 -9.102356 -1.417717 0
M  V30 58 H -0.217205 -5.908856 1.761112 0
M  V30 59 H 2.787657 -3.435348 5.006592 0
M  V30 60 H 1.616042 -4.475681 5.182318 0
M  V30 61 H 1.029371 0.488841 4.463327 0
M  V30 62 H -0.399189 1.505813 4.639931 0
M  V30 END ATOM
M  V30 BEGIN BOND
M  V30 1 1 1 2
M  V30 2 1 2 3
M  V30 3 1 3 4
M  V30 4 1 4 5
M  V30 5 1 5 6
M  V30 6 2 6 7
M  V30 7 1 6 8
M  V30 8 1 8 9
M  V30 9 1 9 10
M  V30 10 1 9 11
M  V30 11 1 9 12
M  V30 12 1 4 13
M  V30 13 1 13 14
M  V30 14 1 14 15
M  V30 15 2 15 16
M  V30 16 1 16 17
M  V30 17 1 17 18
M  V30 18 1 18 19
M  V30 19 2 19 20
M  V30 20 1 20 21
M  V30 21 2 21 22
M  V30 22 1 22 23
M  V30 23 1 22 24
M  V30 24 1 24 25
M  V30 25 2 25 26
M  V30 26 1 26 27
M  V30 27 2 17 28
M  V30 28 1 28 29
M  V30 29 1 29 30
M  V30 30 2 29 31
M  V30 31 1 14 32
M  V30 32 1 32 2
M  V30 33 1 31 15
M  V30 34 2 27 18
M  V30 35 1 26 21
M  V30 36 1 1 33
M  V30 37 1 1 34
M  V30 38 1 1 35
M  V30 39 1 2 36 CFG=3
M  V30 40 1 3 37
M  V30 41 1 3 38
M  V30 42 1 4 39 CFG=3
M  V30 43 1 5 40
M  V30 44 1 10 41
M  V30 45 1 10 42
M  V30 46 1 10 43
M  V30 47 1 11 44
M  V30 48 1 11 45
M  V30 49 1 11 46
M  V30 50 1 12 47
M  V30 51 1 12 48
M  V30 52 1 12 49
M  V30 53 1 13 50
M  V30 54 1 13 51
M  V30 55 1 16 52
M  V30 56 1 19 53
M  V30 57 1 20 54
M  V30 58 1 23 55
M  V30 59 1 23 56
M  V30 60 1 24 57
M  V30 61 1 27 58
M  V30 62 1 30 59
M  V30 63 1 30 60
M  V30 64 1 32 61
M  V30 65 1 32 62
M  V30 END BOND
M  V30 END CTAB
M  END
>  <Dataset>  (887) 
ChEMBL_Kinases

>  <Ligand_Instance>  (887) 
nan

>  <PDB_ID>  (887) 
nan

>  <Standardized_SMILES>  (887) 
C[C@@H]1C[C@@H](NC(=O)OC(C)(C)C)CN(c2cc(-c3ccc4c(N)[nH]nc4c3)nc(N)n2)C1

>  <Name>  (887) 
nan

>  <Pocket>  (887) 
nan

>  <ATP_Site>  (887) 
nan

>  <Peripheral>  (887) 
nan

>  <Num_H_Atoms_ProtBoundConf>  (887) 
nan

>  <Num_Resolved_Atoms>  (887) 
nan

>  <Num_Not_Resolved_Atoms>  (887) 
nan

$$$$
CHEMBL1614775
     RDKit          3D

  0  0  0  0  0  0  0  0  0  0999 V3000
M  V30 BEGIN CTAB
M  V30 COUNTS 59 63 0 0 0
M  V30 BEGIN ATOM
M  V30 1 C 1.195550 0.382544 4.465929 0
M  V30 2 C 2.181836 -0.587529 3.905213 0 CFG=2
M  V30 3 C 3.580435 -0.063182 3.863913 0
M  V30 4 C 3.839162 0.782753 2.632987 0
M  V30 5 C 3.617224 -0.011874 1.368060 0 CFG=2
M  V30 6 C 2.858620 0.752507 0.345444 0
M  V30 7 O 3.345125 0.976602 -0.816827 0
M  V30 8 N 1.570514 1.306706 0.503625 0
M  V30 9 C 0.913199 2.026779 -0.532137 0
M  V30 10 C 0.073298 1.504061 -1.512693 0
M  V30 11 C -0.484022 2.352551 -2.447460 0
M  V30 12 C -0.215921 3.701218 -2.415362 0
M  V30 13 C 0.619480 4.253547 -1.447763 0
M  V30 14 C 1.179716 3.394221 -0.506583 0
M  V30 15 C 2.869679 -1.294856 1.649562 0
M  V30 16 N 1.803830 -1.129407 2.608272 0
M  V30 17 C 0.426115 -1.451316 2.403063 0
M  V30 18 C -0.067508 -1.951172 1.218480 0
M  V30 19 C -1.392767 -2.265819 1.012150 0
M  V30 20 C -1.946050 -2.794900 -0.225227 0
M  V30 21 C -3.300860 -3.053797 -0.254381 0
M  V30 22 C -3.891226 -3.563781 -1.416713 0
M  V30 23 C -3.136049 -3.814526 -2.543977 0
M  V30 24 C -3.400113 -4.299945 -3.808675 0
M  V30 25 N -4.678394 -4.701032 -4.290102 0
M  V30 26 N -2.244886 -4.333629 -4.520320 0
M  V30 27 N -1.265486 -3.881376 -3.731907 0
M  V30 28 C -1.777173 -3.558129 -2.524225 0
M  V30 29 C -1.217907 -3.055151 -1.365632 0
M  V30 30 N -2.242873 -2.065134 2.044979 0
M  V30 31 C -1.765197 -1.569551 3.225635 0
M  V30 32 N -2.648956 -1.355418 4.315241 0
M  V30 33 N -0.466225 -1.274779 3.388426 0
M  V30 34 H 0.528896 -0.126972 5.215598 0
M  V30 35 H 1.760255 1.208401 4.992234 0
M  V30 36 H 0.523885 0.856798 3.729353 0
M  V30 37 H 2.211759 -1.491034 4.582265 0
M  V30 38 H 3.779900 0.584884 4.736924 0
M  V30 39 H 4.335914 -0.869484 3.865209 0
M  V30 40 H 3.225642 1.685304 2.686835 0
M  V30 41 H 4.904209 1.077396 2.657319 0
M  V30 42 H 4.592240 -0.297533 0.904697 0
M  V30 43 H 1.096340 1.176063 1.423509 0
M  V30 44 H -0.069415 0.431190 -1.445409 0
M  V30 45 H -1.118178 1.885653 -3.170638 0
M  V30 46 H -0.657602 4.355503 -3.151858 0
M  V30 47 H 0.816730 5.302695 -1.437666 0
M  V30 48 H 1.821423 3.886793 0.220433 0
M  V30 49 H 3.644158 -2.013235 2.009998 0
M  V30 50 H 2.511448 -1.730584 0.680898 0
M  V30 51 H 0.568234 -2.122026 0.385229 0
M  V30 52 H -4.000275 -2.905228 0.547482 0
M  V30 53 H -4.949977 -3.786182 -1.497627 0
M  V30 54 H -5.364800 -5.249982 -3.715420 0
M  V30 55 H -5.133549 -4.542000 -5.215460 0
M  V30 56 H -2.162138 -4.664240 -5.521287 0
M  V30 57 H -0.164383 -2.859868 -1.360456 0
M  V30 58 H -2.856426 -0.330519 4.177800 0
M  V30 59 H -3.107591 -1.833913 5.118590 0
M  V30 END ATOM
M  V30 BEGIN BOND
M  V30 1 1 1 2
M  V30 2 1 2 3
M  V30 3 1 3 4
M  V30 4 1 4 5
M  V30 5 1 5 6
M  V30 6 2 6 7
M  V30 7 1 6 8
M  V30 8 1 8 9
M  V30 9 2 9 10
M  V30 10 1 10 11
M  V30 11 2 11 12
M  V30 12 1 12 13
M  V30 13 2 13 14
M  V30 14 1 5 15
M  V30 15 1 15 16
M  V30 16 1 16 17
M  V30 17 2 17 18
M  V30 18 1 18 19
M  V30 19 1 19 20
M  V30 20 1 20 21
M  V30 21 2 21 22
M  V30 22 1 22 23
M  V30 23 2 23 24
M  V30 24 1 24 25
M  V30 25 1 24 26
M  V30 26 1 26 27
M  V30 27 2 27 28
M  V30 28 1 28 29
M  V30 29 2 19 30
M  V30 30 1 30 31
M  V30 31 1 31 32
M  V30 32 2 31 33
M  V30 33 1 16 2
M  V30 34 1 33 17
M  V30 35 1 14 9
M  V30 36 2 29 20
M  V30 37 1 28 23
M  V30 38 1 1 34
M  V30 39 1 1 35
M  V30 40 1 1 36
M  V30 41 1 2 37 CFG=1
M  V30 42 1 3 38
M  V30 43 1 3 39
M  V30 44 1 4 40
M  V30 45 1 4 41
M  V30 46 1 5 42 CFG=3
M  V30 47 1 8 43
M  V30 48 1 10 44
M  V30 49 1 11 45
M  V30 50 1 12 46
M  V30 51 1 13 47
M  V30 52 1 14 48
M  V30 53 1 15 49
M  V30 54 1 15 50
M  V30 55 1 18 51
M  V30 56 1 21 52
M  V30 57 1 22 53
M  V30 58 1 25 54
M  V30 59 1 25 55
M  V30 60 1 26 56
M  V30 61 1 29 57
M  V30 62 1 32 58
M  V30 63 1 32 59
M  V30 END BOND
M  V30 END CTAB
M  END
>  <Dataset>  (888) 
ChEMBL_Kinases

>  <Ligand_Instance>  (888) 
nan

>  <PDB_ID>  (888) 
nan

>  <Standardized_SMILES>  (888) 
C[C@@H]1CC[C@H](C(=O)Nc2ccccc2)CN1c1cc(-c2ccc3c(N)[nH]nc3c2)nc(N)n1

>  <Name>  (888) 
nan

>  <Pocket>  (888) 
nan

>  <ATP_Site>  (888) 
nan

>  <Peripheral>  (888) 
nan

>  <Num_H_Atoms_ProtBoundConf>  (888) 
nan

>  <Num_Resolved_Atoms>  (888) 
nan

>  <Num_Not_Resolved_Atoms>  (888) 
nan

$$$$
CHEMBL1614725
     RDKit          3D

  0  0  0  0  0  0  0  0  0  0999 V3000
M  V30 BEGIN CTAB
M  V30 COUNTS 63 66 0 0 0
M  V30 BEGIN ATOM
M  V30 1 C 4.975974 -0.348721 2.904515 0
M  V30 2 C 3.761910 -1.223357 2.690721 0
M  V30 3 C 3.176562 -1.539265 4.048597 0
M  V30 4 O 4.189111 -2.415701 2.102816 0
M  V30 5 C 2.729677 -0.524551 1.845342 0
M  V30 6 C 3.276770 -0.186123 0.511636 0
M  V30 7 O 4.378475 -0.340597 -0.111005 0
M  V30 8 N 2.365415 0.504539 -0.364461 0
M  V30 9 C 2.769422 0.879393 -1.671859 0
M  V30 10 C 1.764277 1.577141 -2.530904 0
M  V30 11 N 1.263268 2.797005 -1.971395 0
M  V30 12 C 1.977508 3.963665 -1.996282 0
M  V30 13 C 1.297560 4.959369 -1.333097 0
M  V30 14 C 0.114348 4.432594 -0.866496 0
M  V30 15 N -0.939569 4.912414 -0.188444 0
M  V30 16 C -1.983485 4.062752 0.074756 0
M  V30 17 N -1.923909 2.791200 -0.346570 0
M  V30 18 C -0.875130 2.271275 -1.032785 0
M  V30 19 N -1.138517 0.934088 -1.352515 0
M  V30 20 C -1.229194 -0.292586 -0.652051 0
M  V30 21 C -0.943255 -0.516303 0.662778 0
M  V30 22 C -1.079978 -1.696120 1.339861 0
M  V30 23 C -1.556984 -2.740344 0.585584 0
M  V30 24 O -1.759834 -4.007954 1.114500 0
M  V30 25 C -3.094772 -4.471678 1.107588 0
M  V30 26 C -3.350355 -5.774899 1.494452 0
M  V30 27 C -4.665707 -6.181833 1.472334 0
M  V30 28 C -5.744376 -5.409072 1.100798 0
M  V30 29 C -5.443675 -4.120459 0.724461 0
M  V30 30 C -6.541261 -3.182858 0.295196 0
M  V30 31 F -6.139944 -2.654668 -0.941450 0
M  V30 32 F -7.757610 -3.790885 0.238397 0
M  V30 33 F -6.544574 -2.104852 1.169669 0
M  V30 34 C -4.152741 -3.638703 0.720037 0
M  V30 35 C -1.872510 -2.592380 -0.771093 0
M  V30 36 Cl -2.464946 -3.960299 -1.726804 0
M  V30 37 C -1.711789 -1.374661 -1.396182 0
M  V30 38 C 0.163288 3.127444 -1.290078 0
M  V30 39 H 4.636417 0.469858 3.588332 0
M  V30 40 H 5.404981 0.048275 1.972033 0
M  V30 41 H 5.696276 -0.962751 3.483444 0
M  V30 42 H 2.625585 -0.661300 4.394298 0
M  V30 43 H 2.594993 -2.488469 4.035650 0
M  V30 44 H 4.004441 -1.707787 4.792633 0
M  V30 45 H 3.442964 -2.894230 1.631689 0
M  V30 46 H 1.835554 -1.164271 1.740720 0
M  V30 47 H 2.434163 0.400550 2.392594 0
M  V30 48 H 1.395869 0.797034 -0.161506 0
M  V30 49 H 3.124945 -0.005634 -2.285336 0
M  V30 50 H 3.680680 1.537809 -1.645191 0
M  V30 51 H 0.983156 0.892732 -2.925702 0
M  V30 52 H 2.332108 1.870776 -3.467269 0
M  V30 53 H 2.939932 4.095854 -2.467977 0
M  V30 54 H 1.601025 5.988920 -1.181956 0
M  V30 55 H -2.788731 4.531727 0.622289 0
M  V30 56 H -1.294632 1.009990 -2.376492 0
M  V30 57 H -0.571820 0.353379 1.194824 0
M  V30 58 H -0.836879 -1.815950 2.383807 0
M  V30 59 H -2.577259 -6.469964 1.805407 0
M  V30 60 H -4.869352 -7.201938 1.775533 0
M  V30 61 H -6.772330 -5.736360 1.087146 0
M  V30 62 H -3.994866 -2.629576 0.426390 0
M  V30 63 H -1.972134 -1.315253 -2.455630 0
M  V30 END ATOM
M  V30 BEGIN BOND
M  V30 1 1 1 2
M  V30 2 1 2 3
M  V30 3 1 2 4
M  V30 4 1 2 5
M  V30 5 1 5 6
M  V30 6 2 6 7
M  V30 7 1 6 8
M  V30 8 1 8 9
M  V30 9 1 9 10
M  V30 10 1 10 11
M  V30 11 1 11 12
M  V30 12 2 12 13
M  V30 13 1 13 14
M  V30 14 2 14 15
M  V30 15 1 15 16
M  V30 16 2 16 17
M  V30 17 1 17 18
M  V30 18 1 18 19
M  V30 19 1 19 20
M  V30 20 2 20 21
M  V30 21 1 21 22
M  V30 22 2 22 23
M  V30 23 1 23 24
M  V30 24 1 24 25
M  V30 25 2 25 26
M  V30 26 1 26 27
M  V30 27 2 27 28
M  V30 28 1 28 29
M  V30 29 1 29 30
M  V30 30 1 30 31
M  V30 31 1 30 32
M  V30 32 1 30 33
M  V30 33 2 29 34
M  V30 34 1 23 35
M  V30 35 1 35 36
M  V30 36 2 35 37
M  V30 37 2 18 38
M  V30 38 1 38 11
M  V30 39 1 38 14
M  V30 40 1 37 20
M  V30 41 1 34 25
M  V30 42 1 1 39
M  V30 43 1 1 40
M  V30 44 1 1 41
M  V30 45 1 3 42
M  V30 46 1 3 43
M  V30 47 1 3 44
M  V30 48 1 4 45
M  V30 49 1 5 46
M  V30 50 1 5 47
M  V30 51 1 8 48
M  V30 52 1 9 49
M  V30 53 1 9 50
M  V30 54 1 10 51
M  V30 55 1 10 52
M  V30 56 1 12 53
M  V30 57 1 13 54
M  V30 58 1 16 55
M  V30 59 1 19 56
M  V30 60 1 21 57
M  V30 61 1 22 58
M  V30 62 1 26 59
M  V30 63 1 27 60
M  V30 64 1 28 61
M  V30 65 1 34 62
M  V30 66 1 37 63
M  V30 END BOND
M  V30 END CTAB
M  END
>  <Dataset>  (889) 
ChEMBL_Kinases

>  <Ligand_Instance>  (889) 
nan

>  <PDB_ID>  (889) 
nan

>  <Standardized_SMILES>  (889) 
CC(C)(O)CC(=O)NCCn1ccc2ncnc(Nc3ccc(Oc4cccc(C(F)(F)F)c4)c(Cl)c3)c21

>  <Name>  (889) 
TAK-285

>  <Pocket>  (889) 
nan

>  <ATP_Site>  (889) 
nan

>  <Peripheral>  (889) 
nan

>  <Num_H_Atoms_ProtBoundConf>  (889) 
nan

>  <Num_Resolved_Atoms>  (889) 
nan

>  <Num_Not_Resolved_Atoms>  (889) 
nan

$$$$
CHEMBL1614712
     RDKit          3D

  0  0  0  0  0  0  0  0  0  0999 V3000
M  V30 BEGIN CTAB
M  V30 COUNTS 62 67 0 0 0
M  V30 BEGIN ATOM
M  V30 1 N 3.972972 -1.407968 3.261861 0
M  V30 2 C 3.052809 -2.369344 2.764683 0
M  V30 3 N 3.307198 -3.680492 2.995661 0
M  V30 4 C 2.435769 -4.619361 2.540515 0
M  V30 5 N 1.324488 -4.283321 1.865010 0
M  V30 6 C 1.033191 -2.986143 1.613078 0
M  V30 7 C 1.909220 -2.036987 2.069881 0
M  V30 8 C 1.491689 -0.776685 1.750301 0
M  V30 9 C 2.003394 0.582630 1.941348 0
M  V30 10 C 3.233733 1.090949 1.641500 0
M  V30 11 C 3.535744 2.406818 1.913794 0
M  V30 12 C 2.567975 3.235735 2.505866 0
M  V30 13 C 1.286868 2.746731 2.829237 0
M  V30 14 O 0.627429 3.800806 3.375002 0
M  V30 15 C -0.664522 3.898670 3.866094 0
M  V30 16 C -1.752356 3.637305 2.892111 0
M  V30 17 C -2.465169 2.484571 2.620104 0
M  V30 18 C -3.438927 2.463632 1.646874 0
M  V30 19 C -3.768134 3.565940 0.889232 0
M  V30 20 C -3.091075 4.745397 1.115688 0
M  V30 21 C -2.122799 4.731879 2.096426 0
M  V30 22 C 1.077706 1.422587 2.521344 0
M  V30 23 C 0.294433 -1.017106 1.064430 0
M  V30 24 N 0.047098 -2.332170 0.997833 0
M  V30 25 C -1.107516 -2.927834 0.360510 0 CFG=1
M  V30 26 C -1.127504 -2.574115 -1.146551 0
M  V30 27 C -1.546477 -3.974860 -1.457215 0 CFG=1
M  V30 28 C -0.932674 -4.720131 -2.560824 0
M  V30 29 N -1.028956 -4.284682 -3.881092 0
M  V30 30 C -2.288696 -4.312506 -4.581425 0
M  V30 31 C -1.711577 -3.187081 -5.454772 0
M  V30 32 C -0.727597 -2.949000 -4.282155 0
M  V30 33 C -0.910899 -4.360680 -0.107763 0
M  V30 34 H 3.398673 -0.759817 3.844850 0
M  V30 35 H 5.002419 -1.256103 3.161243 0
M  V30 36 H 2.578282 -5.687176 2.690255 0
M  V30 37 H 3.914092 0.405231 1.187495 0
M  V30 38 H 4.541541 2.675409 1.626038 0
M  V30 39 H 3.025715 4.228853 2.627839 0
M  V30 40 H -0.812538 3.209371 4.760632 0
M  V30 41 H -0.786869 4.960803 4.224002 0
M  V30 42 H -2.179292 1.651381 3.243417 0
M  V30 43 H -3.912005 1.476285 1.551977 0
M  V30 44 H -4.544477 3.465816 0.145969 0
M  V30 45 H -3.318625 5.629953 0.544267 0
M  V30 46 H -1.622245 5.697256 2.227297 0
M  V30 47 H 0.077678 1.163932 2.814959 0
M  V30 48 H -0.358799 -0.257512 0.638008 0
M  V30 49 H -2.065745 -2.820203 0.868437 0
M  V30 50 H -0.091687 -2.335932 -1.503583 0
M  V30 51 H -1.862139 -1.763510 -1.280392 0
M  V30 52 H -2.653996 -4.075561 -1.340954 0
M  V30 53 H -1.371580 -5.772219 -2.528799 0
M  V30 54 H 0.144863 -4.922049 -2.277731 0
M  V30 55 H -2.505705 -5.176671 -5.209110 0
M  V30 56 H -3.169687 -3.937721 -4.075505 0
M  V30 57 H -2.377632 -2.349354 -5.646944 0
M  V30 58 H -1.205964 -3.524826 -6.373708 0
M  V30 59 H -1.112779 -2.202381 -3.574182 0
M  V30 60 H 0.314148 -2.818370 -4.618962 0
M  V30 61 H -1.503970 -5.105469 0.456043 0
M  V30 62 H 0.140304 -4.634836 -0.165732 0
M  V30 END ATOM
M  V30 BEGIN BOND
M  V30 1 1 1 2
M  V30 2 2 2 3
M  V30 3 1 3 4
M  V30 4 2 4 5
M  V30 5 1 5 6
M  V30 6 2 6 7
M  V30 7 1 7 8
M  V30 8 1 8 9
M  V30 9 2 9 10
M  V30 10 1 10 11
M  V30 11 2 11 12
M  V30 12 1 12 13
M  V30 13 1 13 14
M  V30 14 1 14 15
M  V30 15 1 15 16
M  V30 16 2 16 17
M  V30 17 1 17 18
M  V30 18 2 18 19
M  V30 19 1 19 20
M  V30 20 2 20 21
M  V30 21 2 13 22
M  V30 22 2 8 23
M  V30 23 1 23 24
M  V30 24 1 24 25
M  V30 25 1 25 26
M  V30 26 1 26 27
M  V30 27 1 27 28
M  V30 28 1 28 29
M  V30 29 1 29 30
M  V30 30 1 30 31
M  V30 31 1 31 32
M  V30 32 1 27 33
M  V30 33 1 7 2
M  V30 34 1 22 9
M  V30 35 1 33 25
M  V30 36 1 24 6
M  V30 37 1 32 29
M  V30 38 1 21 16
M  V30 39 1 1 34
M  V30 40 1 1 35
M  V30 41 1 4 36
M  V30 42 1 10 37
M  V30 43 1 11 38
M  V30 44 1 12 39
M  V30 45 1 15 40
M  V30 46 1 15 41
M  V30 47 1 17 42
M  V30 48 1 18 43
M  V30 49 1 19 44
M  V30 50 1 20 45
M  V30 51 1 21 46
M  V30 52 1 22 47
M  V30 53 1 23 48
M  V30 54 1 25 49 CFG=1
M  V30 55 1 26 50
M  V30 56 1 26 51
M  V30 57 1 27 52 CFG=1
M  V30 58 1 28 53
M  V30 59 1 28 54
M  V30 60 1 30 55
M  V30 61 1 30 56
M  V30 62 1 31 57
M  V30 63 1 31 58
M  V30 64 1 32 59
M  V30 65 1 32 60
M  V30 66 1 33 61
M  V30 67 1 33 62
M  V30 END BOND
M  V30 END CTAB
M  END
>  <Dataset>  (890) 
ChEMBL_Kinases

>  <Ligand_Instance>  (890) 
nan

>  <PDB_ID>  (890) 
nan

>  <Standardized_SMILES>  (890) 
Nc1ncnc2c1c(-c1cccc(OCc3ccccc3)c1)cn2[C@H]1C[C@@H](CN2CCC2)C1

>  <Name>  (890) 
nan

>  <Pocket>  (890) 
nan

>  <ATP_Site>  (890) 
nan

>  <Peripheral>  (890) 
nan

>  <Num_H_Atoms_ProtBoundConf>  (890) 
nan

>  <Num_Resolved_Atoms>  (890) 
nan

>  <Num_Not_Resolved_Atoms>  (890) 
nan

$$$$
CHEMBL1614710
     RDKit          3D

  0  0  0  0  0  0  0  0  0  0999 V3000
M  V30 BEGIN CTAB
M  V30 COUNTS 47 50 0 0 0
M  V30 BEGIN ATOM
M  V30 1 O 1.262044 0.041135 1.182441 0
M  V30 2 C 1.637637 0.247120 2.359312 0
M  V30 3 N 2.630576 1.243786 2.553076 0
M  V30 4 C 3.010853 1.833461 1.289967 0
M  V30 5 C 2.319477 2.956740 0.838892 0
M  V30 6 C 2.689806 3.508032 -0.370229 0
M  V30 7 C 3.715281 2.967255 -1.116925 0
M  V30 8 O 4.186103 3.423529 -2.346629 0
M  V30 9 C 3.615976 2.924357 -3.565698 0
M  V30 10 F 3.811226 1.538461 -3.593876 0
M  V30 11 F 4.281761 3.466577 -4.627255 0
M  V30 12 F 2.267524 3.156963 -3.605805 0
M  V30 13 C 4.365520 1.854717 -0.621924 0
M  V30 14 C 4.050943 1.247948 0.579295 0
M  V30 15 C 1.077586 -0.498980 3.436983 0
M  V30 16 S 1.621822 -0.190114 5.173105 0
M  V30 17 C 0.461438 -1.506486 5.894531 0
M  V30 18 C -0.162957 -1.989211 4.765281 0
M  V30 19 C 0.134614 -1.494326 3.523006 0
M  V30 20 N -0.528219 -2.018753 2.382050 0
M  V30 21 C -1.518133 -3.056353 2.426390 0
M  V30 22 C -2.031076 -3.410890 1.082428 0
M  V30 23 C -1.692043 -4.552008 0.351580 0
M  V30 24 C -2.254784 -4.753201 -0.904639 0
M  V30 25 N -3.123574 -3.840370 -1.402174 0
M  V30 26 C -3.464099 -2.729042 -0.709056 0
M  V30 27 C -4.357612 -1.859847 -1.303813 0
M  V30 28 C -4.740742 -0.703231 -0.635529 0
M  V30 29 C -4.207543 -0.461529 0.614868 0
M  V30 30 C -3.317392 -1.338675 1.194095 0
M  V30 31 C -2.921813 -2.500340 0.542513 0
M  V30 32 H 2.961465 1.436794 3.511312 0
M  V30 33 H 1.513214 3.393812 1.411394 0
M  V30 34 H 2.206940 4.385646 -0.802250 0
M  V30 35 H 5.186624 1.370700 -1.156729 0
M  V30 36 H 4.537351 0.389534 0.982155 0
M  V30 37 H 0.457716 -1.662668 6.918072 0
M  V30 38 H -0.870327 -2.764111 5.020480 0
M  V30 39 H -0.308401 -1.652053 1.437753 0
M  V30 40 H -0.988844 -3.968881 2.816393 0
M  V30 41 H -2.361810 -2.845237 3.112006 0
M  V30 42 H -0.991313 -5.222062 0.830949 0
M  V30 43 H -1.953640 -5.653648 -1.420505 0
M  V30 44 H -4.798628 -2.011710 -2.281176 0
M  V30 45 H -5.431041 0.050386 -0.998027 0
M  V30 46 H -4.469344 0.431997 1.193324 0
M  V30 47 H -2.920079 -1.129495 2.160184 0
M  V30 END ATOM
M  V30 BEGIN BOND
M  V30 1 2 1 2
M  V30 2 1 2 3
M  V30 3 1 3 4
M  V30 4 2 4 5
M  V30 5 1 5 6
M  V30 6 2 6 7
M  V30 7 1 7 8
M  V30 8 1 8 9
M  V30 9 1 9 10
M  V30 10 1 9 11
M  V30 11 1 9 12
M  V30 12 1 7 13
M  V30 13 2 13 14
M  V30 14 1 2 15
M  V30 15 1 15 16
M  V30 16 1 16 17
M  V30 17 2 17 18
M  V30 18 1 18 19
M  V30 19 1 19 20
M  V30 20 1 20 21
M  V30 21 1 21 22
M  V30 22 2 22 23
M  V30 23 1 23 24
M  V30 24 2 24 25
M  V30 25 1 25 26
M  V30 26 2 26 27
M  V30 27 1 27 28
M  V30 28 2 28 29
M  V30 29 1 29 30
M  V30 30 2 30 31
M  V30 31 1 14 4
M  V30 32 2 19 15
M  V30 33 1 31 22
M  V30 34 1 31 26
M  V30 35 1 3 32
M  V30 36 1 5 33
M  V30 37 1 6 34
M  V30 38 1 13 35
M  V30 39 1 14 36
M  V30 40 1 17 37
M  V30 41 1 18 38
M  V30 42 1 20 39
M  V30 43 1 21 40
M  V30 44 1 21 41
M  V30 45 1 23 42
M  V30 46 1 24 43
M  V30 47 1 27 44
M  V30 48 1 28 45
M  V30 49 1 29 46
M  V30 50 1 30 47
M  V30 END BOND
M  V30 END CTAB
M  END
>  <Dataset>  (891) 
ChEMBL_Kinases

>  <Ligand_Instance>  (891) 
nan

>  <PDB_ID>  (891) 
nan

>  <Standardized_SMILES>  (891) 
O=C(Nc1ccc(OC(F)(F)F)cc1)c1sccc1NCc1ccnc2ccccc12

>  <Name>  (891) 
OSI-930

>  <Pocket>  (891) 
nan

>  <ATP_Site>  (891) 
nan

>  <Peripheral>  (891) 
nan

>  <Num_H_Atoms_ProtBoundConf>  (891) 
nan

>  <Num_Resolved_Atoms>  (891) 
nan

>  <Num_Not_Resolved_Atoms>  (891) 
nan

$$$$
CHEMBL1614709
     RDKit          3D

  0  0  0  0  0  0  0  0  0  0999 V3000
M  V30 BEGIN CTAB
M  V30 COUNTS 63 67 0 0 0
M  V30 BEGIN ATOM
M  V30 1 C -1.350253 -0.903941 0.597768 0
M  V30 2 C -1.237445 -1.082361 -0.862932 0
M  V30 3 C -0.625130 -0.171767 -1.692885 0
M  V30 4 C -0.507159 -0.316163 -3.055962 0
M  V30 5 N 0.119601 0.606344 -3.928790 0
M  V30 6 C 0.765167 1.827998 -3.624085 0
M  V30 7 N 1.278581 2.558951 -4.599425 0
M  V30 8 C 1.913060 3.724593 -4.476853 0
M  V30 9 C 2.045875 4.215907 -3.198816 0
M  V30 10 F 2.673904 5.389479 -2.977602 0
M  V30 11 C 1.535882 3.511155 -2.120615 0
M  V30 12 N 1.673268 4.027340 -0.805168 0
M  V30 13 C 1.239656 3.471961 0.431556 0 CFG=1
M  V30 14 C 1.847604 2.148094 0.799672 0 CFG=1
M  V30 15 C 2.936876 1.715217 -0.085122 0
M  V30 16 N 4.156740 2.387958 -0.338455 0
M  V30 17 O 3.063155 0.677103 -0.817363 0
M  V30 18 C 2.244802 2.362798 2.226120 0 CFG=2
M  V30 19 C 0.997299 2.608134 3.014599 0
M  V30 20 C 0.565846 3.834086 2.703836 0
M  V30 21 C 1.462436 4.340858 1.624943 0 CFG=1
M  V30 22 C 2.785943 3.777864 2.172386 0
M  V30 23 N 0.927716 2.360859 -2.405003 0
M  V30 24 C -1.062521 -1.472365 -3.547645 0
M  V30 25 C -1.681659 -2.404714 -2.753072 0
M  V30 26 C -1.783225 -2.230678 -1.391149 0
M  V30 27 N -2.433969 -3.231226 -0.631869 0
M  V30 28 C -3.630624 -2.950119 0.171309 0
M  V30 29 C -4.751283 -3.720195 -0.496051 0
M  V30 30 N -4.359774 -5.032269 -0.910087 0
M  V30 31 C -4.489816 -5.252207 -2.325042 0
M  V30 32 C -3.130135 -5.506337 -0.350786 0
M  V30 33 C -1.947289 -4.597412 -0.608613 0
M  V30 34 H -2.177181 -0.200434 0.819777 0
M  V30 35 H -1.525977 -1.862664 1.128840 0
M  V30 36 H -0.384624 -0.517466 1.007269 0
M  V30 37 H -0.221319 0.702697 -1.218669 0
M  V30 38 H 0.096443 0.333093 -4.957808 0
M  V30 39 H 2.302739 4.256323 -5.331466 0
M  V30 40 H 2.163678 4.955063 -0.699458 0
M  V30 41 H 0.114934 3.396663 0.333212 0
M  V30 42 H 1.044041 1.376170 0.690984 0
M  V30 43 H 4.978981 2.084306 0.235000 0
M  V30 44 H 4.611862 3.129849 -0.915481 0
M  V30 45 H 2.917113 1.643759 2.675892 0
M  V30 46 H 0.373453 2.073303 3.745042 0
M  V30 47 H -0.239592 4.492406 3.044136 0
M  V30 48 H 1.478189 5.401438 1.468137 0
M  V30 49 H 3.616727 3.925097 1.477197 0
M  V30 50 H 2.948310 4.096085 3.205224 0
M  V30 51 H -1.029417 -1.694309 -4.614101 0
M  V30 52 H -2.104652 -3.303615 -3.195693 0
M  V30 53 H -3.889613 -1.865432 0.097515 0
M  V30 54 H -3.464892 -3.272939 1.225809 0
M  V30 55 H -5.590300 -3.736748 0.235189 0
M  V30 56 H -5.080419 -3.128611 -1.382482 0
M  V30 57 H -5.519823 -5.688498 -2.473090 0
M  V30 58 H -4.468608 -4.284681 -2.870294 0
M  V30 59 H -3.742396 -5.940506 -2.758059 0
M  V30 60 H -3.287394 -5.697693 0.730038 0
M  V30 61 H -2.951049 -6.516089 -0.796716 0
M  V30 62 H -1.431641 -4.889512 -1.548159 0
M  V30 63 H -1.278492 -4.726458 0.280446 0
M  V30 END ATOM
M  V30 BEGIN BOND
M  V30 1 1 1 2
M  V30 2 2 2 3
M  V30 3 1 3 4
M  V30 4 1 4 5
M  V30 5 1 5 6
M  V30 6 2 6 7
M  V30 7 1 7 8
M  V30 8 2 8 9
M  V30 9 1 9 10
M  V30 10 1 9 11
M  V30 11 1 11 12
M  V30 12 1 12 13
M  V30 13 1 13 14
M  V30 14 1 14 15
M  V30 15 1 15 16
M  V30 16 2 15 17
M  V30 17 1 14 18
M  V30 18 1 18 19
M  V30 19 2 19 20
M  V30 20 1 20 21
M  V30 21 1 21 22
M  V30 22 2 11 23
M  V30 23 2 4 24
M  V30 24 1 24 25
M  V30 25 2 25 26
M  V30 26 1 26 27
M  V30 27 1 27 28
M  V30 28 1 28 29
M  V30 29 1 29 30
M  V30 30 1 30 31
M  V30 31 1 30 32
M  V30 32 1 32 33
M  V30 33 1 26 2
M  V30 34 1 33 27
M  V30 35 1 23 6
M  V30 36 1 21 13
M  V30 37 1 22 18
M  V30 38 1 1 34
M  V30 39 1 1 35
M  V30 40 1 1 36
M  V30 41 1 3 37
M  V30 42 1 5 38
M  V30 43 1 8 39
M  V30 44 1 12 40
M  V30 45 1 13 41 CFG=3
M  V30 46 1 14 42 CFG=1
M  V30 47 1 16 43
M  V30 48 1 16 44
M  V30 49 1 18 45 CFG=1
M  V30 50 1 19 46
M  V30 51 1 20 47
M  V30 52 1 21 48 CFG=3
M  V30 53 1 22 49
M  V30 54 1 22 50
M  V30 55 1 24 51
M  V30 56 1 25 52
M  V30 57 1 28 53
M  V30 58 1 28 54
M  V30 59 1 29 55
M  V30 60 1 29 56
M  V30 61 1 31 57
M  V30 62 1 31 58
M  V30 63 1 31 59
M  V30 64 1 32 60
M  V30 65 1 32 61
M  V30 66 1 33 62
M  V30 67 1 33 63
M  V30 END BOND
M  V30 END CTAB
M  END
>  <Dataset>  (892) 
ChEMBL_Kinases

>  <Ligand_Instance>  (892) 
nan

>  <PDB_ID>  (892) 
nan

>  <Standardized_SMILES>  (892) 
Cc1cc(Nc2ncc(F)c(N[C@H]3[C@@H](C(N)=O)[C@@H]4C=C[C@H]3C4)n2)ccc1N1CCN(C)CC1

>  <Name>  (892) 
CENISERTIB

>  <Pocket>  (892) 
nan

>  <ATP_Site>  (892) 
nan

>  <Peripheral>  (892) 
nan

>  <Num_H_Atoms_ProtBoundConf>  (892) 
nan

>  <Num_Resolved_Atoms>  (892) 
nan

>  <Num_Not_Resolved_Atoms>  (892) 
nan

$$$$
CHEMBL1614707
     RDKit          3D

  0  0  0  0  0  0  0  0  0  0999 V3000
M  V30 BEGIN CTAB
M  V30 COUNTS 57 60 0 0 0
M  V30 BEGIN ATOM
M  V30 1 F 8.075201 -6.080213 2.394836 0
M  V30 2 C 6.736011 -6.398145 2.179777 0
M  V30 3 F 6.380667 -7.232824 3.219899 0
M  V30 4 F 6.701903 -7.082876 0.977540 0
M  V30 5 C 5.941378 -5.173889 2.117684 0
M  V30 6 C 5.055039 -4.599318 2.995709 0
M  V30 7 C 4.370197 -3.392913 2.760288 0
M  V30 8 C 4.563654 -2.670279 1.551840 0
M  V30 9 C 3.609750 -1.542531 1.885022 0
M  V30 10 C 3.710929 -0.718220 0.741323 0
M  V30 11 C 2.809920 0.486509 0.898114 0
M  V30 12 N 2.062280 0.730278 2.005442 0
M  V30 13 C 1.354646 1.868445 1.879401 0
M  V30 14 C 0.470293 2.394975 2.945749 0
M  V30 15 O -0.825786 1.904264 2.951446 0
M  V30 16 C -1.830032 1.941174 2.062491 0
M  V30 17 C -2.976414 1.285973 2.540263 0
M  V30 18 C -4.144598 1.204377 1.771021 0
M  V30 19 C -4.215749 1.774697 0.490986 0
M  V30 20 C -5.517644 1.639801 -0.144296 0
M  V30 21 C -5.899152 0.404254 -0.829101 0
M  V30 22 C -5.177244 -0.138982 -1.976918 0
M  V30 23 C -3.773226 -0.569789 -1.862880 0
M  V30 24 N -3.290546 -1.097753 -3.161128 0
M  V30 25 C -3.385801 -2.403262 -3.539849 0
M  V30 26 C -2.854847 -2.592206 -4.791461 0
M  V30 27 N -2.441474 -1.358307 -5.143545 0
M  V30 28 N -2.702596 -0.501973 -4.183939 0
M  V30 29 C -3.065728 2.414607 0.050028 0
M  V30 30 C -1.929959 2.489132 0.809015 0
M  V30 31 C 1.701903 2.323153 0.629477 0
M  V30 32 O 2.545185 1.490386 0.102841 0
M  V30 33 C 5.492024 -3.327623 0.697662 0
M  V30 34 C 6.160695 -4.510524 0.933602 0
M  V30 35 H 5.002515 -5.241438 3.859536 0
M  V30 36 H 3.769806 -3.276793 3.684192 0
M  V30 37 H 4.052151 -1.487538 1.052413 0
M  V30 38 H 4.203047 -0.550259 -0.310805 0
M  V30 39 H 0.496310 3.510755 2.858846 0
M  V30 40 H 0.913874 2.088661 3.946017 0
M  V30 41 H -3.032101 0.805381 3.524942 0
M  V30 42 H -5.008164 0.678063 2.202556 0
M  V30 43 H -6.311642 1.913414 0.636429 0
M  V30 44 H -5.656704 2.519526 -0.867828 0
M  V30 45 H -6.976137 0.578215 -1.192117 0
M  V30 46 H -6.078794 -0.455272 -0.098840 0
M  V30 47 H -5.265260 0.549417 -2.883999 0
M  V30 48 H -5.748445 -1.055060 -2.362645 0
M  V30 49 H -3.101387 0.247657 -1.588544 0
M  V30 50 H -3.593455 -1.393482 -1.150234 0
M  V30 51 H -3.834531 -3.153575 -2.891584 0
M  V30 52 H -2.818251 -3.545745 -5.303347 0
M  V30 53 H -3.162268 2.838416 -0.937176 0
M  V30 54 H -1.053651 2.992224 0.453829 0
M  V30 55 H 1.315772 3.224190 0.198293 0
M  V30 56 H 5.490673 -2.628535 -0.140066 0
M  V30 57 H 6.747779 -4.632373 0.042880 0
M  V30 END ATOM
M  V30 BEGIN BOND
M  V30 1 1 1 2
M  V30 2 1 2 3
M  V30 3 1 2 4
M  V30 4 1 2 5
M  V30 5 2 5 6
M  V30 6 1 6 7
M  V30 7 2 7 8
M  V30 8 1 8 9
M  V30 9 2 9 10
M  V30 10 1 10 11
M  V30 11 2 11 12
M  V30 12 1 12 13
M  V30 13 1 13 14
M  V30 14 1 14 15
M  V30 15 1 15 16
M  V30 16 2 16 17
M  V30 17 1 17 18
M  V30 18 2 18 19
M  V30 19 1 19 20
M  V30 20 1 20 21
M  V30 21 1 21 22
M  V30 22 1 22 23
M  V30 23 1 23 24
M  V30 24 1 24 25
M  V30 25 2 25 26
M  V30 26 1 26 27
M  V30 27 2 27 28
M  V30 28 1 19 29
M  V30 29 2 29 30
M  V30 30 2 13 31
M  V30 31 1 31 32
M  V30 32 1 8 33
M  V30 33 2 33 34
M  V30 34 1 34 5
M  V30 35 1 32 11
M  V30 36 1 30 16
M  V30 37 1 28 24
M  V30 38 1 6 35
M  V30 39 1 7 36
M  V30 40 1 9 37
M  V30 41 1 10 38
M  V30 42 1 14 39
M  V30 43 1 14 40
M  V30 44 1 17 41
M  V30 45 1 18 42
M  V30 46 1 20 43
M  V30 47 1 20 44
M  V30 48 1 21 45
M  V30 49 1 21 46
M  V30 50 1 22 47
M  V30 51 1 22 48
M  V30 52 1 23 49
M  V30 53 1 23 50
M  V30 54 1 25 51
M  V30 55 1 26 52
M  V30 56 1 29 53
M  V30 57 1 30 54
M  V30 58 1 31 55
M  V30 59 1 33 56
M  V30 60 1 34 57
M  V30 END BOND
M  V30 END CTAB
M  END
>  <Dataset>  (893) 
ChEMBL_Kinases

>  <Ligand_Instance>  (893) 
nan

>  <PDB_ID>  (893) 
nan

>  <Standardized_SMILES>  (893) 
FC(F)(F)c1ccc(/C=C/c2nc(COc3ccc(CCCCn4ccnn4)cc3)co2)cc1

>  <Name>  (893) 
MUBRITINIB

>  <Pocket>  (893) 
nan

>  <ATP_Site>  (893) 
nan

>  <Peripheral>  (893) 
nan

>  <Num_H_Atoms_ProtBoundConf>  (893) 
nan

>  <Num_Resolved_Atoms>  (893) 
nan

>  <Num_Not_Resolved_Atoms>  (893) 
nan

$$$$
CHEMBL1613602
     RDKit          3D

  0  0  0  0  0  0  0  0  0  0999 V3000
M  V30 BEGIN CTAB
M  V30 COUNTS 32 34 0 0 0
M  V30 BEGIN ATOM
M  V30 1 C 0.349208 -2.873543 3.767578 0
M  V30 2 C -0.026891 -3.390046 2.416801 0
M  V30 3 C -0.819770 -4.517683 2.257639 0
M  V30 4 C -1.094757 -4.889650 0.959885 0
M  V30 5 C -0.595256 -4.159377 -0.101005 0
M  V30 6 N 0.175990 -3.062791 0.083119 0
M  V30 7 C 0.740970 -2.243490 -0.819060 0
M  V30 8 C 1.430869 -1.272463 -0.084334 0
M  V30 9 C 2.207522 -0.150764 -0.681207 0
M  V30 10 N 1.276732 0.958593 -0.806701 0
M  V30 11 C 0.894346 1.729156 0.300449 0
M  V30 12 O 1.401616 1.411618 1.433423 0
M  V30 13 C -0.015837 2.854847 0.319297 0
M  V30 14 C -0.640830 3.279522 -0.836791 0
M  V30 15 C -1.449139 4.366972 -0.524369 0
M  V30 16 C -1.252843 4.533884 0.848537 0
M  V30 17 Br -2.005329 5.817478 2.054896 0
M  V30 18 O -0.402454 3.620039 1.291432 0
M  V30 19 N 1.236012 -1.571566 1.225514 0
M  V30 20 C 0.457570 -2.681978 1.338524 0
M  V30 21 H 1.436649 -2.721566 3.886417 0
M  V30 22 H -0.002507 -3.545473 4.572445 0
M  V30 23 H -0.244164 -1.928287 3.915348 0
M  V30 24 H -1.173918 -5.035098 3.134211 0
M  V30 25 H -1.711051 -5.770716 0.822736 0
M  V30 26 H -0.876751 -4.544544 -1.084206 0
M  V30 27 H 0.669732 -2.329758 -1.913478 0
M  V30 28 H 2.560799 -0.496439 -1.673385 0
M  V30 29 H 3.053841 0.078175 -0.004576 0
M  V30 30 H 0.849931 1.231300 -1.736449 0
M  V30 31 H -0.616183 2.941756 -1.873871 0
M  V30 32 H -2.116220 5.017596 -1.081443 0
M  V30 END ATOM
M  V30 BEGIN BOND
M  V30 1 1 1 2
M  V30 2 2 2 3
M  V30 3 1 3 4
M  V30 4 2 4 5
M  V30 5 1 5 6
M  V30 6 1 6 7
M  V30 7 2 7 8
M  V30 8 1 8 9
M  V30 9 1 9 10
M  V30 10 1 10 11
M  V30 11 2 11 12
M  V30 12 1 11 13
M  V30 13 2 13 14
M  V30 14 1 14 15
M  V30 15 2 15 16
M  V30 16 1 16 17
M  V30 17 1 16 18
M  V30 18 1 8 19
M  V30 19 2 19 20
M  V30 20 1 20 2
M  V30 21 1 20 6
M  V30 22 1 18 13
M  V30 23 1 1 21
M  V30 24 1 1 22
M  V30 25 1 1 23
M  V30 26 1 3 24
M  V30 27 1 4 25
M  V30 28 1 5 26
M  V30 29 1 7 27
M  V30 30 1 9 28
M  V30 31 1 9 29
M  V30 32 1 10 30
M  V30 33 1 14 31
M  V30 34 1 15 32
M  V30 END BOND
M  V30 END CTAB
M  END
>  <Dataset>  (894) 
ChEMBL_Kinases

>  <Ligand_Instance>  (894) 
nan

>  <PDB_ID>  (894) 
nan

>  <Standardized_SMILES>  (894) 
Cc1cccn2cc(CNC(=O)c3ccc(Br)o3)nc12

>  <Name>  (894) 
nan

>  <Pocket>  (894) 
nan

>  <ATP_Site>  (894) 
nan

>  <Peripheral>  (894) 
nan

>  <Num_H_Atoms_ProtBoundConf>  (894) 
nan

>  <Num_Resolved_Atoms>  (894) 
nan

>  <Num_Not_Resolved_Atoms>  (894) 
nan

$$$$
CHEMBL1613269
     RDKit          3D

  0  0  0  0  0  0  0  0  0  0999 V3000
M  V30 BEGIN CTAB
M  V30 COUNTS 24 26 0 0 0
M  V30 BEGIN ATOM
M  V30 1 O 1.853477 -0.567707 3.379710 0
M  V30 2 C 1.180993 -0.436050 2.301202 0
M  V30 3 N 0.680298 -1.647783 1.810358 0
M  V30 4 C 0.109457 -1.933696 0.566544 0
M  V30 5 C 0.119916 -3.292360 0.274314 0
M  V30 6 C -0.393470 -3.776194 -0.896678 0
M  V30 7 C -0.952197 -2.922981 -1.852400 0
M  V30 8 N -0.954041 -1.616277 -1.554398 0
M  V30 9 C -0.444844 -1.120391 -0.389269 0
M  V30 10 S -0.644573 0.639834 -0.394849 0
M  V30 11 C 0.405072 1.443064 0.795885 0
M  V30 12 C 0.412927 2.789968 0.465820 0
M  V30 13 C 1.174530 3.648649 1.260017 0
M  V30 14 C 1.891510 3.157069 2.336305 0
M  V30 15 C 1.846475 1.787651 2.622700 0
M  V30 16 C 1.095520 0.918971 1.845168 0
M  V30 17 H 0.720708 -2.483404 2.432892 0
M  V30 18 H 0.544477 -3.983769 0.990594 0
M  V30 19 H -0.393625 -4.836192 -1.141828 0
M  V30 20 H -1.359765 -3.308664 -2.782399 0
M  V30 21 H -0.144213 3.212207 -0.380745 0
M  V30 22 H 1.207932 4.701039 1.038324 0
M  V30 23 H 2.476506 3.796943 2.951282 0
M  V30 24 H 2.419070 1.421816 3.475462 0
M  V30 END ATOM
M  V30 BEGIN BOND
M  V30 1 2 1 2
M  V30 2 1 2 3
M  V30 3 1 3 4
M  V30 4 2 4 5
M  V30 5 1 5 6
M  V30 6 2 6 7
M  V30 7 1 7 8
M  V30 8 2 8 9
M  V30 9 1 9 10
M  V30 10 1 10 11
M  V30 11 2 11 12
M  V30 12 1 12 13
M  V30 13 2 13 14
M  V30 14 1 14 15
M  V30 15 2 15 16
M  V30 16 1 16 2
M  V30 17 1 9 4
M  V30 18 1 16 11
M  V30 19 1 3 17
M  V30 20 1 5 18
M  V30 21 1 6 19
M  V30 22 1 7 20
M  V30 23 1 12 21
M  V30 24 1 13 22
M  V30 25 1 14 23
M  V30 26 1 15 24
M  V30 END BOND
M  V30 END CTAB
M  END
>  <Dataset>  (895) 
ChEMBL_Kinases

>  <Ligand_Instance>  (895) 
nan

>  <PDB_ID>  (895) 
nan

>  <Standardized_SMILES>  (895) 
O=C1Nc2cccnc2Sc2ccccc21

>  <Name>  (895) 
nan

>  <Pocket>  (895) 
nan

>  <ATP_Site>  (895) 
nan

>  <Peripheral>  (895) 
nan

>  <Num_H_Atoms_ProtBoundConf>  (895) 
nan

>  <Num_Resolved_Atoms>  (895) 
nan

>  <Num_Not_Resolved_Atoms>  (895) 
nan

$$$$
CHEMBL1612880
     RDKit          3D

  0  0  0  0  0  0  0  0  0  0999 V3000
M  V30 BEGIN CTAB
M  V30 COUNTS 65 69 0 0 0
M  V30 BEGIN ATOM
M  V30 1 C 3.006308 -2.883206 3.165327 0
M  V30 2 C 3.056694 -2.294343 1.764571 0
M  V30 3 O 1.851823 -1.578916 1.560216 0
M  V30 4 C 1.598021 -0.918445 0.341607 0
M  V30 5 C 2.561791 -0.994786 -0.644732 0
M  V30 6 C 2.274646 -0.341078 -1.808405 0
M  V30 7 N 3.255124 -0.410262 -2.865810 0
M  V30 8 C 3.981061 0.618533 -3.612823 0
M  V30 9 C 3.676002 0.427525 -5.084468 0
M  V30 10 O 3.635656 -0.906707 -5.452906 0
M  V30 11 C 4.315025 -1.723176 -4.553813 0
M  V30 12 C 3.561864 -1.778590 -3.234489 0
M  V30 13 C 1.129042 0.374553 -2.078223 0
M  V30 14 O 0.935263 1.001228 -3.291098 0
M  V30 15 C -0.201826 1.734912 -3.621331 0
M  V30 16 C -1.448124 0.872265 -3.557606 0
M  V30 17 C 0.220666 0.400118 -1.040882 0
M  V30 18 C 0.414270 -0.229635 0.178897 0
M  V30 19 N -0.582404 -0.144920 1.190103 0
M  V30 20 C -0.949650 0.657787 2.310362 0
M  V30 21 O -0.133902 1.588564 2.460690 0
M  V30 22 C -2.156802 0.208968 2.991573 0
M  V30 23 C -2.419301 -1.135319 3.152091 0
M  V30 24 C -3.567848 -1.532070 3.799959 0
M  V30 25 C -3.856271 -2.953421 3.969035 0
M  V30 26 C -4.978258 -3.484695 4.615123 0
M  V30 27 C -4.889572 -4.859348 4.567998 0
M  V30 28 C -3.698495 -5.110520 3.884360 0
M  V30 29 O -3.152638 -3.983610 3.567336 0
M  V30 30 N -4.437249 -0.627492 4.278749 0
M  V30 31 C -4.241724 0.698546 4.156770 0
M  V30 32 C -5.171640 1.574584 4.669168 0
M  V30 33 C -4.954022 2.936949 4.533903 0
M  V30 34 C -3.809210 3.370560 3.887801 0
M  V30 35 C -2.908318 2.448121 3.391992 0
M  V30 36 C -3.088515 1.085897 3.506174 0
M  V30 37 H 2.312349 -3.745587 3.216609 0
M  V30 38 H 4.017632 -3.305378 3.434962 0
M  V30 39 H 2.682180 -2.112641 3.871887 0
M  V30 40 H 3.936506 -1.620382 1.652750 0
M  V30 41 H 3.114908 -3.075904 0.990875 0
M  V30 42 H 3.492569 -1.530595 -0.527264 0
M  V30 43 H 5.071166 0.524404 -3.453169 0
M  V30 44 H 3.673491 1.642683 -3.333471 0
M  V30 45 H 4.508071 0.938229 -5.639196 0
M  V30 46 H 2.758923 0.971583 -5.353473 0
M  V30 47 H 5.301727 -1.285784 -4.356110 0
M  V30 48 H 4.381475 -2.745616 -4.953521 0
M  V30 49 H 4.205911 -2.250226 -2.457576 0
M  V30 50 H 2.595046 -2.311444 -3.345615 0
M  V30 51 H -0.055216 2.168472 -4.648269 0
M  V30 52 H -0.279267 2.593972 -2.906441 0
M  V30 53 H -1.830996 0.772350 -4.608221 0
M  V30 54 H -1.252338 -0.147277 -3.220035 0
M  V30 55 H -2.256160 1.308744 -2.962765 0
M  V30 56 H -0.715770 0.943230 -1.161107 0
M  V30 57 H -1.128273 -0.996905 0.873781 0
M  V30 58 H -1.726230 -1.873767 2.771265 0
M  V30 59 H -5.775084 -2.900401 5.070375 0
M  V30 60 H -5.609888 -5.583011 4.983454 0
M  V30 61 H -3.420085 -6.150730 3.728197 0
M  V30 62 H -6.039736 1.167830 5.158952 0
M  V30 63 H -5.701239 3.602121 4.946588 0
M  V30 64 H -3.733527 4.441993 3.834749 0
M  V30 65 H -2.036697 2.843663 2.899362 0
M  V30 END ATOM
M  V30 BEGIN BOND
M  V30 1 1 1 2
M  V30 2 1 2 3
M  V30 3 1 3 4
M  V30 4 2 4 5
M  V30 5 1 5 6
M  V30 6 1 6 7
M  V30 7 1 7 8
M  V30 8 1 8 9
M  V30 9 1 9 10
M  V30 10 1 10 11
M  V30 11 1 11 12
M  V30 12 2 6 13
M  V30 13 1 13 14
M  V30 14 1 14 15
M  V30 15 1 15 16
M  V30 16 1 13 17
M  V30 17 2 17 18
M  V30 18 1 18 19
M  V30 19 1 19 20
M  V30 20 2 20 21
M  V30 21 1 20 22
M  V30 22 2 22 23
M  V30 23 1 23 24
M  V30 24 1 24 25
M  V30 25 2 25 26
M  V30 26 1 26 27
M  V30 27 2 27 28
M  V30 28 1 28 29
M  V30 29 2 24 30
M  V30 30 1 30 31
M  V30 31 2 31 32
M  V30 32 1 32 33
M  V30 33 2 33 34
M  V30 34 1 34 35
M  V30 35 2 35 36
M  V30 36 1 18 4
M  V30 37 1 36 22
M  V30 38 1 12 7
M  V30 39 1 29 25
M  V30 40 1 36 31
M  V30 41 1 1 37
M  V30 42 1 1 38
M  V30 43 1 1 39
M  V30 44 1 2 40
M  V30 45 1 2 41
M  V30 46 1 5 42
M  V30 47 1 8 43
M  V30 48 1 8 44
M  V30 49 1 9 45
M  V30 50 1 9 46
M  V30 51 1 11 47
M  V30 52 1 11 48
M  V30 53 1 12 49
M  V30 54 1 12 50
M  V30 55 1 15 51
M  V30 56 1 15 52
M  V30 57 1 16 53
M  V30 58 1 16 54
M  V30 59 1 16 55
M  V30 60 1 17 56
M  V30 61 1 19 57
M  V30 62 1 23 58
M  V30 63 1 26 59
M  V30 64 1 27 60
M  V30 65 1 28 61
M  V30 66 1 32 62
M  V30 67 1 33 63
M  V30 68 1 34 64
M  V30 69 1 35 65
M  V30 END BOND
M  V30 END CTAB
M  END
>  <Dataset>  (896) 
ChEMBL_Kinases

>  <Ligand_Instance>  (896) 
nan

>  <PDB_ID>  (896) 
nan

>  <Standardized_SMILES>  (896) 
CCOc1cc(N2CCOCC2)c(OCC)cc1NC(=O)c1cc(-c2ccco2)nc2ccccc12

>  <Name>  (896) 
nan

>  <Pocket>  (896) 
nan

>  <ATP_Site>  (896) 
nan

>  <Peripheral>  (896) 
nan

>  <Num_H_Atoms_ProtBoundConf>  (896) 
nan

>  <Num_Resolved_Atoms>  (896) 
nan

>  <Num_Not_Resolved_Atoms>  (896) 
nan

$$$$
CHEMBL1612798
     RDKit          3D

  0  0  0  0  0  0  0  0  0  0999 V3000
M  V30 BEGIN CTAB
M  V30 COUNTS 44 46 0 0 0
M  V30 BEGIN ATOM
M  V30 1 O -1.423285 -2.612512 2.537375 0
M  V30 2 C -0.510519 -1.745917 2.278946 0
M  V30 3 C 0.593981 -1.968938 3.236760 0
M  V30 4 N 1.629094 -1.048179 3.037298 0
M  V30 5 C 1.439051 0.310031 3.358555 0
M  V30 6 C 2.227017 1.162895 2.396050 0
M  V30 7 N 2.662183 0.487155 1.214317 0
M  V30 8 C 2.619529 1.188357 -0.042252 0
M  V30 9 N 3.007233 0.606806 -1.216282 0
M  V30 10 C 2.943966 1.314277 -2.374105 0
M  V30 11 C 2.500692 2.609911 -2.420094 0
M  V30 12 C 2.112529 3.172394 -1.202898 0
M  V30 13 N 2.185029 2.459092 -0.089576 0
M  V30 14 C 3.144478 -0.873117 1.227303 0
M  V30 15 C 2.890833 -1.478365 2.592764 0
M  V30 16 N -0.821897 -0.874430 1.199330 0
M  V30 17 C -2.079884 -1.073495 0.567059 0
M  V30 18 C -3.198809 -0.409971 1.032032 0
M  V30 19 C -4.452394 -0.543798 0.482355 0
M  V30 20 C -4.611546 -1.383821 -0.590827 0
M  V30 21 C -3.479466 -2.050499 -1.054967 0
M  V30 22 C -2.205013 -1.924303 -0.508836 0
M  V30 23 C -1.053020 -2.671092 -1.073967 0
M  V30 24 F -1.529854 -3.438498 -2.147276 0
M  V30 25 F -0.469531 -3.540972 -0.200632 0
M  V30 26 F -0.124697 -1.816323 -1.638014 0
M  V30 27 H 0.991047 -2.991556 3.034962 0
M  V30 28 H 0.180636 -1.970182 4.285346 0
M  V30 29 H 0.370037 0.576792 3.249147 0
M  V30 30 H 1.738274 0.515088 4.421769 0
M  V30 31 H 1.704996 2.099271 2.133508 0
M  V30 32 H 3.138738 1.503401 2.965411 0
M  V30 33 H 3.255568 0.835354 -3.292490 0
M  V30 34 H 2.472808 3.124107 -3.367784 0
M  V30 35 H 1.763557 4.192011 -1.237235 0
M  V30 36 H 4.199173 -0.965690 0.916116 0
M  V30 37 H 2.475037 -1.444678 0.521354 0
M  V30 38 H 3.740020 -1.157541 3.260823 0
M  V30 39 H 2.910994 -2.586751 2.570437 0
M  V30 40 H -0.019955 -0.221650 1.068100 0
M  V30 41 H -3.059088 0.260906 1.893118 0
M  V30 42 H -5.324741 -0.012994 0.857811 0
M  V30 43 H -5.555528 -1.554462 -1.090986 0
M  V30 44 H -3.579387 -2.728933 -1.912235 0
M  V30 END ATOM
M  V30 BEGIN BOND
M  V30 1 2 1 2
M  V30 2 1 2 3
M  V30 3 1 3 4
M  V30 4 1 4 5
M  V30 5 1 5 6
M  V30 6 1 6 7
M  V30 7 1 7 8
M  V30 8 2 8 9
M  V30 9 1 9 10
M  V30 10 2 10 11
M  V30 11 1 11 12
M  V30 12 2 12 13
M  V30 13 1 7 14
M  V30 14 1 14 15
M  V30 15 1 2 16
M  V30 16 1 16 17
M  V30 17 2 17 18
M  V30 18 1 18 19
M  V30 19 2 19 20
M  V30 20 1 20 21
M  V30 21 2 21 22
M  V30 22 1 22 23
M  V30 23 1 23 24
M  V30 24 1 23 25
M  V30 25 1 23 26
M  V30 26 1 15 4
M  V30 27 1 22 17
M  V30 28 1 13 8
M  V30 29 1 3 27
M  V30 30 1 3 28
M  V30 31 1 5 29
M  V30 32 1 5 30
M  V30 33 1 6 31
M  V30 34 1 6 32
M  V30 35 1 10 33
M  V30 36 1 11 34
M  V30 37 1 12 35
M  V30 38 1 14 36
M  V30 39 1 14 37
M  V30 40 1 15 38
M  V30 41 1 15 39
M  V30 42 1 16 40
M  V30 43 1 18 41
M  V30 44 1 19 42
M  V30 45 1 20 43
M  V30 46 1 21 44
M  V30 END BOND
M  V30 END CTAB
M  END
>  <Dataset>  (897) 
ChEMBL_Kinases

>  <Ligand_Instance>  (897) 
nan

>  <PDB_ID>  (897) 
nan

>  <Standardized_SMILES>  (897) 
O=C(CN1CCN(c2ncccn2)CC1)Nc1ccccc1C(F)(F)F

>  <Name>  (897) 
nan

>  <Pocket>  (897) 
nan

>  <ATP_Site>  (897) 
nan

>  <Peripheral>  (897) 
nan

>  <Num_H_Atoms_ProtBoundConf>  (897) 
nan

>  <Num_Resolved_Atoms>  (897) 
nan

>  <Num_Not_Resolved_Atoms>  (897) 
nan

$$$$
CHEMBL1612700
     RDKit          3D

  0  0  0  0  0  0  0  0  0  0999 V3000
M  V30 BEGIN CTAB
M  V30 COUNTS 42 43 0 0 0
M  V30 BEGIN ATOM
M  V30 1 C 4.762218 -4.510336 2.945549 0
M  V30 2 O 4.261797 -3.197999 2.801371 0
M  V30 3 C 3.624218 -2.851880 1.621318 0
M  V30 4 C 3.464330 -3.758389 0.578969 0
M  V30 5 C 2.830940 -3.392790 -0.576988 0
M  V30 6 C 2.319218 -2.124214 -0.779579 0
M  V30 7 O 1.676956 -1.757980 -1.955098 0
M  V30 8 C 1.533446 -2.714075 -2.997714 0
M  V30 9 C 2.477030 -1.216751 0.258800 0
M  V30 10 N 1.975016 0.113314 0.124356 0
M  V30 11 C 0.640664 0.393712 0.542566 0
M  V30 12 O 0.007340 -0.596956 1.008818 0
M  V30 13 N 0.031413 1.677715 0.458083 0
M  V30 14 C -1.314156 1.783001 0.922101 0
M  V30 15 C -2.374349 1.575048 0.060213 0
M  V30 16 C -3.603776 1.703890 0.621949 0
M  V30 17 C -4.813562 1.512084 -0.169661 0
M  V30 18 O -6.023549 1.598064 0.211044 0
M  V30 19 O -5.007679 1.197426 -1.494728 0
M  V30 20 C -3.850642 2.015812 1.941764 0
M  V30 21 C -2.737213 2.214991 2.765844 0
M  V30 22 C -1.458573 2.098967 2.257470 0
M  V30 23 C -0.328698 2.322866 3.185585 0
M  V30 24 C 3.120071 -1.569748 1.446024 0
M  V30 25 H 3.904765 -5.211262 3.003288 0
M  V30 26 H 5.436669 -4.708550 2.096092 0
M  V30 27 H 5.320658 -4.609418 3.909482 0
M  V30 28 H 3.878655 -4.738344 0.778450 0
M  V30 29 H 2.733699 -4.149616 -1.365353 0
M  V30 30 H 0.673434 -3.358872 -2.731110 0
M  V30 31 H 1.216269 -2.162591 -3.905373 0
M  V30 32 H 2.461519 -3.246986 -3.207919 0
M  V30 33 H 2.502164 0.940510 -0.264357 0
M  V30 34 H 0.661312 2.421240 0.051957 0
M  V30 35 H -2.221601 1.326472 -0.990904 0
M  V30 36 H -5.391027 0.298164 -1.815330 0
M  V30 37 H -4.834960 2.114171 2.371278 0
M  V30 38 H -2.875046 2.462376 3.811716 0
M  V30 39 H -0.286859 3.395745 3.491418 0
M  V30 40 H 0.651080 2.093499 2.726186 0
M  V30 41 H -0.389315 1.650302 4.083158 0
M  V30 42 H 3.211019 -0.825157 2.210975 0
M  V30 END ATOM
M  V30 BEGIN BOND
M  V30 1 1 1 2
M  V30 2 1 2 3
M  V30 3 2 3 4
M  V30 4 1 4 5
M  V30 5 2 5 6
M  V30 6 1 6 7
M  V30 7 1 7 8
M  V30 8 1 6 9
M  V30 9 1 9 10
M  V30 10 1 10 11
M  V30 11 2 11 12
M  V30 12 1 11 13
M  V30 13 1 13 14
M  V30 14 2 14 15
M  V30 15 1 15 16
M  V30 16 1 16 17
M  V30 17 2 17 18
M  V30 18 1 17 19
M  V30 19 2 16 20
M  V30 20 1 20 21
M  V30 21 2 21 22
M  V30 22 1 22 23
M  V30 23 2 9 24
M  V30 24 1 24 3
M  V30 25 1 22 14
M  V30 26 1 1 25
M  V30 27 1 1 26
M  V30 28 1 1 27
M  V30 29 1 4 28
M  V30 30 1 5 29
M  V30 31 1 8 30
M  V30 32 1 8 31
M  V30 33 1 8 32
M  V30 34 1 10 33
M  V30 35 1 13 34
M  V30 36 1 15 35
M  V30 37 1 19 36
M  V30 38 1 20 37
M  V30 39 1 21 38
M  V30 40 1 23 39
M  V30 41 1 23 40
M  V30 42 1 23 41
M  V30 43 1 24 42
M  V30 END BOND
M  V30 END CTAB
M  END
>  <Dataset>  (898) 
ChEMBL_Kinases

>  <Ligand_Instance>  (898) 
nan

>  <PDB_ID>  (898) 
nan

>  <Standardized_SMILES>  (898) 
COc1ccc(OC)c(NC(=O)Nc2cc(C(=O)O)ccc2C)c1

>  <Name>  (898) 
nan

>  <Pocket>  (898) 
nan

>  <ATP_Site>  (898) 
nan

>  <Peripheral>  (898) 
nan

>  <Num_H_Atoms_ProtBoundConf>  (898) 
nan

>  <Num_Resolved_Atoms>  (898) 
nan

>  <Num_Not_Resolved_Atoms>  (898) 
nan

$$$$
CHEMBL1612640
     RDKit          3D

  0  0  0  0  0  0  0  0  0  0999 V3000
M  V30 BEGIN CTAB
M  V30 COUNTS 51 55 0 0 0
M  V30 BEGIN ATOM
M  V30 1 O 0.231995 -1.999451 -0.403479 0
M  V30 2 C 0.478262 -1.002406 0.315826 0
M  V30 3 N 1.176223 0.232667 0.284553 0
M  V30 4 C 1.873604 0.616447 -0.866706 0
M  V30 5 C 1.624455 -0.004501 -2.070203 0
M  V30 6 C 2.261670 0.256148 -3.264512 0
M  V30 7 C 3.241645 1.218182 -3.295186 0
M  V30 8 C 3.546890 1.881354 -2.132868 0
M  V30 9 C 2.858826 1.553914 -0.989553 0
M  V30 10 C 0.916107 0.783482 1.554504 0
M  V30 11 C 1.325588 1.979290 2.082216 0
M  V30 12 C 0.991099 2.405335 3.338870 0
M  V30 13 C 0.201642 1.626023 4.155780 0
M  V30 14 C -0.214010 0.422865 3.630476 0
M  V30 15 C 0.127523 -0.012843 2.346623 0
M  V30 16 C -0.205788 -1.250559 1.599628 0
M  V30 17 C -1.693092 -1.338631 1.463375 0
M  V30 18 C -2.353663 -0.139620 0.923662 0
M  V30 19 C -2.431993 -0.108497 -0.474580 0
M  V30 20 C -3.034981 0.956974 -1.113520 0
M  V30 21 N -3.568595 2.002585 -0.417439 0
M  V30 22 C -3.510382 2.005283 0.945002 0
M  V30 23 C -2.908009 0.939941 1.574700 0
M  V30 24 C 0.321835 -2.471690 2.325415 0
M  V30 25 C 0.198188 -3.726695 1.594464 0
M  V30 26 C -0.994461 -4.440721 1.763167 0
M  V30 27 C -1.215206 -5.640191 1.126469 0
M  V30 28 N -0.262835 -6.167801 0.304820 0
M  V30 29 C 0.905625 -5.521211 0.106546 0
M  V30 30 C 1.111836 -4.335922 0.741927 0
M  V30 31 H 0.869581 -0.791592 -2.218571 0
M  V30 32 H 2.060675 -0.231217 -4.193722 0
M  V30 33 H 3.764774 1.453057 -4.210274 0
M  V30 34 H 4.316168 2.633929 -2.163419 0
M  V30 35 H 3.197895 2.121596 -0.143472 0
M  V30 36 H 1.929027 2.681172 1.543856 0
M  V30 37 H 1.316468 3.361245 3.766411 0
M  V30 38 H -0.129185 1.848502 5.159738 0
M  V30 39 H -0.847432 -0.258320 4.217852 0
M  V30 40 H -2.082748 -1.521367 2.506502 0
M  V30 41 H -2.007405 -2.271140 0.914384 0
M  V30 42 H -2.090575 -0.804566 -1.208674 0
M  V30 43 H -3.164125 1.109913 -2.174496 0
M  V30 44 H -3.908827 2.794082 1.564833 0
M  V30 45 H -2.846203 0.895658 2.645444 0
M  V30 46 H 1.367671 -2.228184 2.616826 0
M  V30 47 H -0.242947 -2.535319 3.279310 0
M  V30 48 H -1.847986 -4.156009 2.383047 0
M  V30 49 H -2.112725 -6.236213 1.216653 0
M  V30 50 H 1.668004 -5.929989 -0.542671 0
M  V30 51 H 2.037599 -3.781692 0.615126 0
M  V30 END ATOM
M  V30 BEGIN BOND
M  V30 1 2 1 2
M  V30 2 1 2 3
M  V30 3 1 3 4
M  V30 4 2 4 5
M  V30 5 1 5 6
M  V30 6 2 6 7
M  V30 7 1 7 8
M  V30 8 2 8 9
M  V30 9 1 3 10
M  V30 10 2 10 11
M  V30 11 1 11 12
M  V30 12 2 12 13
M  V30 13 1 13 14
M  V30 14 2 14 15
M  V30 15 1 15 16
M  V30 16 1 16 17
M  V30 17 1 17 18
M  V30 18 2 18 19
M  V30 19 1 19 20
M  V30 20 2 20 21
M  V30 21 1 21 22
M  V30 22 2 22 23
M  V30 23 1 16 24
M  V30 24 1 24 25
M  V30 25 2 25 26
M  V30 26 1 26 27
M  V30 27 2 27 28
M  V30 28 1 28 29
M  V30 29 2 29 30
M  V30 30 1 16 2
M  V30 31 1 23 18
M  V30 32 1 30 25
M  V30 33 1 9 4
M  V30 34 1 15 10
M  V30 35 1 5 31
M  V30 36 1 6 32
M  V30 37 1 7 33
M  V30 38 1 8 34
M  V30 39 1 9 35
M  V30 40 1 11 36
M  V30 41 1 12 37
M  V30 42 1 13 38
M  V30 43 1 14 39
M  V30 44 1 17 40
M  V30 45 1 17 41
M  V30 46 1 19 42
M  V30 47 1 20 43
M  V30 48 1 22 44
M  V30 49 1 23 45
M  V30 50 1 24 46
M  V30 51 1 24 47
M  V30 52 1 26 48
M  V30 53 1 27 49
M  V30 54 1 29 50
M  V30 55 1 30 51
M  V30 END BOND
M  V30 END CTAB
M  END
>  <Dataset>  (899) 
ChEMBL_Kinases

>  <Ligand_Instance>  (899) 
nan

>  <PDB_ID>  (899) 
nan

>  <Standardized_SMILES>  (899) 
O=C1N(c2ccccc2)c2ccccc2C1(Cc1ccncc1)Cc1ccncc1

>  <Name>  (899) 
nan

>  <Pocket>  (899) 
nan

>  <ATP_Site>  (899) 
nan

>  <Peripheral>  (899) 
nan

>  <Num_H_Atoms_ProtBoundConf>  (899) 
nan

>  <Num_Resolved_Atoms>  (899) 
nan

>  <Num_Not_Resolved_Atoms>  (899) 
nan

$$$$
CHEMBL1612517
     RDKit          3D

  0  0  0  0  0  0  0  0  0  0999 V3000
M  V30 BEGIN CTAB
M  V30 COUNTS 50 52 0 0 0
M  V30 BEGIN ATOM
M  V30 1 C 0.672476 -4.320792 2.728849 0
M  V30 2 C 0.314892 -2.847966 2.829371 0
M  V30 3 C -0.426398 -2.688009 4.137872 0
M  V30 4 C 1.599355 -2.036397 2.820229 0
M  V30 5 C 2.382219 -2.257397 1.569318 0
M  V30 6 S 1.540522 -1.804947 0.051121 0
M  V30 7 C 1.270715 -0.041274 -0.045878 0
M  V30 8 N 1.599248 0.884867 0.877458 0
M  V30 9 C 1.241705 2.098719 0.382579 0
M  V30 10 C 0.693819 1.838330 -0.862301 0
M  V30 11 C 0.272123 2.994892 -1.510063 0
M  V30 12 O -0.246174 2.869818 -2.660246 0
M  V30 13 N 0.382755 4.228633 -0.988444 0
M  V30 14 C 0.929024 4.388366 0.229727 0
M  V30 15 O 1.074600 5.500145 0.798447 0
M  V30 16 N 1.363504 3.322686 0.925924 0
M  V30 17 C 1.964274 3.449444 2.253207 0
M  V30 18 N 0.713147 0.514650 -1.124137 0
M  V30 19 C 0.204419 0.071539 -2.382587 0
M  V30 20 C -1.254688 -0.207322 -2.454449 0
M  V30 21 C -1.756557 -1.250113 -1.540510 0
M  V30 22 C -2.220365 -0.915708 -0.286427 0
M  V30 23 C -2.682433 -1.949443 0.497985 0
M  V30 24 C -2.700712 -3.281221 0.090790 0
M  V30 25 C -2.240286 -3.613891 -1.153407 0
M  V30 26 C -1.782784 -2.581716 -1.927568 0
M  V30 27 H 0.638225 -4.679664 1.697217 0
M  V30 28 H 1.664672 -4.542057 3.174575 0
M  V30 29 H -0.061123 -4.948872 3.309497 0
M  V30 30 H -0.313502 -2.571031 1.985535 0
M  V30 31 H -0.998139 -1.750952 4.197423 0
M  V30 32 H 0.299386 -2.754537 4.989038 0
M  V30 33 H -1.113901 -3.565149 4.224568 0
M  V30 34 H 2.249066 -2.340302 3.666692 0
M  V30 35 H 1.350987 -0.975225 3.011037 0
M  V30 36 H 3.308208 -1.643488 1.639170 0
M  V30 37 H 2.667862 -3.329565 1.535010 0
M  V30 38 H 0.053599 5.072389 -1.507974 0
M  V30 39 H 2.200558 4.489718 2.498535 0
M  V30 40 H 2.860453 2.814291 2.255807 0
M  V30 41 H 1.259167 2.971908 2.985699 0
M  V30 42 H 0.720228 -0.916280 -2.587420 0
M  V30 43 H 0.551123 0.713945 -3.226166 0
M  V30 44 H -1.880345 0.700237 -2.242970 0
M  V30 45 H -1.488637 -0.593116 -3.491919 0
M  V30 46 H -2.226964 0.098571 0.075245 0
M  V30 47 H -3.071664 -1.780404 1.511568 0
M  V30 48 H -3.070243 -4.080676 0.727338 0
M  V30 49 H -2.203970 -4.606281 -1.580609 0
M  V30 50 H -1.401926 -2.790789 -2.934490 0
M  V30 END ATOM
M  V30 BEGIN BOND
M  V30 1 1 1 2
M  V30 2 1 2 3
M  V30 3 1 2 4
M  V30 4 1 4 5
M  V30 5 1 5 6
M  V30 6 1 6 7
M  V30 7 2 7 8
M  V30 8 1 8 9
M  V30 9 2 9 10
M  V30 10 1 10 11
M  V30 11 2 11 12
M  V30 12 1 11 13
M  V30 13 1 13 14
M  V30 14 2 14 15
M  V30 15 1 14 16
M  V30 16 1 16 17
M  V30 17 1 10 18
M  V30 18 1 18 19
M  V30 19 1 19 20
M  V30 20 1 20 21
M  V30 21 2 21 22
M  V30 22 1 22 23
M  V30 23 2 23 24
M  V30 24 1 24 25
M  V30 25 2 25 26
M  V30 26 1 18 7
M  V30 27 1 26 21
M  V30 28 1 16 9
M  V30 29 1 1 27
M  V30 30 1 1 28
M  V30 31 1 1 29
M  V30 32 1 2 30
M  V30 33 1 3 31
M  V30 34 1 3 32
M  V30 35 1 3 33
M  V30 36 1 4 34
M  V30 37 1 4 35
M  V30 38 1 5 36
M  V30 39 1 5 37
M  V30 40 1 13 38
M  V30 41 1 17 39
M  V30 42 1 17 40
M  V30 43 1 17 41
M  V30 44 1 19 42
M  V30 45 1 19 43
M  V30 46 1 20 44
M  V30 47 1 20 45
M  V30 48 1 22 46
M  V30 49 1 23 47
M  V30 50 1 24 48
M  V30 51 1 25 49
M  V30 52 1 26 50
M  V30 END BOND
M  V30 END CTAB
M  END
>  <Dataset>  (900) 
ChEMBL_Kinases

>  <Ligand_Instance>  (900) 
nan

>  <PDB_ID>  (900) 
nan

>  <Standardized_SMILES>  (900) 
CC(C)CCSc1nc2c(c(=O)[nH]c(=O)n2C)n1CCc1ccccc1

>  <Name>  (900) 
nan

>  <Pocket>  (900) 
nan

>  <ATP_Site>  (900) 
nan

>  <Peripheral>  (900) 
nan

>  <Num_H_Atoms_ProtBoundConf>  (900) 
nan

>  <Num_Resolved_Atoms>  (900) 
nan

>  <Num_Not_Resolved_Atoms>  (900) 
nan

$$$$
CHEMBL1605382
     RDKit          3D

  0  0  0  0  0  0  0  0  0  0999 V3000
M  V30 BEGIN CTAB
M  V30 COUNTS 58 61 0 0 0
M  V30 BEGIN ATOM
M  V30 1 C -1.680255 -1.117461 4.893144 0
M  V30 2 O -0.744151 -0.620822 3.931311 0
M  V30 3 C 0.618054 -0.722709 4.112220 0
M  V30 4 O 0.871438 -1.297733 5.197473 0
M  V30 5 C 1.595343 -0.217674 3.155350 0
M  V30 6 N 2.932873 -0.266602 3.258625 0
M  V30 7 C 3.531922 0.297726 2.200075 0
M  V30 8 C 4.829645 0.534444 1.766477 0
M  V30 9 C 5.091289 1.168884 0.575231 0
M  V30 10 C 4.083806 1.602750 -0.247656 0
M  V30 11 C 4.257248 2.311965 -1.559595 0
M  V30 12 C 2.785432 1.366574 0.183880 0
M  V30 13 C 2.493002 0.728282 1.380322 0
M  V30 14 C 1.293050 0.411134 1.966941 0
M  V30 15 N 0.029556 0.714954 1.374758 0
M  V30 16 C -0.947172 1.752297 1.402980 0
M  V30 17 O -0.657477 2.700265 2.171697 0
M  V30 18 C -2.143117 1.555740 0.544150 0
M  V30 19 N -2.048053 0.370253 -0.297664 0
M  V30 20 C -3.394092 -0.058223 -0.718999 0
M  V30 21 C -3.255271 -1.472391 -1.316543 0
M  V30 22 N -1.932071 -1.531407 -1.990037 0
M  V30 23 C -0.824580 -2.434515 -2.164666 0
M  V30 24 O 0.271672 -2.366351 -2.808873 0
M  V30 25 C -1.192089 -3.601757 -1.382127 0
M  V30 26 C -0.169298 -3.834818 -0.460479 0
M  V30 27 C -0.252768 -4.894105 0.445799 0
M  V30 28 C -1.371294 -5.674553 0.379635 0
M  V30 29 C -2.395385 -5.469223 -0.518808 0
M  V30 30 C -2.300864 -4.413929 -1.413215 0
M  V30 31 C -1.688065 -0.250537 -2.621747 0
M  V30 32 C -1.353633 0.731911 -1.547280 0
M  V30 33 H -1.268472 -1.140557 5.909132 0
M  V30 34 H -2.569379 -0.440200 4.796504 0
M  V30 35 H -2.047821 -2.128169 4.595386 0
M  V30 36 H 3.477917 -0.692365 4.067190 0
M  V30 37 H 5.633195 0.199506 2.399595 0
M  V30 38 H 6.098996 1.367354 0.214403 0
M  V30 39 H 4.159601 1.534435 -2.366632 0
M  V30 40 H 3.374884 2.984293 -1.695743 0
M  V30 41 H 5.186095 2.887146 -1.585860 0
M  V30 42 H 1.970068 1.699068 -0.445594 0
M  V30 43 H -0.129249 -0.149681 0.781285 0
M  V30 44 H -3.069076 1.517988 1.140816 0
M  V30 45 H -2.247398 2.447630 -0.142454 0
M  V30 46 H -4.049061 -0.137047 0.137701 0
M  V30 47 H -3.692528 0.600854 -1.540716 0
M  V30 48 H -4.004617 -1.554169 -2.115272 0
M  V30 49 H -3.337080 -2.235821 -0.550592 0
M  V30 50 H 0.768808 -3.277478 -0.320517 0
M  V30 51 H 0.520064 -5.116984 1.189942 0
M  V30 52 H -1.516885 -6.509765 1.037076 0
M  V30 53 H -3.297075 -6.039891 -0.627220 0
M  V30 54 H -2.993176 -4.082365 -2.193806 0
M  V30 55 H -0.846468 -0.301971 -3.381861 0
M  V30 56 H -2.623942 0.055606 -3.135553 0
M  V30 57 H -1.796823 1.712762 -1.832513 0
M  V30 58 H -0.290666 0.759604 -1.339811 0
M  V30 END ATOM
M  V30 BEGIN BOND
M  V30 1 1 1 2
M  V30 2 1 2 3
M  V30 3 2 3 4
M  V30 4 1 3 5
M  V30 5 1 5 6
M  V30 6 1 6 7
M  V30 7 2 7 8
M  V30 8 1 8 9
M  V30 9 2 9 10
M  V30 10 1 10 11
M  V30 11 1 10 12
M  V30 12 2 12 13
M  V30 13 1 13 14
M  V30 14 1 14 15
M  V30 15 1 15 16
M  V30 16 2 16 17
M  V30 17 1 16 18
M  V30 18 1 18 19
M  V30 19 1 19 20
M  V30 20 1 20 21
M  V30 21 1 21 22
M  V30 22 1 22 23
M  V30 23 2 23 24
M  V30 24 1 23 25
M  V30 25 2 25 26
M  V30 26 1 26 27
M  V30 27 2 27 28
M  V30 28 1 28 29
M  V30 29 2 29 30
M  V30 30 1 22 31
M  V30 31 1 31 32
M  V30 32 2 14 5
M  V30 33 1 32 19
M  V30 34 1 13 7
M  V30 35 1 30 25
M  V30 36 1 1 33
M  V30 37 1 1 34
M  V30 38 1 1 35
M  V30 39 1 6 36
M  V30 40 1 8 37
M  V30 41 1 9 38
M  V30 42 1 11 39
M  V30 43 1 11 40
M  V30 44 1 11 41
M  V30 45 1 12 42
M  V30 46 1 15 43
M  V30 47 1 18 44
M  V30 48 1 18 45
M  V30 49 1 20 46
M  V30 50 1 20 47
M  V30 51 1 21 48
M  V30 52 1 21 49
M  V30 53 1 26 50
M  V30 54 1 27 51
M  V30 55 1 28 52
M  V30 56 1 29 53
M  V30 57 1 30 54
M  V30 58 1 31 55
M  V30 59 1 31 56
M  V30 60 1 32 57
M  V30 61 1 32 58
M  V30 END BOND
M  V30 END CTAB
M  END
>  <Dataset>  (901) 
ChEMBL_Kinases

>  <Ligand_Instance>  (901) 
nan

>  <PDB_ID>  (901) 
nan

>  <Standardized_SMILES>  (901) 
COC(=O)c1[nH]c2ccc(C)cc2c1NC(=O)CN1CCN(C(=O)c2ccccc2)CC1

>  <Name>  (901) 
nan

>  <Pocket>  (901) 
nan

>  <ATP_Site>  (901) 
nan

>  <Peripheral>  (901) 
nan

>  <Num_H_Atoms_ProtBoundConf>  (901) 
nan

>  <Num_Resolved_Atoms>  (901) 
nan

>  <Num_Not_Resolved_Atoms>  (901) 
nan

$$$$
CHEMBL1610064
     RDKit          3D

  0  0  0  0  0  0  0  0  0  0999 V3000
M  V30 BEGIN CTAB
M  V30 COUNTS 48 50 0 0 0
M  V30 BEGIN ATOM
M  V30 1 C 0.824848 -6.607580 1.662712 0
M  V30 2 O 0.098234 -5.493791 1.188034 0
M  V30 3 C 0.580713 -4.606467 0.236595 0
M  V30 4 C 1.809349 -4.664598 -0.382039 0
M  V30 5 C 2.189801 -3.725417 -1.318668 0
M  V30 6 C 1.358032 -2.676674 -1.685575 0
M  V30 7 C 1.813664 -1.692317 -2.698168 0
M  V30 8 C 2.535467 -0.532637 -2.051667 0
M  V30 9 N 1.757335 0.209722 -1.116680 0
M  V30 10 C 0.559727 0.850634 -1.539527 0
M  V30 11 O 0.163649 0.780744 -2.725601 0
M  V30 12 C -0.225601 1.607412 -0.567716 0
M  V30 13 C 0.027374 1.809283 0.773875 0
M  V30 14 C -0.969268 2.587397 1.330399 0
M  V30 15 C -0.978380 2.972125 2.737552 0
M  V30 16 C 0.017303 2.581470 3.617441 0
M  V30 17 C 0.002287 2.948524 4.945161 0
M  V30 18 C -1.005307 3.724785 5.469131 0
M  V30 19 C -2.013426 4.132840 4.624736 0
M  V30 20 C -1.966491 3.747834 3.305077 0
M  V30 21 O -3.020606 4.204892 2.534992 0
M  V30 22 N -1.806343 2.840401 0.310696 0
M  V30 23 N -1.374058 2.268421 -0.801295 0
M  V30 24 C 0.125762 -2.618417 -1.065088 0
M  V30 25 C -0.234580 -3.563116 -0.135021 0
M  V30 26 O -1.488064 -3.433196 0.441155 0
M  V30 27 C -2.396303 -2.422310 0.145026 0
M  V30 28 H 0.755221 -7.479353 0.980654 0
M  V30 29 H 0.506350 -6.874457 2.709724 0
M  V30 30 H 1.909285 -6.302732 1.682249 0
M  V30 31 H 2.460489 -5.480520 -0.098959 0
M  V30 32 H 3.184601 -3.854923 -1.755384 0
M  V30 33 H 0.967453 -1.379602 -3.339493 0
M  V30 34 H 2.558055 -2.211648 -3.336554 0
M  V30 35 H 3.024120 0.100782 -2.787968 0
M  V30 36 H 3.375983 -1.013402 -1.473376 0
M  V30 37 H 2.024358 0.317385 -0.092412 0
M  V30 38 H 0.894689 1.394983 1.265500 0
M  V30 39 H 0.823532 1.970152 3.234623 0
M  V30 40 H 0.827644 2.593156 5.557432 0
M  V30 41 H -0.926422 3.958419 6.521214 0
M  V30 42 H -2.805744 4.743085 5.036158 0
M  V30 43 H -3.988836 4.017425 2.750582 0
M  V30 44 H -2.660254 3.400442 0.391593 0
M  V30 45 H -0.554464 -1.817180 -1.321343 0
M  V30 46 H -3.323402 -2.627602 0.745022 0
M  V30 47 H -2.703404 -2.386631 -0.914904 0
M  V30 48 H -1.990346 -1.464958 0.504831 0
M  V30 END ATOM
M  V30 BEGIN BOND
M  V30 1 1 1 2
M  V30 2 1 2 3
M  V30 3 2 3 4
M  V30 4 1 4 5
M  V30 5 2 5 6
M  V30 6 1 6 7
M  V30 7 1 7 8
M  V30 8 1 8 9
M  V30 9 1 9 10
M  V30 10 2 10 11
M  V30 11 1 10 12
M  V30 12 1 12 13
M  V30 13 2 13 14
M  V30 14 1 14 15
M  V30 15 2 15 16
M  V30 16 1 16 17
M  V30 17 2 17 18
M  V30 18 1 18 19
M  V30 19 2 19 20
M  V30 20 1 20 21
M  V30 21 1 14 22
M  V30 22 1 22 23
M  V30 23 1 6 24
M  V30 24 2 24 25
M  V30 25 1 25 26
M  V30 26 1 26 27
M  V30 27 1 25 3
M  V30 28 2 23 12
M  V30 29 1 20 15
M  V30 30 1 1 28
M  V30 31 1 1 29
M  V30 32 1 1 30
M  V30 33 1 4 31
M  V30 34 1 5 32
M  V30 35 1 7 33
M  V30 36 1 7 34
M  V30 37 1 8 35
M  V30 38 1 8 36
M  V30 39 1 9 37
M  V30 40 1 13 38
M  V30 41 1 16 39
M  V30 42 1 17 40
M  V30 43 1 18 41
M  V30 44 1 19 42
M  V30 45 1 21 43
M  V30 46 1 22 44
M  V30 47 1 24 45
M  V30 48 1 27 46
M  V30 49 1 27 47
M  V30 50 1 27 48
M  V30 END BOND
M  V30 END CTAB
M  END
>  <Dataset>  (902) 
ChEMBL_Kinases

>  <Ligand_Instance>  (902) 
nan

>  <PDB_ID>  (902) 
nan

>  <Standardized_SMILES>  (902) 
COc1ccc(CCNC(=O)c2cc(-c3ccccc3O)[nH]n2)cc1OC

>  <Name>  (902) 
nan

>  <Pocket>  (902) 
nan

>  <ATP_Site>  (902) 
nan

>  <Peripheral>  (902) 
nan

>  <Num_H_Atoms_ProtBoundConf>  (902) 
nan

>  <Num_Resolved_Atoms>  (902) 
nan

>  <Num_Not_Resolved_Atoms>  (902) 
nan

$$$$
CHEMBL1610296
     RDKit          3D

  0  0  0  0  0  0  0  0  0  0999 V3000
M  V30 BEGIN CTAB
M  V30 COUNTS 48 49 0 0 0
M  V30 BEGIN ATOM
M  V30 1 C 0.879496 -5.693283 -0.634721 0
M  V30 2 C 1.086612 -5.007976 -1.982518 0
M  V30 3 C 1.605648 -3.646158 -1.685264 0
M  V30 4 C 2.940105 -3.384605 -1.871601 0
M  V30 5 C 3.409436 -2.120585 -1.592191 0
M  V30 6 Cl 5.091803 -1.764565 -1.819734 0
M  V30 7 C 2.525338 -1.170378 -1.138169 0
M  V30 8 O 3.051795 0.064870 -0.874642 0
M  V30 9 C 3.572946 0.290620 0.433958 0
M  V30 10 C 1.185342 -1.368115 -0.933361 0
M  V30 11 C 0.180433 -0.419980 -0.502779 0
M  V30 12 O -0.986060 -0.836099 -0.215400 0
M  V30 13 N 0.287864 0.970267 -0.342956 0
M  V30 14 C -0.750059 1.872369 0.096890 0
M  V30 15 C -1.172014 1.462057 1.485458 0 CFG=1
M  V30 16 C -0.016267 1.518911 2.462416 0
M  V30 17 C -0.754111 1.611986 3.781647 0
M  V30 18 N -2.068590 2.125271 3.494797 0
M  V30 19 C -3.080674 1.146800 3.789375 0
M  V30 20 C -4.485810 1.608053 3.515836 0
M  V30 21 C -2.083958 2.515240 2.114143 0
M  V30 22 C 0.757263 -2.663928 -1.229405 0
M  V30 23 O -0.580501 -3.015362 -1.068797 0
M  V30 24 H 1.763914 -5.409358 -0.012554 0
M  V30 25 H 0.782700 -6.795276 -0.756798 0
M  V30 26 H -0.010781 -5.214325 -0.192474 0
M  V30 27 H 0.122017 -4.961841 -2.527240 0
M  V30 28 H 1.848356 -5.606038 -2.518298 0
M  V30 29 H 3.616869 -4.145471 -2.229637 0
M  V30 30 H 4.570398 -0.154308 0.585147 0
M  V30 31 H 2.840746 -0.204003 1.130792 0
M  V30 32 H 3.593792 1.376765 0.589697 0
M  V30 33 H 1.190580 1.408899 -0.567371 0
M  V30 34 H -0.458767 2.919436 0.030988 0
M  V30 35 H -1.619803 1.706180 -0.603563 0
M  V30 36 H -1.725265 0.513660 1.497976 0
M  V30 37 H 0.528479 2.464968 2.216926 0
M  V30 38 H 0.636237 0.625800 2.397694 0
M  V30 39 H -0.849318 0.566368 4.174357 0
M  V30 40 H -0.205408 2.213958 4.533120 0
M  V30 41 H -2.980029 0.836905 4.862623 0
M  V30 42 H -2.886117 0.255060 3.154598 0
M  V30 43 H -4.652304 2.651168 3.838606 0
M  V30 44 H -4.819890 1.403178 2.475321 0
M  V30 45 H -5.179254 0.980047 4.148307 0
M  V30 46 H -3.071422 2.530473 1.660178 0
M  V30 47 H -1.581353 3.509549 2.038906 0
M  V30 48 H -1.306392 -2.734416 -1.715560 0
M  V30 END ATOM
M  V30 BEGIN BOND
M  V30 1 1 1 2
M  V30 2 1 2 3
M  V30 3 2 3 4
M  V30 4 1 4 5
M  V30 5 1 5 6
M  V30 6 2 5 7
M  V30 7 1 7 8
M  V30 8 1 8 9
M  V30 9 1 7 10
M  V30 10 1 10 11
M  V30 11 2 11 12
M  V30 12 1 11 13
M  V30 13 1 13 14
M  V30 14 1 14 15
M  V30 15 1 15 16
M  V30 16 1 16 17
M  V30 17 1 17 18
M  V30 18 1 18 19
M  V30 19 1 19 20
M  V30 20 1 18 21
M  V30 21 2 10 22
M  V30 22 1 22 23
M  V30 23 1 22 3
M  V30 24 1 21 15
M  V30 25 1 1 24
M  V30 26 1 1 25
M  V30 27 1 1 26
M  V30 28 1 2 27
M  V30 29 1 2 28
M  V30 30 1 4 29
M  V30 31 1 9 30
M  V30 32 1 9 31
M  V30 33 1 9 32
M  V30 34 1 13 33
M  V30 35 1 14 34
M  V30 36 1 14 35
M  V30 37 1 15 36 CFG=3
M  V30 38 1 16 37
M  V30 39 1 16 38
M  V30 40 1 17 39
M  V30 41 1 17 40
M  V30 42 1 19 41
M  V30 43 1 19 42
M  V30 44 1 20 43
M  V30 45 1 20 44
M  V30 46 1 20 45
M  V30 47 1 21 46
M  V30 48 1 21 47
M  V30 49 1 23 48
M  V30 END BOND
M  V30 END CTAB
M  END
>  <Dataset>  (903) 
ChEMBL_Kinases

>  <Ligand_Instance>  (903) 
nan

>  <PDB_ID>  (903) 
nan

>  <Standardized_SMILES>  (903) 
CCc1cc(Cl)c(OC)c(C(=O)NC[C@H]2CCN(CC)C2)c1O

>  <Name>  (903) 
nan

>  <Pocket>  (903) 
nan

>  <ATP_Site>  (903) 
nan

>  <Peripheral>  (903) 
nan

>  <Num_H_Atoms_ProtBoundConf>  (903) 
nan

>  <Num_Resolved_Atoms>  (903) 
nan

>  <Num_Not_Resolved_Atoms>  (903) 
nan

$$$$
CHEMBL1610406
     RDKit          3D

  0  0  0  0  0  0  0  0  0  0999 V3000
M  V30 BEGIN CTAB
M  V30 COUNTS 48 49 0 0 0
M  V30 BEGIN ATOM
M  V30 1 C 0.363068 -4.501039 5.165205 0
M  V30 2 C 1.777196 -4.817038 5.540322 0
M  V30 3 C 2.208812 -3.791760 6.570206 0
M  V30 4 C 2.743569 -4.943248 4.414565 0
M  V30 5 O 2.963236 -3.897900 3.591090 0
M  V30 6 C 2.333615 -3.114584 2.708552 0
M  V30 7 C 3.288759 -2.179957 2.255064 0
M  V30 8 C 2.974618 -1.189182 1.306578 0
M  V30 9 C 1.677665 -1.158492 0.824248 0
M  V30 10 C 1.323879 -0.143454 -0.159510 0
M  V30 11 O 2.155940 0.686791 -0.603734 0
M  V30 12 N 0.029583 -0.004242 -0.694830 0
M  V30 13 C -0.486317 0.914462 -1.648126 0
M  V30 14 C -1.470849 1.745906 -1.380902 0
M  V30 15 C -2.148171 2.751919 -2.180331 0
M  V30 16 C -1.474161 3.560038 -3.096548 0
M  V30 17 C -2.079952 4.522844 -3.878401 0
M  V30 18 C -3.437174 4.698830 -3.746688 0
M  V30 19 C -4.142644 3.916825 -2.848325 0
M  V30 20 N -5.564148 4.115531 -2.725959 0 CHG=1 VAL=4
M  V30 21 O -6.137606 4.965836 -3.407892 0
M  V30 22 O -6.303927 3.362225 -1.848161 0 CHG=-1 VAL=1
M  V30 23 C -3.509020 2.954210 -2.072750 0
M  V30 24 C -0.013667 1.057310 -3.013017 0
M  V30 25 O 0.883104 0.149197 -2.925038 0
M  V30 26 O 0.649632 0.937217 -4.202232 0
M  V30 27 C 0.697137 -2.037300 1.221516 0
M  V30 28 C 1.090605 -2.970810 2.148337 0
M  V30 29 H -0.309352 -4.751246 6.022167 0
M  V30 30 H 0.029575 -5.194714 4.349887 0
M  V30 31 H 0.226708 -3.425161 4.875972 0
M  V30 32 H 1.724048 -5.796112 6.109175 0
M  V30 33 H 2.311331 -2.776789 6.187021 0
M  V30 34 H 1.393469 -3.769287 7.341936 0
M  V30 35 H 3.119969 -4.105568 7.096776 0
M  V30 36 H 2.498659 -5.911324 3.861004 0
M  V30 37 H 3.749248 -5.224485 4.887392 0
M  V30 38 H 4.354771 -2.065983 2.533944 0
M  V30 39 H 3.664657 -0.449054 0.922375 0
M  V30 40 H -0.757236 -0.623120 -0.415032 0
M  V30 41 H -1.870774 1.678478 -0.356366 0
M  V30 42 H -0.403886 3.462393 -3.237816 0
M  V30 43 H -1.509964 5.122343 -4.573421 0
M  V30 44 H -4.000463 5.427522 -4.313719 0
M  V30 45 H -4.126434 2.387387 -1.398088 0
M  V30 46 H 0.177480 1.044729 -5.112135 0
M  V30 47 H -0.318590 -2.079214 0.898088 0
M  V30 48 H 0.398027 -3.708144 2.502327 0
M  V30 END ATOM
M  V30 BEGIN BOND
M  V30 1 1 1 2
M  V30 2 1 2 3
M  V30 3 1 2 4
M  V30 4 1 4 5
M  V30 5 1 5 6
M  V30 6 2 6 7
M  V30 7 1 7 8
M  V30 8 2 8 9
M  V30 9 1 9 10
M  V30 10 2 10 11
M  V30 11 1 10 12
M  V30 12 1 12 13
M  V30 13 2 13 14
M  V30 14 1 14 15
M  V30 15 2 15 16
M  V30 16 1 16 17
M  V30 17 2 17 18
M  V30 18 1 18 19
M  V30 19 1 19 20
M  V30 20 2 20 21
M  V30 21 1 20 22
M  V30 22 2 19 23
M  V30 23 1 13 24
M  V30 24 2 24 25
M  V30 25 1 24 26
M  V30 26 1 9 27
M  V30 27 2 27 28
M  V30 28 1 28 6
M  V30 29 1 23 15
M  V30 30 1 1 29
M  V30 31 1 1 30
M  V30 32 1 1 31
M  V30 33 1 2 32
M  V30 34 1 3 33
M  V30 35 1 3 34
M  V30 36 1 3 35
M  V30 37 1 4 36
M  V30 38 1 4 37
M  V30 39 1 7 38
M  V30 40 1 8 39
M  V30 41 1 12 40
M  V30 42 1 14 41
M  V30 43 1 16 42
M  V30 44 1 17 43
M  V30 45 1 18 44
M  V30 46 1 23 45
M  V30 47 1 26 46
M  V30 48 1 27 47
M  V30 49 1 28 48
M  V30 END BOND
M  V30 END CTAB
M  END
>  <Dataset>  (904) 
ChEMBL_Kinases

>  <Ligand_Instance>  (904) 
nan

>  <PDB_ID>  (904) 
nan

>  <Standardized_SMILES>  (904) 
CC(C)COc1ccc(C(=O)N/C(=C/c2cccc([N+](=O)[O-])c2)C(=O)O)cc1

>  <Name>  (904) 
nan

>  <Pocket>  (904) 
nan

>  <ATP_Site>  (904) 
nan

>  <Peripheral>  (904) 
nan

>  <Num_H_Atoms_ProtBoundConf>  (904) 
nan

>  <Num_Resolved_Atoms>  (904) 
nan

>  <Num_Not_Resolved_Atoms>  (904) 
nan

$$$$
CHEMBL1610581
     RDKit          3D

  0  0  0  0  0  0  0  0  0  0999 V3000
M  V30 BEGIN CTAB
M  V30 COUNTS 42 45 0 0 0
M  V30 BEGIN ATOM
M  V30 1 O 0.302687 -2.465326 3.339612 0
M  V30 2 C 0.037518 -1.535325 2.540302 0
M  V30 3 N -1.163819 -1.818750 1.844996 0
M  V30 4 C -1.974097 -2.984114 2.008642 0
M  V30 5 C -1.307921 -4.284729 1.703514 0
M  V30 6 C -0.820426 -4.366906 0.302082 0
M  V30 7 C -1.688054 -4.875098 -0.660939 0
M  V30 8 C -1.357663 -5.002114 -1.987458 0
M  V30 9 C -0.096611 -4.604558 -2.389509 0
M  V30 10 C 0.778686 -4.098234 -1.451580 0
M  V30 11 C 0.442733 -3.969076 -0.102697 0
M  V30 12 C 0.879239 -0.369728 2.397911 0
M  V30 13 N 1.968422 -0.423072 3.204280 0
M  V30 14 O 2.694033 0.669722 3.024368 0
M  V30 15 C 2.106900 1.398916 2.144426 0
M  V30 16 C 0.939870 0.831046 1.678255 0
M  V30 17 C -0.101343 1.213213 0.707716 0
M  V30 18 C 0.212075 2.516629 0.070032 0
M  V30 19 C 1.459437 3.085914 0.608172 0
M  V30 20 C 1.696960 4.312182 0.002577 0
M  V30 21 C 2.820331 5.089828 0.312566 0
M  V30 22 C 3.740036 4.653897 1.244289 0
M  V30 23 C 3.495715 3.426478 1.845903 0
M  V30 24 C 2.401598 2.688892 1.531585 0
M  V30 25 H -1.499820 -1.109166 1.135831 0
M  V30 26 H -2.935401 -2.898264 1.472037 0
M  V30 27 H -2.243154 -3.028754 3.107389 0
M  V30 28 H -0.477400 -4.439032 2.418162 0
M  V30 29 H -2.081710 -5.077791 1.851904 0
M  V30 30 H -2.686080 -5.196066 -0.376198 0
M  V30 31 H -2.075707 -5.404908 -2.690510 0
M  V30 32 H 0.191745 -4.694114 -3.434750 0
M  V30 33 H 1.773650 -3.784853 -1.770325 0
M  V30 34 H 1.115057 -3.574348 0.648441 0
M  V30 35 H -0.170952 0.427885 -0.095863 0
M  V30 36 H -1.075044 1.211848 1.248733 0
M  V30 37 H 0.234691 2.417276 -1.039289 0
M  V30 38 H -0.607135 3.228010 0.372443 0
M  V30 39 H 1.096588 4.837519 -0.757806 0
M  V30 40 H 3.061084 6.046201 -0.120142 0
M  V30 41 H 4.632805 5.171620 1.553941 0
M  V30 42 H 4.145370 2.984707 2.588668 0
M  V30 END ATOM
M  V30 BEGIN BOND
M  V30 1 2 1 2
M  V30 2 1 2 3
M  V30 3 1 3 4
M  V30 4 1 4 5
M  V30 5 1 5 6
M  V30 6 2 6 7
M  V30 7 1 7 8
M  V30 8 2 8 9
M  V30 9 1 9 10
M  V30 10 2 10 11
M  V30 11 1 2 12
M  V30 12 2 12 13
M  V30 13 1 13 14
M  V30 14 1 14 15
M  V30 15 2 15 16
M  V30 16 1 16 17
M  V30 17 1 17 18
M  V30 18 1 18 19
M  V30 19 2 19 20
M  V30 20 1 20 21
M  V30 21 2 21 22
M  V30 22 1 22 23
M  V30 23 2 23 24
M  V30 24 1 11 6
M  V30 25 1 16 12
M  V30 26 1 24 19
M  V30 27 1 24 15
M  V30 28 1 3 25
M  V30 29 1 4 26
M  V30 30 1 4 27
M  V30 31 1 5 28
M  V30 32 1 5 29
M  V30 33 1 7 30
M  V30 34 1 8 31
M  V30 35 1 9 32
M  V30 36 1 10 33
M  V30 37 1 11 34
M  V30 38 1 17 35
M  V30 39 1 17 36
M  V30 40 1 18 37
M  V30 41 1 18 38
M  V30 42 1 20 39
M  V30 43 1 21 40
M  V30 44 1 22 41
M  V30 45 1 23 42
M  V30 END BOND
M  V30 END CTAB
M  END
>  <Dataset>  (905) 
ChEMBL_Kinases

>  <Ligand_Instance>  (905) 
nan

>  <PDB_ID>  (905) 
nan

>  <Standardized_SMILES>  (905) 
O=C(NCCc1ccccc1)c1noc2c1CCc1ccccc1-2

>  <Name>  (905) 
nan

>  <Pocket>  (905) 
nan

>  <ATP_Site>  (905) 
nan

>  <Peripheral>  (905) 
nan

>  <Num_H_Atoms_ProtBoundConf>  (905) 
nan

>  <Num_Resolved_Atoms>  (905) 
nan

>  <Num_Not_Resolved_Atoms>  (905) 
nan

$$$$
CHEMBL1610597
     RDKit          3D

  0  0  0  0  0  0  0  0  0  0999 V3000
M  V30 BEGIN CTAB
M  V30 COUNTS 38 41 0 0 0
M  V30 BEGIN ATOM
M  V30 1 C 1.434836 -5.485134 3.800542 0
M  V30 2 C 1.614515 -4.857032 2.464466 0
M  V30 3 C 1.319170 -5.601150 1.215644 0
M  V30 4 S 1.717413 -4.322231 -0.081877 0
M  V30 5 C 2.169180 -3.106903 0.988855 0
M  V30 6 C 2.621352 -1.751513 0.515146 0
M  V30 7 N 1.493044 -0.831070 0.381990 0
M  V30 8 C 1.747809 0.496619 -0.056241 0
M  V30 9 N 3.001606 0.884052 -0.338845 0
M  V30 10 C 3.360790 2.092932 -0.754903 0
M  V30 11 N 2.381697 2.982886 -0.898217 0
M  V30 12 C 1.080867 2.744818 -0.655062 0
M  V30 13 C 0.090495 3.692611 -0.814934 0
M  V30 14 C -1.235080 3.409420 -0.554931 0
M  V30 15 C -1.489386 2.128238 -0.130241 0
M  V30 16 C -2.892168 1.784531 0.157854 0
M  V30 17 C -3.461381 0.532904 0.001520 0
M  V30 18 C -4.796530 0.626212 0.378594 0
M  V30 19 O -5.012316 1.864381 0.739887 0
M  V30 20 C -3.919779 2.586652 0.627390 0
M  V30 21 C -0.541439 1.132679 0.049609 0
M  V30 22 C 0.769667 1.454287 -0.220339 0
M  V30 23 C 2.043830 -3.589697 2.265970 0
M  V30 24 H 2.345998 -5.960412 4.199216 0
M  V30 25 H 1.135291 -4.704919 4.558650 0
M  V30 26 H 0.613631 -6.235646 3.782643 0
M  V30 27 H 0.938769 -6.720222 1.343930 0
M  V30 28 H 3.190756 -1.881351 -0.417186 0
M  V30 29 H 3.260704 -1.364231 1.344843 0
M  V30 30 H 0.567388 -1.234631 0.626269 0
M  V30 31 H 4.407474 2.282055 -0.949841 0
M  V30 32 H 0.377089 4.664365 -1.149586 0
M  V30 33 H -2.037212 4.125539 -0.668453 0
M  V30 34 H -2.996322 -0.393994 -0.349611 0
M  V30 35 H -5.559756 -0.148378 0.390826 0
M  V30 36 H -3.735906 3.633766 0.835806 0
M  V30 37 H -0.830278 0.170624 0.381034 0
M  V30 38 H 2.298901 -2.922194 3.071765 0
M  V30 END ATOM
M  V30 BEGIN BOND
M  V30 1 1 1 2
M  V30 2 2 2 3
M  V30 3 1 3 4
M  V30 4 1 4 5
M  V30 5 1 5 6
M  V30 6 1 6 7
M  V30 7 1 7 8
M  V30 8 2 8 9
M  V30 9 1 9 10
M  V30 10 2 10 11
M  V30 11 1 11 12
M  V30 12 2 12 13
M  V30 13 1 13 14
M  V30 14 2 14 15
M  V30 15 1 15 16
M  V30 16 1 16 17
M  V30 17 2 17 18
M  V30 18 1 18 19
M  V30 19 1 19 20
M  V30 20 1 15 21
M  V30 21 2 21 22
M  V30 22 2 5 23
M  V30 23 1 23 2
M  V30 24 1 22 8
M  V30 25 1 22 12
M  V30 26 2 20 16
M  V30 27 1 1 24
M  V30 28 1 1 25
M  V30 29 1 1 26
M  V30 30 1 3 27
M  V30 31 1 6 28
M  V30 32 1 6 29
M  V30 33 1 7 30
M  V30 34 1 10 31
M  V30 35 1 13 32
M  V30 36 1 14 33
M  V30 37 1 17 34
M  V30 38 1 18 35
M  V30 39 1 20 36
M  V30 40 1 21 37
M  V30 41 1 23 38
M  V30 END BOND
M  V30 END CTAB
M  END
>  <Dataset>  (906) 
ChEMBL_Kinases

>  <Ligand_Instance>  (906) 
nan

>  <PDB_ID>  (906) 
nan

>  <Standardized_SMILES>  (906) 
Cc1csc(CNc2ncnc3ccc(-c4ccoc4)cc23)c1

>  <Name>  (906) 
nan

>  <Pocket>  (906) 
nan

>  <ATP_Site>  (906) 
nan

>  <Peripheral>  (906) 
nan

>  <Num_H_Atoms_ProtBoundConf>  (906) 
nan

>  <Num_Resolved_Atoms>  (906) 
nan

>  <Num_Not_Resolved_Atoms>  (906) 
nan

$$$$
CHEMBL1610633
     RDKit          3D

  0  0  0  0  0  0  0  0  0  0999 V3000
M  V30 BEGIN CTAB
M  V30 COUNTS 49 52 0 0 0
M  V30 BEGIN ATOM
M  V30 1 C -0.565081 -6.082980 2.790136 0
M  V30 2 O -0.388677 -5.961935 1.391663 0
M  V30 3 C 0.367424 -4.933854 0.824561 0
M  V30 4 C 0.428703 -4.976772 -0.552923 0
M  V30 5 C 1.141439 -4.023426 -1.249721 0
M  V30 6 C 1.799321 -3.015475 -0.542918 0
M  V30 7 N 2.586217 -1.943785 -1.038058 0
M  V30 8 C 1.995289 -0.719667 -1.368078 0
M  V30 9 O 0.986527 0.011872 -1.462631 0
M  V30 10 C 2.442132 0.588013 -1.888711 0
M  V30 11 S 1.030205 1.703830 -1.972627 0
M  V30 12 C 0.367195 2.186385 -0.416368 0
M  V30 13 N 1.035556 3.282015 0.061293 0
M  V30 14 C 0.494306 3.640986 1.257908 0
M  V30 15 C 0.708205 4.629144 2.224227 0
M  V30 16 C -0.062781 4.693607 3.363464 0
M  V30 17 C -1.082191 3.779955 3.596103 0
M  V30 18 C -1.342843 2.768870 2.664342 0
M  V30 19 C -0.529463 2.769251 1.550029 0
M  V30 20 N -0.565329 1.915668 0.513315 0
M  V30 21 C -1.433300 0.844695 0.293227 0
M  V30 22 C -2.449833 1.186814 -0.606957 0
M  V30 23 C -3.428994 0.267045 -0.973259 0
M  V30 24 C -3.391164 -0.992440 -0.439830 0
M  V30 25 C -2.400494 -1.375025 0.457157 0
M  V30 26 C -1.445576 -0.438686 0.798453 0
M  V30 27 C 1.721329 -2.994289 0.854742 0
M  V30 28 N 2.348174 -2.018363 1.690083 0 CHG=1 VAL=4
M  V30 29 O 3.443425 -1.465103 1.373387 0
M  V30 30 O 1.747658 -1.665178 2.876686 0 CHG=-1 VAL=1
M  V30 31 C 1.000989 -3.957421 1.564435 0
M  V30 32 H -0.843563 -7.111994 3.049842 0
M  V30 33 H -1.284914 -5.348750 3.206686 0
M  V30 34 H 0.446575 -5.871427 3.228481 0
M  V30 35 H -0.070733 -5.748173 -1.158381 0
M  V30 36 H 1.267502 -3.942455 -2.299439 0
M  V30 37 H 3.620688 -1.813004 -1.245671 0
M  V30 38 H 3.253616 0.995258 -1.232580 0
M  V30 39 H 2.855830 0.442016 -2.927355 0
M  V30 40 H 1.500272 5.331622 2.034051 0
M  V30 41 H 0.097497 5.454749 4.114093 0
M  V30 42 H -1.716878 3.792148 4.481085 0
M  V30 43 H -2.121621 2.026624 2.786384 0
M  V30 44 H -2.576437 2.163116 -1.092984 0
M  V30 45 H -4.219481 0.510418 -1.664237 0
M  V30 46 H -4.127921 -1.747735 -0.689740 0
M  V30 47 H -2.341744 -2.360891 0.895441 0
M  V30 48 H -0.624192 -0.611888 1.484779 0
M  V30 49 H 0.920036 -3.970838 2.642017 0
M  V30 END ATOM
M  V30 BEGIN BOND
M  V30 1 1 1 2
M  V30 2 1 2 3
M  V30 3 2 3 4
M  V30 4 1 4 5
M  V30 5 2 5 6
M  V30 6 1 6 7
M  V30 7 1 7 8
M  V30 8 2 8 9
M  V30 9 1 8 10
M  V30 10 1 10 11
M  V30 11 1 11 12
M  V30 12 2 12 13
M  V30 13 1 13 14
M  V30 14 2 14 15
M  V30 15 1 15 16
M  V30 16 2 16 17
M  V30 17 1 17 18
M  V30 18 2 18 19
M  V30 19 1 19 20
M  V30 20 1 20 21
M  V30 21 2 21 22
M  V30 22 1 22 23
M  V30 23 2 23 24
M  V30 24 1 24 25
M  V30 25 2 25 26
M  V30 26 1 6 27
M  V30 27 1 27 28
M  V30 28 2 28 29
M  V30 29 1 28 30
M  V30 30 2 27 31
M  V30 31 1 31 3
M  V30 32 1 20 12
M  V30 33 1 26 21
M  V30 34 1 19 14
M  V30 35 1 1 32
M  V30 36 1 1 33
M  V30 37 1 1 34
M  V30 38 1 4 35
M  V30 39 1 5 36
M  V30 40 1 7 37
M  V30 41 1 10 38
M  V30 42 1 10 39
M  V30 43 1 15 40
M  V30 44 1 16 41
M  V30 45 1 17 42
M  V30 46 1 18 43
M  V30 47 1 22 44
M  V30 48 1 23 45
M  V30 49 1 24 46
M  V30 50 1 25 47
M  V30 51 1 26 48
M  V30 52 1 31 49
M  V30 END BOND
M  V30 END CTAB
M  END
>  <Dataset>  (907) 
ChEMBL_Kinases

>  <Ligand_Instance>  (907) 
nan

>  <PDB_ID>  (907) 
nan

>  <Standardized_SMILES>  (907) 
COc1ccc(NC(=O)CSc2nc3ccccc3n2-c2ccccc2)c([N+](=O)[O-])c1

>  <Name>  (907) 
nan

>  <Pocket>  (907) 
nan

>  <ATP_Site>  (907) 
nan

>  <Peripheral>  (907) 
nan

>  <Num_H_Atoms_ProtBoundConf>  (907) 
nan

>  <Num_Resolved_Atoms>  (907) 
nan

>  <Num_Not_Resolved_Atoms>  (907) 
nan

$$$$
CHEMBL1610761
     RDKit          3D

  0  0  0  0  0  0  0  0  0  0999 V3000
M  V30 BEGIN CTAB
M  V30 COUNTS 45 48 0 0 0
M  V30 BEGIN ATOM
M  V30 1 C -0.068467 -5.501238 -1.078293 0
M  V30 2 C 1.231896 -5.562408 -0.595538 0
M  V30 3 C 1.626500 -4.521659 0.227461 0
M  V30 4 C 0.828529 -3.434524 0.601464 0
M  V30 5 C 1.423255 -2.391483 1.507527 0
M  V30 6 N 2.081202 -1.358494 0.786539 0
M  V30 7 N 3.374147 -1.448506 0.446046 0
M  V30 8 N 3.708759 -0.346964 -0.233627 0
M  V30 9 N 2.656812 0.411393 -0.316571 0
M  V30 10 C 1.607117 -0.192870 0.316569 0
M  V30 11 C 0.240200 0.364034 0.453090 0
M  V30 12 C 0.152008 1.622046 -0.323633 0
M  V30 13 C -0.319371 1.625839 -1.648118 0
M  V30 14 C -0.441122 2.722734 -2.466244 0
M  V30 15 N -0.083008 3.908147 -1.976316 0
M  V30 16 C 0.380198 4.007549 -0.719959 0
M  V30 17 C 0.490367 2.890440 0.074394 0
M  V30 18 N -0.283086 0.470157 1.748724 0
M  V30 19 C -1.604658 0.993151 1.861213 0
M  V30 20 C -1.809229 1.522039 3.270589 0
M  V30 21 O -1.456085 0.488643 4.142032 0
M  V30 22 C -0.117945 0.188216 4.092441 0
M  V30 23 C 0.574273 0.750900 2.837817 0
M  V30 24 C -0.433191 -3.423780 0.102102 0
M  V30 25 C -0.877930 -4.444990 -0.728502 0
M  V30 26 H -0.353056 -6.325573 -1.719828 0
M  V30 27 H 1.937991 -6.353632 -0.817600 0
M  V30 28 H 2.641772 -4.559716 0.610830 0
M  V30 29 H 0.605227 -2.069550 2.153503 0
M  V30 30 H 2.121519 -2.946367 2.169828 0
M  V30 31 H -0.451841 -0.351130 -0.119889 0
M  V30 32 H -0.625021 0.664192 -2.087957 0
M  V30 33 H -0.816057 2.612053 -3.470520 0
M  V30 34 H 0.668114 4.974406 -0.332383 0
M  V30 35 H 0.865098 3.027094 1.056546 0
M  V30 36 H -1.921600 1.685096 1.083575 0
M  V30 37 H -2.309633 0.112960 1.790112 0
M  V30 38 H -2.898716 1.677349 3.381805 0
M  V30 39 H -1.233881 2.432367 3.460399 0
M  V30 40 H 0.375514 0.627545 4.995437 0
M  V30 41 H 0.029337 -0.899122 4.137392 0
M  V30 42 H 1.523405 0.194172 2.741939 0
M  V30 43 H 0.744849 1.827364 3.062385 0
M  V30 44 H -1.069305 -2.611469 0.366703 0
M  V30 45 H -1.886051 -4.429414 -1.123337 0
M  V30 END ATOM
M  V30 BEGIN BOND
M  V30 1 2 1 2
M  V30 2 1 2 3
M  V30 3 2 3 4
M  V30 4 1 4 5
M  V30 5 1 5 6
M  V30 6 1 6 7
M  V30 7 2 7 8
M  V30 8 1 8 9
M  V30 9 2 9 10
M  V30 10 1 10 11
M  V30 11 1 11 12
M  V30 12 2 12 13
M  V30 13 1 13 14
M  V30 14 2 14 15
M  V30 15 1 15 16
M  V30 16 2 16 17
M  V30 17 1 11 18
M  V30 18 1 18 19
M  V30 19 1 19 20
M  V30 20 1 20 21
M  V30 21 1 21 22
M  V30 22 1 22 23
M  V30 23 1 4 24
M  V30 24 2 24 25
M  V30 25 1 25 1
M  V30 26 1 10 6
M  V30 27 1 17 12
M  V30 28 1 23 18
M  V30 29 1 1 26
M  V30 30 1 2 27
M  V30 31 1 3 28
M  V30 32 1 5 29
M  V30 33 1 5 30
M  V30 34 1 11 31
M  V30 35 1 13 32
M  V30 36 1 14 33
M  V30 37 1 16 34
M  V30 38 1 17 35
M  V30 39 1 19 36
M  V30 40 1 19 37
M  V30 41 1 20 38
M  V30 42 1 20 39
M  V30 43 1 22 40
M  V30 44 1 22 41
M  V30 45 1 23 42
M  V30 46 1 23 43
M  V30 47 1 24 44
M  V30 48 1 25 45
M  V30 END BOND
M  V30 END CTAB
M  END
>  <Dataset>  (908) 
ChEMBL_Kinases

>  <Ligand_Instance>  (908) 
nan

>  <PDB_ID>  (908) 
nan

>  <Standardized_SMILES>  (908) 
c1ccc(Cn2nnnc2C(c2ccncc2)N2CCOCC2)cc1

>  <Name>  (908) 
nan

>  <Pocket>  (908) 
nan

>  <ATP_Site>  (908) 
nan

>  <Peripheral>  (908) 
nan

>  <Num_H_Atoms_ProtBoundConf>  (908) 
nan

>  <Num_Resolved_Atoms>  (908) 
nan

>  <Num_Not_Resolved_Atoms>  (908) 
nan

$$$$
CHEMBL1612363
     RDKit          3D

  0  0  0  0  0  0  0  0  0  0999 V3000
M  V30 BEGIN CTAB
M  V30 COUNTS 55 58 0 0 0
M  V30 BEGIN ATOM
M  V30 1 N 1.596203 -6.998322 2.114201 0
M  V30 2 C 1.799926 -6.095783 1.419869 0
M  V30 3 C 2.066774 -4.978602 0.577618 0
M  V30 4 C 3.152468 -4.188434 0.893954 0
M  V30 5 C 3.416298 -3.102904 0.081967 0
M  V30 6 C 2.668217 -2.738198 -1.040883 0
M  V30 7 C 3.133936 -1.541911 -1.779893 0
M  V30 8 N 2.582346 -0.370644 -1.198373 0
M  V30 9 C 2.985096 0.853780 -1.861154 0
M  V30 10 C 2.717797 1.973671 -0.884266 0
M  V30 11 C 1.303795 2.014329 -0.416875 0
M  V30 12 C 0.687720 0.696596 -0.088625 0
M  V30 13 C 0.949564 0.245419 1.312711 0
M  V30 14 C -0.131410 0.606058 2.299756 0
M  V30 15 N -1.453633 0.217513 1.840583 0
M  V30 16 C -2.403669 0.488251 2.868871 0
M  V30 17 O -1.695948 0.972143 3.799426 0
M  V30 18 C -3.833186 0.225730 2.756903 0
M  V30 19 C -4.349345 0.853647 1.623645 0
M  V30 20 C -5.693343 0.767197 1.279928 0
M  V30 21 C -6.525132 0.030077 2.102085 0
M  V30 22 C -6.015678 -0.589943 3.221121 0
M  V30 23 F -6.780916 -1.332607 4.072825 0
M  V30 24 C -4.683875 -0.503378 3.560425 0
M  V30 25 C -1.440111 -0.331972 0.477081 0
M  V30 26 C -0.823950 0.775292 -0.353087 0
M  V30 27 C 1.165858 -0.356943 -1.102301 0
M  V30 28 C 1.592987 -3.562048 -1.314477 0
M  V30 29 C 1.305001 -4.651876 -0.522373 0
M  V30 30 H 3.781144 -4.404279 1.747381 0
M  V30 31 H 4.285382 -2.506090 0.370199 0
M  V30 32 H 2.758970 -1.616012 -2.839332 0
M  V30 33 H 4.245542 -1.567051 -1.768237 0
M  V30 34 H 2.326286 0.945434 -2.758087 0
M  V30 35 H 4.056772 0.855878 -2.105760 0
M  V30 36 H 3.482270 1.894518 -0.096575 0
M  V30 37 H 2.914540 2.924288 -1.442935 0
M  V30 38 H 0.688797 2.631108 -1.104249 0
M  V30 39 H 1.305861 2.603616 0.548221 0
M  V30 40 H 1.168141 -0.835488 1.405417 0
M  V30 41 H 1.880801 0.756593 1.692223 0
M  V30 42 H -0.094368 1.683602 2.595429 0
M  V30 43 H 0.058928 -0.037665 3.202648 0
M  V30 44 H -3.799584 1.463818 0.893258 0
M  V30 45 H -6.140617 1.226508 0.425340 0
M  V30 46 H -7.595063 -0.077156 1.889182 0
M  V30 47 H -4.161819 -0.938356 4.402391 0
M  V30 48 H -0.822207 -1.248894 0.492630 0
M  V30 49 H -2.445711 -0.626417 0.128517 0
M  V30 50 H -1.033394 0.687997 -1.434344 0
M  V30 51 H -1.122811 1.769441 0.047003 0
M  V30 52 H 0.684730 -1.331116 -0.887164 0
M  V30 53 H 0.747380 -0.028053 -2.077011 0
M  V30 54 H 1.020966 -3.278822 -2.189102 0
M  V30 55 H 0.460355 -5.264475 -0.770457 0
M  V30 END ATOM
M  V30 BEGIN BOND
M  V30 1 3 1 2
M  V30 2 1 2 3
M  V30 3 2 3 4
M  V30 4 1 4 5
M  V30 5 2 5 6
M  V30 6 1 6 7
M  V30 7 1 7 8
M  V30 8 1 8 9
M  V30 9 1 9 10
M  V30 10 1 10 11
M  V30 11 1 11 12
M  V30 12 1 12 13
M  V30 13 1 13 14
M  V30 14 1 14 15
M  V30 15 1 15 16
M  V30 16 2 16 17
M  V30 17 1 16 18
M  V30 18 2 18 19
M  V30 19 1 19 20
M  V30 20 2 20 21
M  V30 21 1 21 22
M  V30 22 1 22 23
M  V30 23 2 22 24
M  V30 24 1 15 25
M  V30 25 1 25 26
M  V30 26 1 12 27
M  V30 27 1 6 28
M  V30 28 2 28 29
M  V30 29 1 29 3
M  V30 30 1 27 8
M  V30 31 1 26 12
M  V30 32 1 24 18
M  V30 33 1 4 30
M  V30 34 1 5 31
M  V30 35 1 7 32
M  V30 36 1 7 33
M  V30 37 1 9 34
M  V30 38 1 9 35
M  V30 39 1 10 36
M  V30 40 1 10 37
M  V30 41 1 11 38
M  V30 42 1 11 39
M  V30 43 1 13 40
M  V30 44 1 13 41
M  V30 45 1 14 42
M  V30 46 1 14 43
M  V30 47 1 19 44
M  V30 48 1 20 45
M  V30 49 1 21 46
M  V30 50 1 24 47
M  V30 51 1 25 48
M  V30 52 1 25 49
M  V30 53 1 26 50
M  V30 54 1 26 51
M  V30 55 1 27 52
M  V30 56 1 27 53
M  V30 57 1 28 54
M  V30 58 1 29 55
M  V30 END BOND
M  V30 END CTAB
M  END
>  <Dataset>  (909) 
ChEMBL_Kinases

>  <Ligand_Instance>  (909) 
nan

>  <PDB_ID>  (909) 
nan

>  <Standardized_SMILES>  (909) 
N#Cc1ccc(CN2CCCC3(CCN(C(=O)c4cccc(F)c4)CC3)C2)cc1

>  <Name>  (909) 
nan

>  <Pocket>  (909) 
nan

>  <ATP_Site>  (909) 
nan

>  <Peripheral>  (909) 
nan

>  <Num_H_Atoms_ProtBoundConf>  (909) 
nan

>  <Num_Resolved_Atoms>  (909) 
nan

>  <Num_Not_Resolved_Atoms>  (909) 
nan

$$$$
CHEMBL1611005
     RDKit          3D

  0  0  0  0  0  0  0  0  0  0999 V3000
M  V30 BEGIN CTAB
M  V30 COUNTS 42 46 0 0 0
M  V30 BEGIN ATOM
M  V30 1 O -1.426482 -1.201646 2.733932 0
M  V30 2 C -0.498099 -2.077153 2.806497 0
M  V30 3 N 0.733309 -1.605981 2.238479 0
M  V30 4 C 0.756657 -0.292382 1.696818 0
M  V30 5 C 1.073730 0.852577 2.386277 0
M  V30 6 C 1.061999 2.096053 1.741040 0
M  V30 7 C 0.723186 2.122245 0.402026 0
M  V30 8 C 0.708723 3.414125 -0.277188 0
M  V30 9 C 0.413713 3.730637 -1.584738 0
M  V30 10 N 0.543493 5.084768 -1.729240 0
M  V30 11 C 0.354528 5.826320 -2.826475 0
M  V30 12 C 0.570383 7.186218 -2.636797 0
M  V30 13 S 1.051512 7.284483 -0.800462 0
M  V30 14 C 0.901252 5.589454 -0.571804 0
M  V30 15 N 1.006534 4.558005 0.337484 0
M  V30 16 C 0.403761 0.972889 -0.294516 0
M  V30 17 C 0.411644 -0.271354 0.336026 0
M  V30 18 C -0.745873 -3.390764 3.416735 0
M  V30 19 C -1.891817 -4.082163 2.709139 0
M  V30 20 O -1.446444 -4.582612 1.463081 0
M  V30 21 C -0.139996 -5.043008 1.277538 0
M  V30 22 C 0.070071 -5.659590 0.049574 0
M  V30 23 C 1.359916 -6.138659 -0.187767 0
M  V30 24 C 2.346018 -5.990083 0.767691 0
M  V30 25 C 2.088264 -5.370956 1.970939 0
M  V30 26 C 0.832101 -4.880046 2.255857 0
M  V30 27 O 0.406041 -4.235352 3.408485 0
M  V30 28 H 1.537111 -2.302838 2.276409 0
M  V30 29 H 1.317099 0.710117 3.407710 0
M  V30 30 H 1.321255 2.959163 2.340000 0
M  V30 31 H 0.141744 2.889277 -2.244047 0
M  V30 32 H 0.066784 5.592014 -3.840100 0
M  V30 33 H 0.494169 8.060896 -3.356741 0
M  V30 34 H 0.139809 1.017241 -1.349213 0
M  V30 35 H 0.155840 -1.149228 -0.242300 0
M  V30 36 H -1.023979 -3.244054 4.497578 0
M  V30 37 H -2.343327 -4.904444 3.309692 0
M  V30 38 H -2.702978 -3.356247 2.531064 0
M  V30 39 H -0.691486 -5.772126 -0.683443 0
M  V30 40 H 1.601401 -6.628922 -1.116804 0
M  V30 41 H 3.366996 -6.334016 0.657715 0
M  V30 42 H 2.816334 -5.225402 2.755562 0
M  V30 END ATOM
M  V30 BEGIN BOND
M  V30 1 2 1 2
M  V30 2 1 2 3
M  V30 3 1 3 4
M  V30 4 2 4 5
M  V30 5 1 5 6
M  V30 6 2 6 7
M  V30 7 1 7 8
M  V30 8 2 8 9
M  V30 9 1 9 10
M  V30 10 1 10 11
M  V30 11 2 11 12
M  V30 12 1 12 13
M  V30 13 1 13 14
M  V30 14 2 14 15
M  V30 15 1 7 16
M  V30 16 2 16 17
M  V30 17 1 2 18
M  V30 18 1 18 19
M  V30 19 1 19 20
M  V30 20 1 20 21
M  V30 21 2 21 22
M  V30 22 1 22 23
M  V30 23 2 23 24
M  V30 24 1 24 25
M  V30 25 2 25 26
M  V30 26 1 26 27
M  V30 27 1 17 4
M  V30 28 1 27 18
M  V30 29 1 15 8
M  V30 30 1 26 21
M  V30 31 1 14 10
M  V30 32 1 3 28
M  V30 33 1 5 29
M  V30 34 1 6 30
M  V30 35 1 9 31
M  V30 36 1 11 32
M  V30 37 1 12 33
M  V30 38 1 16 34
M  V30 39 1 17 35
M  V30 40 1 18 36
M  V30 41 1 19 37
M  V30 42 1 19 38
M  V30 43 1 22 39
M  V30 44 1 23 40
M  V30 45 1 24 41
M  V30 46 1 25 42
M  V30 END BOND
M  V30 END CTAB
M  END
>  <Dataset>  (910) 
ChEMBL_Kinases

>  <Ligand_Instance>  (910) 
nan

>  <PDB_ID>  (910) 
nan

>  <Standardized_SMILES>  (910) 
O=C(Nc1ccc(-c2cn3ccsc3n2)cc1)C1COc2ccccc2O1

>  <Name>  (910) 
nan

>  <Pocket>  (910) 
nan

>  <ATP_Site>  (910) 
nan

>  <Peripheral>  (910) 
nan

>  <Num_H_Atoms_ProtBoundConf>  (910) 
nan

>  <Num_Resolved_Atoms>  (910) 
nan

>  <Num_Not_Resolved_Atoms>  (910) 
nan

$$$$
CHEMBL1611088
     RDKit          3D

  0  0  0  0  0  0  0  0  0  0999 V3000
M  V30 BEGIN CTAB
M  V30 COUNTS 46 48 0 0 0
M  V30 BEGIN ATOM
M  V30 1 C -1.408687 -3.935922 2.130027 0
M  V30 2 S -2.505446 -3.086938 1.037484 0
M  V30 3 O -2.730053 -3.933606 -0.181522 0
M  V30 4 O -3.808011 -2.768381 1.754413 0
M  V30 5 N -1.854516 -1.572544 0.536273 0
M  V30 6 C -0.617396 -1.777383 -0.187395 0
M  V30 7 C -0.319358 -0.638530 -1.108880 0
M  V30 8 N -0.889721 0.596126 -0.587037 0
M  V30 9 C -0.338404 1.842302 -0.113560 0
M  V30 10 C -0.811525 2.894539 -0.896402 0
M  V30 11 C -0.417964 4.194726 -0.628180 0
M  V30 12 C 0.446651 4.425369 0.423316 0
M  V30 13 C 0.904263 3.376982 1.185838 0
M  V30 14 C 0.525672 2.082009 0.935549 0
M  V30 15 N 0.908722 0.903177 1.630140 0
M  V30 16 C 2.090021 0.316385 1.093589 0
M  V30 17 O 2.567310 0.951379 0.111044 0
M  V30 18 C 2.693995 -0.908158 1.631159 0
M  V30 19 C 2.190543 -1.618920 2.701245 0
M  V30 20 C 2.807635 -2.767438 3.160702 0
M  V30 21 C 3.969976 -3.216726 2.523119 0
M  V30 22 Cl 4.751185 -4.690305 3.121914 0
M  V30 23 C 4.484910 -2.511689 1.447869 0
M  V30 24 C 3.840535 -1.351407 1.002274 0
M  V30 25 C -2.343601 0.530928 -0.545290 0
M  V30 26 C -2.829866 -0.847006 -0.235793 0
M  V30 27 H -1.521052 -5.018322 1.949137 0
M  V30 28 H -0.348392 -3.631568 1.947320 0
M  V30 29 H -1.615541 -3.739490 3.198346 0
M  V30 30 H 0.186862 -1.892934 0.563690 0
M  V30 31 H -0.645101 -2.743437 -0.762027 0
M  V30 32 H 0.740122 -0.498246 -1.339436 0
M  V30 33 H -0.832473 -0.833743 -2.081285 0
M  V30 34 H -1.487025 2.834151 -1.738878 0
M  V30 35 H -0.740344 5.067750 -1.188994 0
M  V30 36 H 0.824513 5.396199 0.729650 0
M  V30 37 H 1.586179 3.494607 2.026506 0
M  V30 38 H 0.437002 0.447632 2.450325 0
M  V30 39 H 1.292365 -1.254495 3.178719 0
M  V30 40 H 2.373459 -3.297382 4.010831 0
M  V30 41 H 5.387853 -2.889057 0.977306 0
M  V30 42 H 4.310093 -0.851105 0.146816 0
M  V30 43 H -2.765507 1.216790 0.213866 0
M  V30 44 H -2.725757 0.886368 -1.533501 0
M  V30 45 H -3.769299 -0.862698 0.381769 0
M  V30 46 H -3.106530 -1.366458 -1.184156 0
M  V30 END ATOM
M  V30 BEGIN BOND
M  V30 1 1 1 2
M  V30 2 2 2 3
M  V30 3 2 2 4
M  V30 4 1 2 5
M  V30 5 1 5 6
M  V30 6 1 6 7
M  V30 7 1 7 8
M  V30 8 1 8 9
M  V30 9 2 9 10
M  V30 10 1 10 11
M  V30 11 2 11 12
M  V30 12 1 12 13
M  V30 13 2 13 14
M  V30 14 1 14 15
M  V30 15 1 15 16
M  V30 16 2 16 17
M  V30 17 1 16 18
M  V30 18 2 18 19
M  V30 19 1 19 20
M  V30 20 2 20 21
M  V30 21 1 21 22
M  V30 22 1 21 23
M  V30 23 2 23 24
M  V30 24 1 8 25
M  V30 25 1 25 26
M  V30 26 1 26 5
M  V30 27 1 14 9
M  V30 28 1 24 18
M  V30 29 1 1 27
M  V30 30 1 1 28
M  V30 31 1 1 29
M  V30 32 1 6 30
M  V30 33 1 6 31
M  V30 34 1 7 32
M  V30 35 1 7 33
M  V30 36 1 10 34
M  V30 37 1 11 35
M  V30 38 1 12 36
M  V30 39 1 13 37
M  V30 40 1 15 38
M  V30 41 1 19 39
M  V30 42 1 20 40
M  V30 43 1 23 41
M  V30 44 1 24 42
M  V30 45 1 25 43
M  V30 46 1 25 44
M  V30 47 1 26 45
M  V30 48 1 26 46
M  V30 END BOND
M  V30 END CTAB
M  END
>  <Dataset>  (911) 
ChEMBL_Kinases

>  <Ligand_Instance>  (911) 
nan

>  <PDB_ID>  (911) 
nan

>  <Standardized_SMILES>  (911) 
CS(=O)(=O)N1CCN(c2ccccc2NC(=O)c2ccc(Cl)cc2)CC1

>  <Name>  (911) 
nan

>  <Pocket>  (911) 
nan

>  <ATP_Site>  (911) 
nan

>  <Peripheral>  (911) 
nan

>  <Num_H_Atoms_ProtBoundConf>  (911) 
nan

>  <Num_Resolved_Atoms>  (911) 
nan

>  <Num_Not_Resolved_Atoms>  (911) 
nan

$$$$
CHEMBL1611099
     RDKit          3D

  0  0  0  0  0  0  0  0  0  0999 V3000
M  V30 BEGIN CTAB
M  V30 COUNTS 53 55 0 0 0
M  V30 BEGIN ATOM
M  V30 1 C -1.330952 -1.340492 5.688219 0
M  V30 2 C -0.006261 -0.619962 5.445485 0
M  V30 3 O 0.658525 -1.318793 4.392496 0
M  V30 4 C 1.905443 -0.848593 3.978630 0
M  V30 5 O 2.468880 0.154750 4.485055 0
M  V30 6 N 2.654311 -1.466422 2.940174 0
M  V30 7 C 3.937789 -0.888305 2.592920 0
M  V30 8 C 3.970957 -0.363713 1.162931 0
M  V30 9 C 2.684196 -0.851950 0.520421 0
M  V30 10 N 2.645795 -0.600334 -0.906747 0
M  V30 11 C 1.686462 0.337295 -1.368012 0
M  V30 12 O 0.903311 0.920355 -0.564499 0
M  V30 13 C 1.489289 0.735898 -2.776740 0
M  V30 14 S 0.214234 -0.259301 -3.549456 0
M  V30 15 C -1.393923 0.017991 -2.860286 0
M  V30 16 C -2.105389 1.060741 -3.438308 0
M  V30 17 C -3.379324 1.395490 -3.006220 0
M  V30 18 O -4.071984 2.328272 -3.489837 0
M  V30 19 N -3.935107 0.682949 -1.995856 0
M  V30 20 C -5.271738 0.959640 -1.469967 0
M  V30 21 C -3.274953 -0.346427 -1.400833 0
M  V30 22 C -3.836000 -1.080129 -0.377259 0
M  V30 23 C -3.137822 -2.137715 0.211581 0
M  V30 24 C -1.875680 -2.406436 -0.277228 0
M  V30 25 Cl -1.065654 -3.741551 0.495959 0
M  V30 26 C -1.257467 -1.703189 -1.304698 0
M  V30 27 C -2.007919 -0.672679 -1.837032 0
M  V30 28 C 2.495362 -2.336232 0.730439 0
M  V30 29 C 2.220507 -2.654163 2.187565 0
M  V30 30 H -1.162101 -2.430671 5.879527 0
M  V30 31 H -1.944924 -1.305780 4.765129 0
M  V30 32 H -1.843852 -0.876422 6.538900 0
M  V30 33 H 0.608982 -0.586525 6.350427 0
M  V30 34 H -0.275567 0.399633 5.062665 0
M  V30 35 H 4.248591 -0.125164 3.323718 0
M  V30 36 H 4.661989 -1.747708 2.612196 0
M  V30 37 H 3.924293 0.749289 1.234299 0
M  V30 38 H 4.869984 -0.657157 0.616690 0
M  V30 39 H 1.879347 -0.265708 1.043634 0
M  V30 40 H 3.268354 -1.058408 -1.600252 0
M  V30 41 H 1.267367 1.818383 -2.866010 0
M  V30 42 H 2.441062 0.527215 -3.342796 0
M  V30 43 H -1.765610 1.694174 -4.246363 0
M  V30 44 H -5.657891 1.926742 -1.906733 0
M  V30 45 H -5.271944 1.114592 -0.378281 0
M  V30 46 H -5.999754 0.177271 -1.764201 0
M  V30 47 H -4.837308 -0.843589 -0.011672 0
M  V30 48 H -3.602278 -2.689646 1.006130 0
M  V30 49 H -0.269055 -1.942426 -1.659536 0
M  V30 50 H 3.441070 -2.834549 0.394107 0
M  V30 51 H 1.695187 -2.671100 0.045076 0
M  V30 52 H 2.797536 -3.546283 2.472330 0
M  V30 53 H 1.127701 -2.797139 2.289721 0
M  V30 END ATOM
M  V30 BEGIN BOND
M  V30 1 1 1 2
M  V30 2 1 2 3
M  V30 3 1 3 4
M  V30 4 2 4 5
M  V30 5 1 4 6
M  V30 6 1 6 7
M  V30 7 1 7 8
M  V30 8 1 8 9
M  V30 9 1 9 10
M  V30 10 1 10 11
M  V30 11 2 11 12
M  V30 12 1 11 13
M  V30 13 1 13 14
M  V30 14 1 14 15
M  V30 15 2 15 16
M  V30 16 1 16 17
M  V30 17 2 17 18
M  V30 18 1 17 19
M  V30 19 1 19 20
M  V30 20 1 19 21
M  V30 21 2 21 22
M  V30 22 1 22 23
M  V30 23 2 23 24
M  V30 24 1 24 25
M  V30 25 1 24 26
M  V30 26 2 26 27
M  V30 27 1 9 28
M  V30 28 1 28 29
M  V30 29 1 29 6
M  V30 30 1 27 15
M  V30 31 1 27 21
M  V30 32 1 1 30
M  V30 33 1 1 31
M  V30 34 1 1 32
M  V30 35 1 2 33
M  V30 36 1 2 34
M  V30 37 1 7 35
M  V30 38 1 7 36
M  V30 39 1 8 37
M  V30 40 1 8 38
M  V30 41 1 9 39
M  V30 42 1 10 40
M  V30 43 1 13 41
M  V30 44 1 13 42
M  V30 45 1 16 43
M  V30 46 1 20 44
M  V30 47 1 20 45
M  V30 48 1 20 46
M  V30 49 1 22 47
M  V30 50 1 23 48
M  V30 51 1 26 49
M  V30 52 1 28 50
M  V30 53 1 28 51
M  V30 54 1 29 52
M  V30 55 1 29 53
M  V30 END BOND
M  V30 END CTAB
M  END
>  <Dataset>  (912) 
ChEMBL_Kinases

>  <Ligand_Instance>  (912) 
nan

>  <PDB_ID>  (912) 
nan

>  <Standardized_SMILES>  (912) 
CCOC(=O)N1CCC(NC(=O)CSc2cc(=O)n(C)c3ccc(Cl)cc23)CC1

>  <Name>  (912) 
nan

>  <Pocket>  (912) 
nan

>  <ATP_Site>  (912) 
nan

>  <Peripheral>  (912) 
nan

>  <Num_H_Atoms_ProtBoundConf>  (912) 
nan

>  <Num_Resolved_Atoms>  (912) 
nan

>  <Num_Not_Resolved_Atoms>  (912) 
nan

$$$$
CHEMBL1611366
     RDKit          3D

  0  0  0  0  0  0  0  0  0  0999 V3000
M  V30 BEGIN CTAB
M  V30 COUNTS 35 36 0 0 0
M  V30 BEGIN ATOM
M  V30 1 C -2.226610 -3.188367 3.461422 0
M  V30 2 C -0.802856 -3.676560 3.570251 0
M  V30 3 O -0.124537 -3.320073 2.380855 0
M  V30 4 C -0.019000 -2.008017 2.036117 0
M  V30 5 O -0.607193 -1.384116 2.950465 0
M  V30 6 C 0.650072 -1.520510 0.844113 0
M  V30 7 C 1.210350 -2.487697 0.036957 0
M  V30 8 N 1.858513 -2.146937 -1.089405 0
M  V30 9 C 1.995221 -0.868491 -1.485615 0
M  V30 10 C 2.666003 -0.524399 -2.641076 0
M  V30 11 C 2.782236 0.802594 -2.999579 0
M  V30 12 C 2.222273 1.772923 -2.191814 0
M  V30 13 Br 2.410237 3.583546 -2.728985 0
M  V30 14 C 1.565709 1.382443 -1.054393 0
M  V30 15 C 1.423907 0.071140 -0.656423 0
M  V30 16 C 0.743138 -0.190669 0.512769 0
M  V30 17 N 0.161568 0.759673 1.350921 0
M  V30 18 C -1.094108 1.434675 1.540318 0
M  V30 19 C -1.575470 2.228561 0.369776 0
M  V30 20 O -1.765175 1.446973 -0.769896 0
M  V30 21 H -2.359784 -2.341401 4.150104 0
M  V30 22 H -2.409496 -2.778602 2.441757 0
M  V30 23 H -2.951753 -4.002902 3.702555 0
M  V30 24 H -0.318920 -3.155594 4.420594 0
M  V30 25 H -0.759316 -4.778392 3.747831 0
M  V30 26 H 1.192086 -3.566230 0.209731 0
M  V30 27 H 3.098484 -1.316372 -3.259430 0
M  V30 28 H 3.313156 1.044436 -3.910508 0
M  V30 29 H 1.158373 2.181762 -0.467139 0
M  V30 30 H 0.994987 0.943350 1.968551 0
M  V30 31 H -1.916511 0.778886 1.904664 0
M  V30 32 H -0.959243 2.178701 2.379446 0
M  V30 33 H -2.581055 2.618034 0.629288 0
M  V30 34 H -0.960465 3.122142 0.157576 0
M  V30 35 H -2.120659 2.034036 -1.482507 0
M  V30 END ATOM
M  V30 BEGIN BOND
M  V30 1 1 1 2
M  V30 2 1 2 3
M  V30 3 1 3 4
M  V30 4 2 4 5
M  V30 5 1 4 6
M  V30 6 2 6 7
M  V30 7 1 7 8
M  V30 8 2 8 9
M  V30 9 1 9 10
M  V30 10 2 10 11
M  V30 11 1 11 12
M  V30 12 1 12 13
M  V30 13 2 12 14
M  V30 14 1 14 15
M  V30 15 2 15 16
M  V30 16 1 16 17
M  V30 17 1 17 18
M  V30 18 1 18 19
M  V30 19 1 19 20
M  V30 20 1 16 6
M  V30 21 1 15 9
M  V30 22 1 1 21
M  V30 23 1 1 22
M  V30 24 1 1 23
M  V30 25 1 2 24
M  V30 26 1 2 25
M  V30 27 1 7 26
M  V30 28 1 10 27
M  V30 29 1 11 28
M  V30 30 1 14 29
M  V30 31 1 17 30
M  V30 32 1 18 31
M  V30 33 1 18 32
M  V30 34 1 19 33
M  V30 35 1 19 34
M  V30 36 1 20 35
M  V30 END BOND
M  V30 END CTAB
M  END
>  <Dataset>  (913) 
ChEMBL_Kinases

>  <Ligand_Instance>  (913) 
nan

>  <PDB_ID>  (913) 
nan

>  <Standardized_SMILES>  (913) 
CCOC(=O)c1cnc2ccc(Br)cc2c1NCCO

>  <Name>  (913) 
nan

>  <Pocket>  (913) 
nan

>  <ATP_Site>  (913) 
nan

>  <Peripheral>  (913) 
nan

>  <Num_H_Atoms_ProtBoundConf>  (913) 
nan

>  <Num_Resolved_Atoms>  (913) 
nan

>  <Num_Not_Resolved_Atoms>  (913) 
nan

$$$$
CHEMBL1611622
     RDKit          3D

  0  0  0  0  0  0  0  0  0  0999 V3000
M  V30 BEGIN CTAB
M  V30 COUNTS 47 50 0 0 0
M  V30 BEGIN ATOM
M  V30 1 C 0.519393 -7.045751 3.430688 0
M  V30 2 O -0.322904 -5.924831 3.561225 0
M  V30 3 C -0.232491 -4.865008 2.676416 0
M  V30 4 C 0.568245 -4.625128 1.585500 0
M  V30 5 C 0.415121 -3.444386 0.892675 0
M  V30 6 C -0.491947 -2.438438 1.190421 0
M  V30 7 C -0.599025 -1.208461 0.425439 0
M  V30 8 O -1.490101 -1.721430 -0.275489 0
M  V30 9 N 0.080706 0.012627 0.523624 0
M  V30 10 C -0.255505 1.037490 -0.394419 0
M  V30 11 C -1.150923 0.929077 -1.433137 0
M  V30 12 C -1.479204 1.942825 -2.304797 0
M  V30 13 C -0.890902 3.197997 -2.175043 0
M  V30 14 C 0.011720 3.336206 -1.141980 0
M  V30 15 C 0.307076 2.292942 -0.296678 0
M  V30 16 C 1.288775 2.600435 0.723903 0
M  V30 17 C 1.968124 3.899096 0.940113 0
M  V30 18 C 1.565322 1.575225 1.509288 0
M  V30 19 C 1.067993 0.165420 1.552107 0
M  V30 20 C 0.405261 0.015620 2.900096 0
M  V30 21 C 2.212247 -0.808217 1.452175 0
M  V30 22 O -1.422161 3.986391 -3.187673 0
M  V30 23 C -2.678259 3.418733 -3.597199 0
M  V30 24 O -2.350626 2.030710 -3.404470 0
M  V30 25 C -1.285881 -2.729550 2.310400 0
M  V30 26 C -1.184610 -3.910911 3.062586 0
M  V30 27 H 1.410993 -6.829805 2.810184 0
M  V30 28 H 0.006662 -7.957567 3.059812 0
M  V30 29 H 0.949504 -7.283400 4.448575 0
M  V30 30 H 1.246617 -5.412173 1.387811 0
M  V30 31 H 1.077892 -3.332025 0.052362 0
M  V30 32 H -1.647401 0.010527 -1.613084 0
M  V30 33 H 0.456925 4.314287 -1.057036 0
M  V30 34 H 1.270412 4.563631 1.459492 0
M  V30 35 H 2.212866 4.383693 -0.027234 0
M  V30 36 H 2.903110 3.798332 1.505204 0
M  V30 37 H 2.287223 1.679648 2.316744 0
M  V30 38 H 0.626704 0.888701 3.585836 0
M  V30 39 H 0.663144 -0.927931 3.423677 0
M  V30 40 H -0.704496 0.058701 2.770987 0
M  V30 41 H 2.087645 -1.557162 2.253788 0
M  V30 42 H 3.133980 -0.240514 1.730118 0
M  V30 43 H 2.308421 -1.321986 0.501339 0
M  V30 44 H -3.427057 3.707741 -2.822571 0
M  V30 45 H -2.949372 3.657675 -4.622189 0
M  V30 46 H -2.008907 -1.935998 2.552075 0
M  V30 47 H -1.890222 -3.927329 3.879935 0
M  V30 END ATOM
M  V30 BEGIN BOND
M  V30 1 1 1 2
M  V30 2 1 2 3
M  V30 3 2 3 4
M  V30 4 1 4 5
M  V30 5 2 5 6
M  V30 6 1 6 7
M  V30 7 2 7 8
M  V30 8 1 7 9
M  V30 9 1 9 10
M  V30 10 2 10 11
M  V30 11 1 11 12
M  V30 12 2 12 13
M  V30 13 1 13 14
M  V30 14 2 14 15
M  V30 15 1 15 16
M  V30 16 1 16 17
M  V30 17 2 16 18
M  V30 18 1 18 19
M  V30 19 1 19 20
M  V30 20 1 19 21
M  V30 21 1 13 22
M  V30 22 1 22 23
M  V30 23 1 23 24
M  V30 24 1 6 25
M  V30 25 2 25 26
M  V30 26 1 26 3
M  V30 27 1 19 9
M  V30 28 1 15 10
M  V30 29 1 24 12
M  V30 30 1 1 27
M  V30 31 1 1 28
M  V30 32 1 1 29
M  V30 33 1 4 30
M  V30 34 1 5 31
M  V30 35 1 11 32
M  V30 36 1 14 33
M  V30 37 1 17 34
M  V30 38 1 17 35
M  V30 39 1 17 36
M  V30 40 1 18 37
M  V30 41 1 20 38
M  V30 42 1 20 39
M  V30 43 1 20 40
M  V30 44 1 21 41
M  V30 45 1 21 42
M  V30 46 1 21 43
M  V30 47 1 23 44
M  V30 48 1 23 45
M  V30 49 1 25 46
M  V30 50 1 26 47
M  V30 END BOND
M  V30 END CTAB
M  END
>  <Dataset>  (914) 
ChEMBL_Kinases

>  <Ligand_Instance>  (914) 
nan

>  <PDB_ID>  (914) 
nan

>  <Standardized_SMILES>  (914) 
COc1ccc(C(=O)N2c3cc4c(cc3C(C)=CC2(C)C)OCO4)cc1

>  <Name>  (914) 
nan

>  <Pocket>  (914) 
nan

>  <ATP_Site>  (914) 
nan

>  <Peripheral>  (914) 
nan

>  <Num_H_Atoms_ProtBoundConf>  (914) 
nan

>  <Num_Resolved_Atoms>  (914) 
nan

>  <Num_Not_Resolved_Atoms>  (914) 
nan

$$$$
CHEMBL1611646
     RDKit          3D

  0  0  0  0  0  0  0  0  0  0999 V3000
M  V30 BEGIN CTAB
M  V30 COUNTS 37 39 0 0 0
M  V30 BEGIN ATOM
M  V30 1 C 0.170617 -4.918088 2.338069 0
M  V30 2 C 0.889686 -4.295210 3.514905 0
M  V30 3 N 0.292669 -3.079650 3.968468 0
M  V30 4 C 0.151800 -1.885682 3.191627 0
M  V30 5 N -0.412876 -0.784280 3.728387 0
M  V30 6 C -0.574552 0.378125 3.078935 0
M  V30 7 C -0.131991 0.445338 1.776062 0
M  V30 8 N -0.273428 1.603775 1.110546 0
M  V30 9 C 0.140885 1.751373 -0.152648 0
M  V30 10 C -0.046008 3.039900 -0.808759 0
M  V30 11 C 0.310675 3.409056 -2.108280 0
M  V30 12 C 0.035080 4.668576 -2.497296 0
M  V30 13 C -0.591857 5.538466 -1.582780 0
M  V30 14 S -0.772392 4.409178 -0.075356 0
M  V30 15 C 0.718906 0.636973 -0.718679 0
M  V30 16 O 1.126412 0.696750 -1.883792 0
M  V30 17 N 0.872070 -0.532193 -0.077101 0
M  V30 18 C 1.498271 -1.661024 -0.739946 0
M  V30 19 C 0.448096 -2.420423 -1.493616 0
M  V30 20 C -0.621399 -2.916037 -0.650320 0
M  V30 21 N -1.477324 -3.301524 0.000017 0
M  V30 22 C 0.449548 -0.659352 1.192601 0
M  V30 23 N 0.571502 -1.785201 1.918585 0
M  V30 24 H -0.914692 -4.622715 2.393068 0
M  V30 25 H 0.149163 -6.041723 2.430277 0
M  V30 26 H 0.587925 -4.603714 1.366690 0
M  V30 27 H 1.952771 -4.118001 3.183856 0
M  V30 28 H 0.893053 -5.032141 4.341515 0
M  V30 29 H -0.086465 -3.032313 4.962632 0
M  V30 30 H -1.044188 1.208200 3.607315 0
M  V30 31 H 0.795272 2.757328 -2.834444 0
M  V30 32 H 0.224911 5.150424 -3.446477 0
M  V30 33 H -0.911617 6.613875 -1.686254 0
M  V30 34 H 2.184571 -1.213281 -1.517901 0
M  V30 35 H 2.093945 -2.274863 -0.067773 0
M  V30 36 H 0.917079 -3.286240 -2.019649 0
M  V30 37 H -0.018471 -1.800106 -2.299515 0
M  V30 END ATOM
M  V30 BEGIN BOND
M  V30 1 1 1 2
M  V30 2 1 2 3
M  V30 3 1 3 4
M  V30 4 2 4 5
M  V30 5 1 5 6
M  V30 6 2 6 7
M  V30 7 1 7 8
M  V30 8 2 8 9
M  V30 9 1 9 10
M  V30 10 2 10 11
M  V30 11 1 11 12
M  V30 12 2 12 13
M  V30 13 1 13 14
M  V30 14 1 9 15
M  V30 15 2 15 16
M  V30 16 1 15 17
M  V30 17 1 17 18
M  V30 18 1 18 19
M  V30 19 1 19 20
M  V30 20 3 20 21
M  V30 21 1 17 22
M  V30 22 2 22 23
M  V30 23 1 23 4
M  V30 24 1 22 7
M  V30 25 1 14 10
M  V30 26 1 1 24
M  V30 27 1 1 25
M  V30 28 1 1 26
M  V30 29 1 2 27
M  V30 30 1 2 28
M  V30 31 1 3 29
M  V30 32 1 6 30
M  V30 33 1 11 31
M  V30 34 1 12 32
M  V30 35 1 13 33
M  V30 36 1 18 34
M  V30 37 1 18 35
M  V30 38 1 19 36
M  V30 39 1 19 37
M  V30 END BOND
M  V30 END CTAB
M  END
>  <Dataset>  (915) 
ChEMBL_Kinases

>  <Ligand_Instance>  (915) 
nan

>  <PDB_ID>  (915) 
nan

>  <Standardized_SMILES>  (915) 
CCNc1ncc2nc(-c3cccs3)c(=O)n(CCC#N)c2n1

>  <Name>  (915) 
nan

>  <Pocket>  (915) 
nan

>  <ATP_Site>  (915) 
nan

>  <Peripheral>  (915) 
nan

>  <Num_H_Atoms_ProtBoundConf>  (915) 
nan

>  <Num_Resolved_Atoms>  (915) 
nan

>  <Num_Not_Resolved_Atoms>  (915) 
nan

$$$$
CHEMBL1611799
     RDKit          3D

  0  0  0  0  0  0  0  0  0  0999 V3000
M  V30 BEGIN CTAB
M  V30 COUNTS 49 51 0 0 0
M  V30 BEGIN ATOM
M  V30 1 C 1.013763 -4.699368 1.646986 0
M  V30 2 C 1.665868 -4.321678 0.333953 0
M  V30 3 N 2.199760 -2.982859 0.495900 0
M  V30 4 C 3.476549 -2.820768 0.948426 0
M  V30 5 O 4.124405 -3.880563 1.202419 0
M  V30 6 C 4.102825 -1.631587 1.146709 0
M  V30 7 O 5.298116 -1.593498 1.572770 0
M  V30 8 N 3.430112 -0.500209 0.882317 0
M  V30 9 C 4.020533 0.804752 1.065299 0
M  V30 10 C 4.693562 1.207955 -0.211663 0
M  V30 11 C 2.166821 -0.604888 0.433413 0
M  V30 12 C 1.419431 0.521311 0.142823 0
M  V30 13 C 0.120048 0.449037 -0.319286 0
M  V30 14 S -0.836929 1.884999 -0.691264 0
M  V30 15 O 0.143548 2.977587 -1.018581 0
M  V30 16 O -1.790850 1.627091 -1.814387 0
M  V30 17 N -1.672201 2.340424 0.750928 0
M  V30 18 C -2.605356 1.458848 1.352769 0
M  V30 19 C -2.524954 1.309076 2.741641 0
M  V30 20 C -3.379729 0.478426 3.440532 0
M  V30 21 C -4.323579 -0.201682 2.698934 0
M  V30 22 C -4.457205 -0.100741 1.335131 0
M  V30 23 O -5.425053 -0.811356 0.659056 0
M  V30 24 C -5.538709 -0.689121 -0.733124 0
M  V30 25 C -3.576071 0.748719 0.658101 0
M  V30 26 C -0.463388 -0.796559 -0.501017 0
M  V30 27 C 0.264996 -1.933791 -0.216983 0
M  V30 28 C 1.561636 -1.828980 0.243419 0
M  V30 29 H 1.818587 -4.621068 2.409517 0
M  V30 30 H 0.688162 -5.754979 1.668945 0
M  V30 31 H 0.215753 -4.008093 1.960473 0
M  V30 32 H 2.534145 -5.016279 0.231233 0
M  V30 33 H 1.045167 -4.464353 -0.547246 0
M  V30 34 H 4.860419 0.652625 1.807469 0
M  V30 35 H 3.387804 1.554092 1.535055 0
M  V30 36 H 5.077342 2.261381 -0.149157 0
M  V30 37 H 5.615127 0.580518 -0.324483 0
M  V30 38 H 4.091378 1.019405 -1.120108 0
M  V30 39 H 1.798443 1.503103 0.257211 0
M  V30 40 H -1.527211 3.259500 1.225194 0
M  V30 41 H -1.778557 1.848694 3.316599 0
M  V30 42 H -3.286513 0.390516 4.503476 0
M  V30 43 H -4.986801 -0.849864 3.264688 0
M  V30 44 H -5.985420 0.279760 -0.986167 0
M  V30 45 H -4.554115 -0.790107 -1.256024 0
M  V30 46 H -6.194003 -1.481584 -1.160291 0
M  V30 47 H -3.627904 0.871068 -0.401917 0
M  V30 48 H -1.493989 -0.875038 -0.867077 0
M  V30 49 H -0.212865 -2.877324 -0.367014 0
M  V30 END ATOM
M  V30 BEGIN BOND
M  V30 1 1 1 2
M  V30 2 1 2 3
M  V30 3 1 3 4
M  V30 4 2 4 5
M  V30 5 1 4 6
M  V30 6 2 6 7
M  V30 7 1 6 8
M  V30 8 1 8 9
M  V30 9 1 9 10
M  V30 10 1 8 11
M  V30 11 2 11 12
M  V30 12 1 12 13
M  V30 13 1 13 14
M  V30 14 2 14 15
M  V30 15 2 14 16
M  V30 16 1 14 17
M  V30 17 1 17 18
M  V30 18 2 18 19
M  V30 19 1 19 20
M  V30 20 2 20 21
M  V30 21 1 21 22
M  V30 22 1 22 23
M  V30 23 1 23 24
M  V30 24 2 22 25
M  V30 25 2 13 26
M  V30 26 1 26 27
M  V30 27 2 27 28
M  V30 28 1 28 3
M  V30 29 1 28 11
M  V30 30 1 25 18
M  V30 31 1 1 29
M  V30 32 1 1 30
M  V30 33 1 1 31
M  V30 34 1 2 32
M  V30 35 1 2 33
M  V30 36 1 9 34
M  V30 37 1 9 35
M  V30 38 1 10 36
M  V30 39 1 10 37
M  V30 40 1 10 38
M  V30 41 1 12 39
M  V30 42 1 17 40
M  V30 43 1 19 41
M  V30 44 1 20 42
M  V30 45 1 21 43
M  V30 46 1 24 44
M  V30 47 1 24 45
M  V30 48 1 24 46
M  V30 49 1 25 47
M  V30 50 1 26 48
M  V30 51 1 27 49
M  V30 END BOND
M  V30 END CTAB
M  END
>  <Dataset>  (916) 
ChEMBL_Kinases

>  <Ligand_Instance>  (916) 
nan

>  <PDB_ID>  (916) 
nan

>  <Standardized_SMILES>  (916) 
CCn1c(=O)c(=O)n(CC)c2cc(S(=O)(=O)Nc3cccc(OC)c3)ccc21

>  <Name>  (916) 
nan

>  <Pocket>  (916) 
nan

>  <ATP_Site>  (916) 
nan

>  <Peripheral>  (916) 
nan

>  <Num_H_Atoms_ProtBoundConf>  (916) 
nan

>  <Num_Resolved_Atoms>  (916) 
nan

>  <Num_Not_Resolved_Atoms>  (916) 
nan

$$$$
CHEMBL1612010
     RDKit          3D

  0  0  0  0  0  0  0  0  0  0999 V3000
M  V30 BEGIN CTAB
M  V30 COUNTS 41 44 0 0 0
M  V30 BEGIN ATOM
M  V30 1 O -0.323988 -3.607066 -0.591814 0
M  V30 2 C 0.303640 -2.631991 -0.073213 0
M  V30 3 C 1.740452 -2.846354 0.022444 0
M  V30 4 C 2.710845 -3.770459 -0.200806 0
M  V30 5 C 4.050464 -3.654062 0.076757 0
M  V30 6 C 4.439042 -2.438802 0.654198 0
M  V30 7 C 3.500422 -1.435701 0.914601 0
M  V30 8 C 2.175246 -1.669766 0.588435 0
M  V30 9 C 1.144457 -0.574283 0.772697 0
M  V30 10 N 1.431778 0.324553 -0.348816 0
M  V30 11 C 1.046070 1.636890 -0.723628 0
M  V30 12 C 1.355158 2.374366 -1.846640 0
M  V30 13 C 0.898262 3.646895 -2.012437 0
M  V30 14 C 0.100644 4.306607 -1.095205 0
M  V30 15 N -0.179018 3.574542 -0.028599 0
M  V30 16 C 0.240995 2.332519 0.180421 0
M  V30 17 N -0.057499 -1.331222 0.456011 0
M  V30 18 C -1.419578 -0.929764 0.646690 0
M  V30 19 C -2.014474 -1.199789 1.959494 0
M  V30 20 C -2.002480 -0.097253 2.831613 0
M  V30 21 C -2.484857 -0.110847 4.125295 0
M  V30 22 C -3.020897 -1.251326 4.638341 0
M  V30 23 C -3.063251 -2.357068 3.842522 0
M  V30 24 C -2.572585 -2.287641 2.572560 0
M  V30 25 Cl -2.683762 -3.718393 1.578197 0
M  V30 26 H 2.346970 -4.706992 -0.657388 0
M  V30 27 H 4.731381 -4.452919 -0.143445 0
M  V30 28 H 5.498084 -2.343682 0.875804 0
M  V30 29 H 3.945778 -0.575958 1.352551 0
M  V30 30 H 1.167851 -0.113588 1.744458 0
M  V30 31 H 2.082440 0.001819 -1.133815 0
M  V30 32 H 1.985328 1.828322 -2.552665 0
M  V30 33 H 1.238710 4.068960 -2.946641 0
M  V30 34 H -0.160349 5.301174 -1.397543 0
M  V30 35 H -0.068639 1.884675 1.091228 0
M  V30 36 H -1.522965 0.132281 0.362230 0
M  V30 37 H -2.050277 -1.451572 -0.158969 0
M  V30 38 H -1.610487 0.872562 2.556652 0
M  V30 39 H -2.464681 0.748712 4.778454 0
M  V30 40 H -3.407902 -1.306583 5.641208 0
M  V30 41 H -3.473494 -3.267846 4.203846 0
M  V30 END ATOM
M  V30 BEGIN BOND
M  V30 1 2 1 2
M  V30 2 1 2 3
M  V30 3 2 3 4
M  V30 4 1 4 5
M  V30 5 2 5 6
M  V30 6 1 6 7
M  V30 7 2 7 8
M  V30 8 1 8 9
M  V30 9 1 9 10
M  V30 10 1 10 11
M  V30 11 2 11 12
M  V30 12 1 12 13
M  V30 13 2 13 14
M  V30 14 1 14 15
M  V30 15 2 15 16
M  V30 16 1 9 17
M  V30 17 1 17 18
M  V30 18 1 18 19
M  V30 19 2 19 20
M  V30 20 1 20 21
M  V30 21 2 21 22
M  V30 22 1 22 23
M  V30 23 2 23 24
M  V30 24 1 24 25
M  V30 25 1 17 2
M  V30 26 1 24 19
M  V30 27 1 8 3
M  V30 28 1 16 11
M  V30 29 1 4 26
M  V30 30 1 5 27
M  V30 31 1 6 28
M  V30 32 1 7 29
M  V30 33 1 9 30
M  V30 34 1 10 31
M  V30 35 1 12 32
M  V30 36 1 13 33
M  V30 37 1 14 34
M  V30 38 1 16 35
M  V30 39 1 18 36
M  V30 40 1 18 37
M  V30 41 1 20 38
M  V30 42 1 21 39
M  V30 43 1 22 40
M  V30 44 1 23 41
M  V30 END BOND
M  V30 END CTAB
M  END
>  <Dataset>  (917) 
ChEMBL_Kinases

>  <Ligand_Instance>  (917) 
nan

>  <PDB_ID>  (917) 
nan

>  <Standardized_SMILES>  (917) 
O=C1c2ccccc2C(Nc2cccnc2)N1Cc1ccccc1Cl

>  <Name>  (917) 
nan

>  <Pocket>  (917) 
nan

>  <ATP_Site>  (917) 
nan

>  <Peripheral>  (917) 
nan

>  <Num_H_Atoms_ProtBoundConf>  (917) 
nan

>  <Num_Resolved_Atoms>  (917) 
nan

>  <Num_Not_Resolved_Atoms>  (917) 
nan

$$$$
CHEMBL1610822
     RDKit          3D

  0  0  0  0  0  0  0  0  0  0999 V3000
M  V30 BEGIN CTAB
M  V30 COUNTS 47 50 0 0 0
M  V30 BEGIN ATOM
M  V30 1 O -0.907804 0.126495 2.417746 0
M  V30 2 C -1.092175 -0.950430 1.796068 0
M  V30 3 N 0.028611 -1.749069 1.451816 0
M  V30 4 C 1.423175 -1.478473 1.731778 0
M  V30 5 C 1.794837 -0.181732 1.063091 0
M  V30 6 C 1.593119 -0.264420 -0.409147 0
M  V30 7 C 0.480954 0.247031 -1.057491 0
M  V30 8 C 0.365405 0.131223 -2.429427 0
M  V30 9 C 1.356136 -0.496648 -3.182039 0
M  V30 10 N 2.438364 -0.991722 -2.530979 0
M  V30 11 C 2.550689 -0.878820 -1.194831 0
M  V30 12 N 3.150850 0.227347 1.384168 0
M  V30 13 C 3.409510 1.457010 0.710023 0
M  V30 14 C 3.592006 2.672852 1.524303 0
M  V30 15 O 3.516014 2.550483 2.883018 0
M  V30 16 C 4.200033 1.396798 3.268146 0
M  V30 17 C 3.316934 0.259108 2.805375 0
M  V30 18 C -2.465893 -1.294248 1.475498 0
M  V30 19 C -3.466580 -0.410757 1.878591 0
M  V30 20 C -4.812230 -0.663692 1.611696 0
M  V30 21 C -5.204452 -1.799905 0.937439 0
M  V30 22 C -4.217123 -2.675700 0.537426 0
M  V30 23 C -2.901636 -2.404321 0.811876 0
M  V30 24 O -4.872993 -3.715340 -0.107077 0
M  V30 25 C -6.248413 -3.677293 0.236451 0
M  V30 26 O -6.442572 -2.291361 0.546631 0
M  V30 27 H -0.257111 -2.626150 0.934066 0
M  V30 28 H 2.014638 -2.320728 1.365517 0
M  V30 29 H 1.584285 -1.412637 2.827450 0
M  V30 30 H 1.145941 0.622671 1.461860 0
M  V30 31 H -0.256172 0.723029 -0.429067 0
M  V30 32 H -0.517841 0.541934 -2.909365 0
M  V30 33 H 1.165391 -0.532470 -4.247132 0
M  V30 34 H 3.456964 -1.311881 -0.792284 0
M  V30 35 H 2.656157 1.642668 -0.101097 0
M  V30 36 H 4.363292 1.287910 0.127161 0
M  V30 37 H 4.560599 3.207116 1.294260 0
M  V30 38 H 2.819273 3.446194 1.242059 0
M  V30 39 H 4.275338 1.353980 4.362389 0
M  V30 40 H 5.223421 1.353825 2.842678 0
M  V30 41 H 2.331542 0.430782 3.303979 0
M  V30 42 H 3.772110 -0.683122 3.173614 0
M  V30 43 H -3.296014 0.524668 2.419543 0
M  V30 44 H -5.594703 0.022460 1.924247 0
M  V30 45 H -2.174380 -3.106766 0.485043 0
M  V30 46 H -6.907014 -4.046112 -0.547619 0
M  V30 47 H -6.360396 -4.206055 1.224145 0
M  V30 END ATOM
M  V30 BEGIN BOND
M  V30 1 2 1 2
M  V30 2 1 2 3
M  V30 3 1 3 4
M  V30 4 1 4 5
M  V30 5 1 5 6
M  V30 6 2 6 7
M  V30 7 1 7 8
M  V30 8 2 8 9
M  V30 9 1 9 10
M  V30 10 2 10 11
M  V30 11 1 5 12
M  V30 12 1 12 13
M  V30 13 1 13 14
M  V30 14 1 14 15
M  V30 15 1 15 16
M  V30 16 1 16 17
M  V30 17 1 2 18
M  V30 18 2 18 19
M  V30 19 1 19 20
M  V30 20 2 20 21
M  V30 21 1 21 22
M  V30 22 2 22 23
M  V30 23 1 22 24
M  V30 24 1 24 25
M  V30 25 1 25 26
M  V30 26 1 11 6
M  V30 27 1 17 12
M  V30 28 1 23 18
M  V30 29 1 26 21
M  V30 30 1 3 27
M  V30 31 1 4 28
M  V30 32 1 4 29
M  V30 33 1 5 30
M  V30 34 1 7 31
M  V30 35 1 8 32
M  V30 36 1 9 33
M  V30 37 1 11 34
M  V30 38 1 13 35
M  V30 39 1 13 36
M  V30 40 1 14 37
M  V30 41 1 14 38
M  V30 42 1 16 39
M  V30 43 1 16 40
M  V30 44 1 17 41
M  V30 45 1 17 42
M  V30 46 1 19 43
M  V30 47 1 20 44
M  V30 48 1 23 45
M  V30 49 1 25 46
M  V30 50 1 25 47
M  V30 END BOND
M  V30 END CTAB
M  END
>  <Dataset>  (918) 
ChEMBL_Kinases

>  <Ligand_Instance>  (918) 
nan

>  <PDB_ID>  (918) 
nan

>  <Standardized_SMILES>  (918) 
O=C(NCC(c1cccnc1)N1CCOCC1)c1ccc2c(c1)OCO2

>  <Name>  (918) 
nan

>  <Pocket>  (918) 
nan

>  <ATP_Site>  (918) 
nan

>  <Peripheral>  (918) 
nan

>  <Num_H_Atoms_ProtBoundConf>  (918) 
nan

>  <Num_Resolved_Atoms>  (918) 
nan

>  <Num_Not_Resolved_Atoms>  (918) 
nan

$$$$
CHEMBL1650540
     RDKit          3D

  0  0  0  0  0  0  0  0  0  0999 V3000
M  V30 BEGIN CTAB
M  V30 COUNTS 50 54 0 0 0
M  V30 BEGIN ATOM
M  V30 1 C -1.143121 2.991168 -1.363835 0
M  V30 2 C -0.191420 2.519301 -0.327016 0
M  V30 3 C 1.157973 2.413493 -0.573699 0
M  V30 4 N 2.064106 1.997133 0.318550 0
M  V30 5 C 3.387139 1.852856 0.194609 0
M  V30 6 C 4.333515 2.067460 -0.874079 0
M  V30 7 C 5.698008 1.814620 -0.699755 0
M  V30 8 N 6.377476 2.092109 -1.837922 0
M  V30 9 N 5.528170 2.514876 -2.752574 0
M  V30 10 C 4.317968 2.497386 -2.173591 0
M  V30 11 C 3.753281 1.392774 1.444491 0
M  V30 12 N 2.667078 1.288040 2.229409 0
M  V30 13 C 1.602979 1.663881 1.534937 0
M  V30 14 C 0.264792 1.746328 1.847958 0
M  V30 15 N -0.242364 1.403570 3.131276 0
M  V30 16 C -0.500064 -0.037890 3.363224 0
M  V30 17 C -0.226122 -1.004302 2.414766 0
M  V30 18 C -0.552299 -2.254173 2.880297 0
M  V30 19 C -0.398840 -3.555308 2.139359 0
M  V30 20 N -1.593832 -3.816195 1.435069 0
M  V30 21 C -2.796989 -3.931489 2.146683 0
M  V30 22 C -3.952468 -4.499872 1.402504 0
M  V30 23 C -4.013630 -3.871100 0.021981 0
M  V30 24 C -2.728471 -4.322268 -0.681829 0
M  V30 25 F -2.665070 -5.686693 -0.548328 0
M  V30 26 F -2.740111 -3.902971 -1.996726 0
M  V30 27 C -1.608644 -3.654415 0.040227 0
M  V30 28 N -1.093560 -2.497166 4.157352 0
M  V30 29 S -1.116852 -0.719975 4.706058 0
M  V30 30 N -0.620747 2.170673 0.921558 0
M  V30 31 H -0.935913 2.585438 -2.361129 0
M  V30 32 H -1.074540 4.085767 -1.400791 0
M  V30 33 H -2.182849 2.736389 -1.077404 0
M  V30 34 H 1.466687 2.689099 -1.547625 0
M  V30 35 H 6.272429 1.454657 0.139207 0
M  V30 36 H 5.738605 2.806472 -3.730764 0
M  V30 37 H 3.428532 2.794293 -2.692041 0
M  V30 38 H 4.706789 1.112478 1.889297 0
M  V30 39 H -0.444270 2.067226 3.909017 0
M  V30 40 H 0.182959 -0.892492 1.428442 0
M  V30 41 H -0.025103 -4.360311 2.772007 0
M  V30 42 H 0.411708 -3.355393 1.371816 0
M  V30 43 H -2.624427 -4.623507 3.020254 0
M  V30 44 H -3.104111 -2.947870 2.577331 0
M  V30 45 H -4.880411 -4.279214 1.976284 0
M  V30 46 H -3.832494 -5.600024 1.318790 0
M  V30 47 H -3.985955 -2.771763 0.139877 0
M  V30 48 H -4.908704 -4.249624 -0.477766 0
M  V30 49 H -0.610585 -3.999965 -0.354613 0
M  V30 50 H -1.664706 -2.564945 -0.231875 0
M  V30 END ATOM
M  V30 BEGIN BOND
M  V30 1 1 1 2
M  V30 2 2 2 3
M  V30 3 1 3 4
M  V30 4 1 4 5
M  V30 5 1 5 6
M  V30 6 1 6 7
M  V30 7 2 7 8
M  V30 8 1 8 9
M  V30 9 1 9 10
M  V30 10 2 5 11
M  V30 11 1 11 12
M  V30 12 2 12 13
M  V30 13 1 13 14
M  V30 14 1 14 15
M  V30 15 1 15 16
M  V30 16 2 16 17
M  V30 17 1 17 18
M  V30 18 1 18 19
M  V30 19 1 19 20
M  V30 20 1 20 21
M  V30 21 1 21 22
M  V30 22 1 22 23
M  V30 23 1 23 24
M  V30 24 1 24 25
M  V30 25 1 24 26
M  V30 26 1 24 27
M  V30 27 2 18 28
M  V30 28 1 28 29
M  V30 29 2 14 30
M  V30 30 1 30 2
M  V30 31 1 13 4
M  V30 32 1 29 16
M  V30 33 2 10 6
M  V30 34 1 27 20
M  V30 35 1 1 31
M  V30 36 1 1 32
M  V30 37 1 1 33
M  V30 38 1 3 34
M  V30 39 1 7 35
M  V30 40 1 9 36
M  V30 41 1 10 37
M  V30 42 1 11 38
M  V30 43 1 15 39
M  V30 44 1 17 40
M  V30 45 1 19 41
M  V30 46 1 19 42
M  V30 47 1 21 43
M  V30 48 1 21 44
M  V30 49 1 22 45
M  V30 50 1 22 46
M  V30 51 1 23 47
M  V30 52 1 23 48
M  V30 53 1 27 49
M  V30 54 1 27 50
M  V30 END BOND
M  V30 END CTAB
M  END
>  <Dataset>  (919) 
ChEMBL_Kinases

>  <Ligand_Instance>  (919) 
nan

>  <PDB_ID>  (919) 
nan

>  <Standardized_SMILES>  (919) 
Cc1cn2c(-c3cn[nH]c3)cnc2c(Nc2cc(CN3CCCC(F)(F)C3)ns2)n1

>  <Name>  (919) 
nan

>  <Pocket>  (919) 
nan

>  <ATP_Site>  (919) 
nan

>  <Peripheral>  (919) 
nan

>  <Num_H_Atoms_ProtBoundConf>  (919) 
nan

>  <Num_Resolved_Atoms>  (919) 
nan

>  <Num_Not_Resolved_Atoms>  (919) 
nan

$$$$
CHEMBL1650539
     RDKit          3D

  0  0  0  0  0  0  0  0  0  0999 V3000
M  V30 BEGIN CTAB
M  V30 COUNTS 50 54 0 0 0
M  V30 BEGIN ATOM
M  V30 1 C -2.892944 3.181390 2.034175 0
M  V30 2 C -1.512246 2.622115 1.956575 0
M  V30 3 C -0.650245 2.858921 0.906523 0
M  V30 4 N 0.580562 2.324205 0.903279 0
M  V30 5 C 1.565791 2.422539 0.002423 0
M  V30 6 C 1.707864 3.099610 -1.266715 0
M  V30 7 C 2.873808 3.028312 -2.013376 0
M  V30 8 N 2.781334 3.728585 -3.152518 0
M  V30 9 N 1.586605 4.273350 -3.201042 0
M  V30 10 C 0.950594 3.898867 -2.080325 0
M  V30 11 C 2.569778 1.665049 0.556155 0
M  V30 12 N 2.173554 1.149931 1.732144 0
M  V30 13 C 0.936862 1.558484 1.949358 0
M  V30 14 C 0.116924 1.290213 3.022211 0
M  V30 15 N 0.525323 0.449783 4.124335 0
M  V30 16 C 1.053667 -0.808395 3.523025 0
M  V30 17 C 0.141077 -1.791807 3.238328 0
M  V30 18 C 0.748475 -2.892465 2.695628 0
M  V30 19 C 0.014916 -4.146930 2.274294 0
M  V30 20 N -0.447987 -4.049727 0.927729 0
M  V30 21 C 0.620464 -3.843026 -0.014724 0
M  V30 22 C 0.034586 -3.558821 -1.398917 0
M  V30 23 C -1.461252 -3.813081 -1.401458 0
M  V30 24 C -1.709384 -5.195556 -0.826537 0
M  V30 25 F -3.066862 -5.434418 -0.734089 0
M  V30 26 C -1.092135 -5.297957 0.558094 0
M  V30 27 N 2.091600 -2.996490 2.468073 0
M  V30 28 S 2.610520 -1.331710 3.092163 0
M  V30 29 N -1.122967 1.850394 2.988939 0
M  V30 30 H -3.152928 3.324062 3.102671 0
M  V30 31 H -2.942564 4.149771 1.489131 0
M  V30 32 H -3.582152 2.406530 1.610797 0
M  V30 33 H -0.961466 3.474766 0.087169 0
M  V30 34 H 3.818843 2.515528 -1.836651 0
M  V30 35 H 1.221533 4.867996 -3.958111 0
M  V30 36 H -0.054978 4.201346 -1.858611 0
M  V30 37 H 3.582255 1.420678 0.224646 0
M  V30 38 H 0.445841 0.720398 5.131969 0
M  V30 39 H -0.928092 -1.768547 3.391809 0
M  V30 40 H 0.574014 -5.062284 2.457301 0
M  V30 41 H -0.882803 -4.207390 2.970586 0
M  V30 42 H 1.229255 -4.756984 -0.080801 0
M  V30 43 H 1.314461 -3.012775 0.271795 0
M  V30 44 H 0.174024 -2.499964 -1.696363 0
M  V30 45 H 0.499528 -4.190878 -2.169933 0
M  V30 46 H -2.000094 -3.040415 -0.796373 0
M  V30 47 H -1.796142 -3.779717 -2.454484 0
M  V30 48 H -1.254990 -5.951285 -1.467902 0
M  V30 49 H -1.844452 -5.617403 1.306955 0
M  V30 50 H -0.285856 -6.076238 0.579912 0
M  V30 END ATOM
M  V30 BEGIN BOND
M  V30 1 1 1 2
M  V30 2 2 2 3
M  V30 3 1 3 4
M  V30 4 1 4 5
M  V30 5 1 5 6
M  V30 6 1 6 7
M  V30 7 2 7 8
M  V30 8 1 8 9
M  V30 9 1 9 10
M  V30 10 2 5 11
M  V30 11 1 11 12
M  V30 12 2 12 13
M  V30 13 1 13 14
M  V30 14 1 14 15
M  V30 15 1 15 16
M  V30 16 2 16 17
M  V30 17 1 17 18
M  V30 18 1 18 19
M  V30 19 1 19 20
M  V30 20 1 20 21
M  V30 21 1 21 22
M  V30 22 1 22 23
M  V30 23 1 23 24
M  V30 24 1 24 25
M  V30 25 1 24 26
M  V30 26 2 18 27
M  V30 27 1 27 28
M  V30 28 2 14 29
M  V30 29 1 29 2
M  V30 30 1 13 4
M  V30 31 1 28 16
M  V30 32 2 10 6
M  V30 33 1 26 20
M  V30 34 1 1 30
M  V30 35 1 1 31
M  V30 36 1 1 32
M  V30 37 1 3 33
M  V30 38 1 7 34
M  V30 39 1 9 35
M  V30 40 1 10 36
M  V30 41 1 11 37
M  V30 42 1 15 38
M  V30 43 1 17 39
M  V30 44 1 19 40
M  V30 45 1 19 41
M  V30 46 1 21 42
M  V30 47 1 21 43
M  V30 48 1 22 44
M  V30 49 1 22 45
M  V30 50 1 23 46
M  V30 51 1 23 47
M  V30 52 1 24 48
M  V30 53 1 26 49
M  V30 54 1 26 50
M  V30 END BOND
M  V30 END CTAB
M  END
>  <Dataset>  (920) 
ChEMBL_Kinases

>  <Ligand_Instance>  (920) 
nan

>  <PDB_ID>  (920) 
nan

>  <Standardized_SMILES>  (920) 
Cc1cn2c(-c3cn[nH]c3)cnc2c(Nc2cc(CN3CCCC(F)C3)ns2)n1

>  <Name>  (920) 
nan

>  <Pocket>  (920) 
nan

>  <ATP_Site>  (920) 
nan

>  <Peripheral>  (920) 
nan

>  <Num_H_Atoms_ProtBoundConf>  (920) 
nan

>  <Num_Resolved_Atoms>  (920) 
nan

>  <Num_Not_Resolved_Atoms>  (920) 
nan

$$$$
CHEMBL1650538
     RDKit          3D

  0  0  0  0  0  0  0  0  0  0999 V3000
M  V30 BEGIN CTAB
M  V30 COUNTS 50 54 0 0 0
M  V30 BEGIN ATOM
M  V30 1 C -1.523800 3.485675 -0.584750 0
M  V30 2 C -0.426560 2.864425 0.184045 0
M  V30 3 C 0.867469 2.782512 -0.274589 0
M  V30 4 N 1.894310 2.245376 0.356917 0
M  V30 5 C 3.177935 2.107688 0.009357 0
M  V30 6 C 3.937597 2.480447 -1.162536 0
M  V30 7 C 5.305043 2.192772 -1.253803 0
M  V30 8 N 5.811835 2.633144 -2.436591 0
M  V30 9 N 4.835218 3.195460 -3.121168 0
M  V30 10 C 3.730834 3.103755 -2.366475 0
M  V30 11 C 3.744346 1.459670 1.091664 0
M  V30 12 N 2.777367 1.244238 2.025474 0
M  V30 13 C 1.635277 1.730286 1.569068 0
M  V30 14 C 0.370692 1.764794 2.112312 0
M  V30 15 N 0.035145 1.244761 3.391233 0
M  V30 16 C -0.201606 -0.196890 3.561140 0
M  V30 17 C -0.037705 -1.092668 2.535841 0
M  V30 18 C -0.318664 -2.375970 2.925885 0
M  V30 19 C -0.215058 -3.560115 2.015246 0
M  V30 20 N -1.412318 -3.796996 1.315205 0
M  V30 21 C -2.597644 -4.063249 2.003440 0
M  V30 22 C -3.607638 -4.954492 1.375386 0
M  V30 23 C -3.364461 -5.350565 -0.037391 0
M  V30 24 F -2.688484 -6.543856 -0.186679 0
M  V30 25 F -4.574842 -5.501390 -0.728912 0
M  V30 26 C -2.634924 -4.245149 -0.752071 0
M  V30 27 C -1.318514 -3.974514 -0.074061 0
M  V30 28 N -0.726278 -2.718918 4.226198 0
M  V30 29 S -0.686812 -0.996924 4.920309 0
M  V30 30 N -0.641284 2.329342 1.415424 0
M  V30 31 H -2.512345 3.095866 -0.323381 0
M  V30 32 H -1.394968 3.322241 -1.681197 0
M  V30 33 H -1.559081 4.587584 -0.435601 0
M  V30 34 H 1.025988 3.207940 -1.248682 0
M  V30 35 H 6.005431 1.710639 -0.598687 0
M  V30 36 H 4.873737 3.637269 -4.069152 0
M  V30 37 H 2.773623 3.480734 -2.670755 0
M  V30 38 H 4.726989 1.115871 1.325681 0
M  V30 39 H -0.048675 1.871325 4.224519 0
M  V30 40 H 0.271933 -0.846790 1.537987 0
M  V30 41 H 0.127232 -4.457330 2.553735 0
M  V30 42 H 0.583003 -3.302074 1.259589 0
M  V30 43 H -2.341668 -4.519760 2.990950 0
M  V30 44 H -3.057619 -3.069532 2.305634 0
M  V30 45 H -4.596090 -4.402823 1.374946 0
M  V30 46 H -3.844402 -5.864377 2.005500 0
M  V30 47 H -3.291384 -3.356049 -0.756448 0
M  V30 48 H -2.460475 -4.554089 -1.796696 0
M  V30 49 H -0.591181 -4.772776 -0.344446 0
M  V30 50 H -0.935004 -3.017956 -0.539349 0
M  V30 END ATOM
M  V30 BEGIN BOND
M  V30 1 1 1 2
M  V30 2 2 2 3
M  V30 3 1 3 4
M  V30 4 1 4 5
M  V30 5 1 5 6
M  V30 6 1 6 7
M  V30 7 2 7 8
M  V30 8 1 8 9
M  V30 9 1 9 10
M  V30 10 2 5 11
M  V30 11 1 11 12
M  V30 12 2 12 13
M  V30 13 1 13 14
M  V30 14 1 14 15
M  V30 15 1 15 16
M  V30 16 2 16 17
M  V30 17 1 17 18
M  V30 18 1 18 19
M  V30 19 1 19 20
M  V30 20 1 20 21
M  V30 21 1 21 22
M  V30 22 1 22 23
M  V30 23 1 23 24
M  V30 24 1 23 25
M  V30 25 1 23 26
M  V30 26 1 26 27
M  V30 27 2 18 28
M  V30 28 1 28 29
M  V30 29 2 14 30
M  V30 30 1 30 2
M  V30 31 1 13 4
M  V30 32 1 29 16
M  V30 33 2 10 6
M  V30 34 1 27 20
M  V30 35 1 1 31
M  V30 36 1 1 32
M  V30 37 1 1 33
M  V30 38 1 3 34
M  V30 39 1 7 35
M  V30 40 1 9 36
M  V30 41 1 10 37
M  V30 42 1 11 38
M  V30 43 1 15 39
M  V30 44 1 17 40
M  V30 45 1 19 41
M  V30 46 1 19 42
M  V30 47 1 21 43
M  V30 48 1 21 44
M  V30 49 1 22 45
M  V30 50 1 22 46
M  V30 51 1 26 47
M  V30 52 1 26 48
M  V30 53 1 27 49
M  V30 54 1 27 50
M  V30 END BOND
M  V30 END CTAB
M  END
>  <Dataset>  (921) 
ChEMBL_Kinases

>  <Ligand_Instance>  (921) 
nan

>  <PDB_ID>  (921) 
nan

>  <Standardized_SMILES>  (921) 
Cc1cn2c(-c3cn[nH]c3)cnc2c(Nc2cc(CN3CCC(F)(F)CC3)ns2)n1

>  <Name>  (921) 
nan

>  <Pocket>  (921) 
nan

>  <ATP_Site>  (921) 
nan

>  <Peripheral>  (921) 
nan

>  <Num_H_Atoms_ProtBoundConf>  (921) 
nan

>  <Num_Resolved_Atoms>  (921) 
nan

>  <Num_Not_Resolved_Atoms>  (921) 
nan

$$$$
CHEMBL1650537
     RDKit          3D

  0  0  0  0  0  0  0  0  0  0999 V3000
M  V30 BEGIN CTAB
M  V30 COUNTS 50 54 0 0 0
M  V30 BEGIN ATOM
M  V30 1 C -0.456514 3.677218 3.561637 0
M  V30 2 C 0.384120 2.531645 3.128436 0
M  V30 3 C 1.365699 2.646311 2.175209 0
M  V30 4 N 2.145891 1.637914 1.761031 0
M  V30 5 C 3.117110 1.647050 0.846353 0
M  V30 6 C 3.707442 2.635834 -0.019350 0
M  V30 7 C 4.737181 2.354775 -0.904107 0
M  V30 8 N 5.108635 3.442940 -1.593039 0
M  V30 9 N 4.368527 4.471820 -1.214579 0
M  V30 10 C 3.543752 3.973731 -0.280964 0
M  V30 11 C 3.557746 0.326348 0.844947 0
M  V30 12 N 2.842552 -0.363838 1.731700 0
M  V30 13 C 1.934897 0.440249 2.332915 0
M  V30 14 C 0.952194 0.271568 3.304242 0
M  V30 15 N 0.907819 -1.065132 3.784796 0
M  V30 16 C 0.548568 -2.200534 2.957105 0
M  V30 17 C 0.201362 -2.231098 1.658338 0
M  V30 18 C -0.065878 -3.446088 1.129889 0
M  V30 19 C -0.465938 -3.685058 -0.285246 0
M  V30 20 N -1.888559 -3.742028 -0.490067 0
M  V30 21 C -2.611335 -2.568243 -0.108775 0
M  V30 22 C -4.004025 -2.545105 -0.750319 0
M  V30 23 C -4.361377 -3.972784 -1.131472 0
M  V30 24 F -4.138400 -4.838105 -0.071638 0
M  V30 25 C -3.460316 -4.397478 -2.252975 0
M  V30 26 C -2.058154 -3.921726 -1.944246 0
M  V30 27 N 0.022141 -4.576411 1.913828 0
M  V30 28 S 0.534312 -3.806205 3.545129 0
M  V30 29 N 0.204173 1.297161 3.682761 0
M  V30 30 H -1.227731 3.286000 4.252196 0
M  V30 31 H -0.908380 4.152232 2.666628 0
M  V30 32 H 0.161250 4.411269 4.152776 0
M  V30 33 H 1.484895 3.611099 1.764139 0
M  V30 34 H 5.276481 1.419824 -1.122871 0
M  V30 35 H 4.415528 5.449906 -1.563059 0
M  V30 36 H 2.819795 4.601419 0.206729 0
M  V30 37 H 4.326811 -0.240187 0.298732 0
M  V30 38 H 1.151635 -1.180500 4.780053 0
M  V30 39 H 0.152291 -1.309512 1.100405 0
M  V30 40 H -0.101507 -2.851235 -0.944700 0
M  V30 41 H -0.013621 -4.591624 -0.702398 0
M  V30 42 H -2.086326 -1.671080 -0.474675 0
M  V30 43 H -2.783578 -2.582035 0.988682 0
M  V30 44 H -3.933603 -1.992148 -1.697634 0
M  V30 45 H -4.726759 -2.117515 -0.038249 0
M  V30 46 H -5.422383 -4.004690 -1.456840 0
M  V30 47 H -3.774475 -3.906908 -3.194349 0
M  V30 48 H -3.477311 -5.483036 -2.467558 0
M  V30 49 H -1.309180 -4.673176 -2.245570 0
M  V30 50 H -1.795936 -2.964273 -2.444712 0
M  V30 END ATOM
M  V30 BEGIN BOND
M  V30 1 1 1 2
M  V30 2 2 2 3
M  V30 3 1 3 4
M  V30 4 1 4 5
M  V30 5 1 5 6
M  V30 6 1 6 7
M  V30 7 2 7 8
M  V30 8 1 8 9
M  V30 9 1 9 10
M  V30 10 2 5 11
M  V30 11 1 11 12
M  V30 12 2 12 13
M  V30 13 1 13 14
M  V30 14 1 14 15
M  V30 15 1 15 16
M  V30 16 2 16 17
M  V30 17 1 17 18
M  V30 18 1 18 19
M  V30 19 1 19 20
M  V30 20 1 20 21
M  V30 21 1 21 22
M  V30 22 1 22 23
M  V30 23 1 23 24
M  V30 24 1 23 25
M  V30 25 1 25 26
M  V30 26 2 18 27
M  V30 27 1 27 28
M  V30 28 2 14 29
M  V30 29 1 29 2
M  V30 30 1 13 4
M  V30 31 1 28 16
M  V30 32 2 10 6
M  V30 33 1 26 20
M  V30 34 1 1 30
M  V30 35 1 1 31
M  V30 36 1 1 32
M  V30 37 1 3 33
M  V30 38 1 7 34
M  V30 39 1 9 35
M  V30 40 1 10 36
M  V30 41 1 11 37
M  V30 42 1 15 38
M  V30 43 1 17 39
M  V30 44 1 19 40
M  V30 45 1 19 41
M  V30 46 1 21 42
M  V30 47 1 21 43
M  V30 48 1 22 44
M  V30 49 1 22 45
M  V30 50 1 23 46
M  V30 51 1 25 47
M  V30 52 1 25 48
M  V30 53 1 26 49
M  V30 54 1 26 50
M  V30 END BOND
M  V30 END CTAB
M  END
>  <Dataset>  (922) 
ChEMBL_Kinases

>  <Ligand_Instance>  (922) 
nan

>  <PDB_ID>  (922) 
nan

>  <Standardized_SMILES>  (922) 
Cc1cn2c(-c3cn[nH]c3)cnc2c(Nc2cc(CN3CCC(F)CC3)ns2)n1

>  <Name>  (922) 
nan

>  <Pocket>  (922) 
nan

>  <ATP_Site>  (922) 
nan

>  <Peripheral>  (922) 
nan

>  <Num_H_Atoms_ProtBoundConf>  (922) 
nan

>  <Num_Resolved_Atoms>  (922) 
nan

>  <Num_Not_Resolved_Atoms>  (922) 
nan

$$$$
CHEMBL1650535
     RDKit          3D

  0  0  0  0  0  0  0  0  0  0999 V3000
M  V30 BEGIN CTAB
M  V30 COUNTS 56 59 0 0 0
M  V30 BEGIN ATOM
M  V30 1 C 0.888427 -1.226307 3.582887 0
M  V30 2 C 1.461699 -0.045131 2.879761 0
M  V30 3 C 2.538647 0.700194 3.294527 0
M  V30 4 N 3.024781 1.748032 2.643977 0
M  V30 5 C 4.042196 2.583113 2.881813 0
M  V30 6 C 4.997154 2.634182 3.969324 0
M  V30 7 C 5.281111 1.944753 5.120290 0
M  V30 8 N 6.331846 2.468243 5.768407 0
M  V30 9 N 6.788646 3.508788 5.095559 0
M  V30 10 C 5.997139 3.612482 4.022491 0
M  V30 11 C 4.007017 3.455110 1.812968 0
M  V30 12 N 3.011972 3.129473 1.001978 0
M  V30 13 C 2.372908 2.047424 1.508915 0
M  V30 14 C 1.287455 1.378090 0.994263 0
M  V30 15 N 0.675545 1.784209 -0.220886 0
M  V30 16 C -0.442036 1.129133 -0.779353 0
M  V30 17 C -1.171028 0.027953 -0.331631 0
M  V30 18 C -2.202214 -0.353510 -1.116493 0
M  V30 19 C -3.150498 -1.477226 -0.916196 0
M  V30 20 N -2.794521 -2.701827 -1.498897 0
M  V30 21 C -1.617462 -3.355221 -1.102963 0
M  V30 22 C -1.592649 -3.924510 0.291261 0
M  V30 23 F -0.362207 -4.548944 0.552309 0
M  V30 24 F -1.707782 -2.979905 1.287884 0
M  V30 25 F -2.632425 -4.815930 0.507416 0
M  V30 26 C -3.620174 -3.295789 -2.460000 0
M  V30 27 C -3.118578 -4.605418 -3.021626 0
M  V30 28 C -5.001535 -3.576836 -1.908025 0
M  V30 29 C -3.826577 -2.406962 -3.688690 0
M  V30 30 O -4.673976 -3.173996 -4.522381 0
M  V30 31 N -2.478460 0.358375 -2.308584 0
M  V30 32 S -1.166426 1.664100 -2.298974 0
M  V30 33 N 0.883534 0.339803 1.732384 0
M  V30 34 H 0.017312 -0.882653 4.146388 0
M  V30 35 H 1.662483 -1.657778 4.251296 0
M  V30 36 H 0.611827 -2.042361 2.887306 0
M  V30 37 H 2.996470 0.390614 4.208342 0
M  V30 38 H 4.733789 1.096269 5.457926 0
M  V30 39 H 7.596639 4.077921 5.399356 0
M  V30 40 H 6.204995 4.425286 3.318219 0
M  V30 41 H 4.656110 4.298422 1.600259 0
M  V30 42 H 1.090216 2.609255 -0.705147 0
M  V30 43 H -0.966347 -0.506754 0.561734 0
M  V30 44 H -4.184387 -1.214137 -1.181359 0
M  V30 45 H -3.188502 -1.630279 0.203061 0
M  V30 46 H -0.800068 -2.567413 -1.104487 0
M  V30 47 H -1.228656 -4.102125 -1.834781 0
M  V30 48 H -3.940969 -4.997843 -3.669678 0
M  V30 49 H -2.945885 -5.382522 -2.272399 0
M  V30 50 H -2.282154 -4.396616 -3.691041 0
M  V30 51 H -5.168743 -4.663468 -1.747363 0
M  V30 52 H -5.798260 -3.270729 -2.620237 0
M  V30 53 H -5.112308 -3.002299 -0.955545 0
M  V30 54 H -2.866032 -2.360173 -4.214204 0
M  V30 55 H -4.290884 -1.454969 -3.429991 0
M  V30 56 H -4.204670 -3.597457 -5.258524 0
M  V30 END ATOM
M  V30 BEGIN BOND
M  V30 1 1 1 2
M  V30 2 2 2 3
M  V30 3 1 3 4
M  V30 4 1 4 5
M  V30 5 1 5 6
M  V30 6 1 6 7
M  V30 7 2 7 8
M  V30 8 1 8 9
M  V30 9 1 9 10
M  V30 10 2 5 11
M  V30 11 1 11 12
M  V30 12 2 12 13
M  V30 13 1 13 14
M  V30 14 1 14 15
M  V30 15 1 15 16
M  V30 16 2 16 17
M  V30 17 1 17 18
M  V30 18 1 18 19
M  V30 19 1 19 20
M  V30 20 1 20 21
M  V30 21 1 21 22
M  V30 22 1 22 23
M  V30 23 1 22 24
M  V30 24 1 22 25
M  V30 25 1 20 26
M  V30 26 1 26 27
M  V30 27 1 26 28
M  V30 28 1 26 29
M  V30 29 1 29 30
M  V30 30 2 18 31
M  V30 31 1 31 32
M  V30 32 2 14 33
M  V30 33 1 33 2
M  V30 34 1 13 4
M  V30 35 1 32 16
M  V30 36 2 10 6
M  V30 37 1 1 34
M  V30 38 1 1 35
M  V30 39 1 1 36
M  V30 40 1 3 37
M  V30 41 1 7 38
M  V30 42 1 9 39
M  V30 43 1 10 40
M  V30 44 1 11 41
M  V30 45 1 15 42
M  V30 46 1 17 43
M  V30 47 1 19 44
M  V30 48 1 19 45
M  V30 49 1 21 46
M  V30 50 1 21 47
M  V30 51 1 27 48
M  V30 52 1 27 49
M  V30 53 1 27 50
M  V30 54 1 28 51
M  V30 55 1 28 52
M  V30 56 1 28 53
M  V30 57 1 29 54
M  V30 58 1 29 55
M  V30 59 1 30 56
M  V30 END BOND
M  V30 END CTAB
M  END
>  <Dataset>  (923) 
ChEMBL_Kinases

>  <Ligand_Instance>  (923) 
nan

>  <PDB_ID>  (923) 
nan

>  <Standardized_SMILES>  (923) 
Cc1cn2c(-c3cn[nH]c3)cnc2c(Nc2cc(CN(CC(F)(F)F)C(C)(C)CO)ns2)n1

>  <Name>  (923) 
nan

>  <Pocket>  (923) 
nan

>  <ATP_Site>  (923) 
nan

>  <Peripheral>  (923) 
nan

>  <Num_H_Atoms_ProtBoundConf>  (923) 
nan

>  <Num_Resolved_Atoms>  (923) 
nan

>  <Num_Not_Resolved_Atoms>  (923) 
nan

$$$$
CHEMBL1650534
     RDKit          3D

  0  0  0  0  0  0  0  0  0  0999 V3000
M  V30 BEGIN CTAB
M  V30 COUNTS 56 59 0 0 0
M  V30 BEGIN ATOM
M  V30 1 C 0.245852 4.092146 1.834009 0
M  V30 2 C 1.014486 3.005906 1.180073 0
M  V30 3 C 1.994439 2.249042 1.774847 0
M  V30 4 N 2.638136 1.279548 1.142875 0
M  V30 5 C 3.603865 0.449034 1.548284 0
M  V30 6 C 4.307230 0.271858 2.797115 0
M  V30 7 C 5.294215 -0.713850 2.929031 0
M  V30 8 N 5.813040 -0.688424 4.195850 0
M  V30 9 N 5.201267 0.264346 4.869668 0
M  V30 10 C 4.322648 0.822711 4.044020 0
M  V30 11 C 3.851329 -0.324429 0.435241 0
M  V30 12 N 3.055367 0.043388 -0.579101 0
M  V30 13 C 2.276572 1.064989 -0.143692 0
M  V30 14 C 1.299675 1.790058 -0.798070 0
M  V30 15 N 1.004093 1.411859 -2.115331 0
M  V30 16 C -0.133916 0.594068 -2.470247 0
M  V30 17 C -0.754307 0.548994 -1.239053 0
M  V30 18 C -1.937352 -0.308640 -1.622329 0
M  V30 19 C -3.150525 -0.889356 -0.928552 0
M  V30 20 N -3.083785 -2.146107 -0.407643 0
M  V30 21 C -3.957184 -2.405325 0.699959 0
M  V30 22 C -3.530865 -1.756113 1.990867 0
M  V30 23 F -3.460200 -0.417198 1.978716 0
M  V30 24 F -4.373625 -2.248091 2.992794 0
M  V30 25 C -2.451155 -3.267298 -0.953608 0
M  V30 26 C -2.801587 -3.651450 -2.361444 0
M  V30 27 C -2.764309 -4.548582 -0.137795 0
M  V30 28 C -0.944661 -3.139260 -0.832517 0
M  V30 29 O -0.306281 -4.267856 -1.368836 0
M  V30 30 N -2.250617 -0.885171 -2.968121 0
M  V30 31 S -0.800618 -0.233872 -3.902384 0
M  V30 32 N 0.662710 2.777843 -0.114188 0
M  V30 33 H -0.814987 4.052022 1.485599 0
M  V30 34 H 0.307933 3.978757 2.946266 0
M  V30 35 H 0.652576 5.088414 1.597009 0
M  V30 36 H 2.242870 2.452403 2.790545 0
M  V30 37 H 5.696323 -1.448645 2.260138 0
M  V30 38 H 5.413074 0.494074 5.863090 0
M  V30 39 H 3.689746 1.631899 4.350192 0
M  V30 40 H 4.527396 -1.137083 0.211175 0
M  V30 41 H 1.782085 1.872623 -2.611361 0
M  V30 42 H -1.270052 0.475359 -0.339675 0
M  V30 43 H -4.092511 -0.776067 -1.541366 0
M  V30 44 H -3.385746 -0.135815 -0.105431 0
M  V30 45 H -4.986714 -1.961363 0.488509 0
M  V30 46 H -4.162211 -3.448481 0.930211 0
M  V30 47 H -2.520049 -2.212011 2.274795 0
M  V30 48 H -3.732302 -3.184748 -2.744472 0
M  V30 49 H -3.060669 -4.754388 -2.353181 0
M  V30 50 H -1.952852 -3.610890 -3.078047 0
M  V30 51 H -2.439779 -4.475919 0.894180 0
M  V30 52 H -2.098347 -5.329743 -0.626681 0
M  V30 53 H -3.779836 -4.917894 -0.341593 0
M  V30 54 H -0.525844 -2.253666 -1.304607 0
M  V30 55 H -0.627147 -3.091229 0.248777 0
M  V30 56 H -0.123388 -4.888241 -0.641668 0
M  V30 END ATOM
M  V30 BEGIN BOND
M  V30 1 1 1 2
M  V30 2 2 2 3
M  V30 3 1 3 4
M  V30 4 1 4 5
M  V30 5 1 5 6
M  V30 6 1 6 7
M  V30 7 2 7 8
M  V30 8 1 8 9
M  V30 9 1 9 10
M  V30 10 2 5 11
M  V30 11 1 11 12
M  V30 12 2 12 13
M  V30 13 1 13 14
M  V30 14 1 14 15
M  V30 15 1 15 16
M  V30 16 2 16 17
M  V30 17 1 17 18
M  V30 18 1 18 19
M  V30 19 1 19 20
M  V30 20 1 20 21
M  V30 21 1 21 22
M  V30 22 1 22 23
M  V30 23 1 22 24
M  V30 24 1 20 25
M  V30 25 1 25 26
M  V30 26 1 25 27
M  V30 27 1 25 28
M  V30 28 1 28 29
M  V30 29 2 18 30
M  V30 30 1 30 31
M  V30 31 2 14 32
M  V30 32 1 32 2
M  V30 33 1 13 4
M  V30 34 1 31 16
M  V30 35 2 10 6
M  V30 36 1 1 33
M  V30 37 1 1 34
M  V30 38 1 1 35
M  V30 39 1 3 36
M  V30 40 1 7 37
M  V30 41 1 9 38
M  V30 42 1 10 39
M  V30 43 1 11 40
M  V30 44 1 15 41
M  V30 45 1 17 42
M  V30 46 1 19 43
M  V30 47 1 19 44
M  V30 48 1 21 45
M  V30 49 1 21 46
M  V30 50 1 22 47
M  V30 51 1 26 48
M  V30 52 1 26 49
M  V30 53 1 26 50
M  V30 54 1 27 51
M  V30 55 1 27 52
M  V30 56 1 27 53
M  V30 57 1 28 54
M  V30 58 1 28 55
M  V30 59 1 29 56
M  V30 END BOND
M  V30 END CTAB
M  END
>  <Dataset>  (924) 
ChEMBL_Kinases

>  <Ligand_Instance>  (924) 
nan

>  <PDB_ID>  (924) 
nan

>  <Standardized_SMILES>  (924) 
Cc1cn2c(-c3cn[nH]c3)cnc2c(Nc2cc(CN(CC(F)F)C(C)(C)CO)ns2)n1

>  <Name>  (924) 
nan

>  <Pocket>  (924) 
nan

>  <ATP_Site>  (924) 
nan

>  <Peripheral>  (924) 
nan

>  <Num_H_Atoms_ProtBoundConf>  (924) 
nan

>  <Num_Resolved_Atoms>  (924) 
nan

>  <Num_Not_Resolved_Atoms>  (924) 
nan

$$$$
CHEMBL1650533
     RDKit          3D

  0  0  0  0  0  0  0  0  0  0999 V3000
M  V30 BEGIN CTAB
M  V30 COUNTS 56 59 0 0 0
M  V30 BEGIN ATOM
M  V30 1 C -2.148862 -3.102492 0.535283 0
M  V30 2 C -0.707749 -2.829250 0.480918 0
M  V30 3 N 0.258739 -3.805868 0.468333 0
M  V30 4 C 1.578328 -3.213882 0.431333 0
M  V30 5 C 1.774769 -2.346888 1.619723 0
M  V30 6 C 1.571582 -0.990026 1.750416 0
M  V30 7 C 1.817833 -0.489249 2.944132 0
M  V30 8 N 1.680989 0.922640 3.327918 0
M  V30 9 C 1.303508 1.807941 2.285880 0
M  V30 10 N 2.330904 2.443491 1.644479 0
M  V30 11 C 2.060425 3.303616 0.625522 0
M  V30 12 C 3.186936 4.006151 -0.082123 0
M  V30 13 C 0.747931 3.486361 0.294911 0
M  V30 14 N -0.300690 2.903917 0.873295 0
M  V30 15 C -1.619706 2.970219 0.673102 0
M  V30 16 C -2.401841 3.727890 -0.280649 0
M  V30 17 C -2.172941 4.619940 -1.291097 0
M  V30 18 N -3.327188 5.016142 -1.866133 0
M  V30 19 N -4.346355 4.411253 -1.267901 0
M  V30 20 C -3.786897 3.642553 -0.321248 0
M  V30 21 C -2.121786 2.108243 1.622554 0
M  V30 22 N -1.131561 1.565525 2.342364 0
M  V30 23 C 0.018972 2.066743 1.870488 0
M  V30 24 S 2.330042 -1.735729 3.986295 0
M  V30 25 N 2.217799 -3.105073 2.722185 0
M  V30 26 C 0.152738 -5.030278 -0.213079 0
M  V30 27 C 1.445388 -5.812106 0.109702 0
M  V30 28 C -0.987788 -5.877511 0.279560 0
M  V30 29 C 0.127683 -4.941387 -1.711355 0
M  V30 30 O -0.927931 -4.190989 -2.217791 0
M  V30 31 H -2.561331 -3.902026 -0.072391 0
M  V30 32 H -2.761346 -2.147481 0.433702 0
M  V30 33 H -2.383914 -3.376239 1.610900 0
M  V30 34 H -0.489744 -2.168995 1.379710 0
M  V30 35 H -0.534758 -2.120072 -0.379705 0
M  V30 36 H 1.611155 -2.504353 -0.451835 0
M  V30 37 H 2.362770 -3.937858 0.279313 0
M  V30 38 H 1.232121 -0.452840 0.880047 0
M  V30 39 H 1.864432 1.188515 4.320270 0
M  V30 40 H 3.640786 3.286960 -0.788504 0
M  V30 41 H 2.749555 4.865477 -0.620992 0
M  V30 42 H 3.912027 4.357088 0.663303 0
M  V30 43 H 0.583496 4.168422 -0.508827 0
M  V30 44 H -1.208731 4.967760 -1.596410 0
M  V30 45 H -5.348202 4.539225 -1.516947 0
M  V30 46 H -4.456961 3.037929 0.310995 0
M  V30 47 H -3.154461 1.835233 1.841832 0
M  V30 48 H 1.143858 -6.899799 0.044677 0
M  V30 49 H 2.201587 -5.701289 -0.681027 0
M  V30 50 H 1.782684 -5.659028 1.133455 0
M  V30 51 H -1.387265 -5.503814 1.239104 0
M  V30 52 H -0.633514 -6.926739 0.542455 0
M  V30 53 H -1.755582 -6.074954 -0.499044 0
M  V30 54 H 0.017390 -5.945337 -2.187468 0
M  V30 55 H 1.129519 -4.593157 -2.109275 0
M  V30 56 H -1.555338 -4.670391 -2.781510 0
M  V30 END ATOM
M  V30 BEGIN BOND
M  V30 1 1 1 2
M  V30 2 1 2 3
M  V30 3 1 3 4
M  V30 4 1 4 5
M  V30 5 1 5 6
M  V30 6 2 6 7
M  V30 7 1 7 8
M  V30 8 1 8 9
M  V30 9 2 9 10
M  V30 10 1 10 11
M  V30 11 1 11 12
M  V30 12 2 11 13
M  V30 13 1 13 14
M  V30 14 1 14 15
M  V30 15 1 15 16
M  V30 16 1 16 17
M  V30 17 2 17 18
M  V30 18 1 18 19
M  V30 19 1 19 20
M  V30 20 2 15 21
M  V30 21 1 21 22
M  V30 22 2 22 23
M  V30 23 1 7 24
M  V30 24 1 24 25
M  V30 25 1 3 26
M  V30 26 1 26 27
M  V30 27 1 26 28
M  V30 28 1 26 29
M  V30 29 1 29 30
M  V30 30 2 25 5
M  V30 31 1 23 9
M  V30 32 1 23 14
M  V30 33 2 20 16
M  V30 34 1 1 31
M  V30 35 1 1 32
M  V30 36 1 1 33
M  V30 37 1 2 34
M  V30 38 1 2 35
M  V30 39 1 4 36
M  V30 40 1 4 37
M  V30 41 1 6 38
M  V30 42 1 8 39
M  V30 43 1 12 40
M  V30 44 1 12 41
M  V30 45 1 12 42
M  V30 46 1 13 43
M  V30 47 1 17 44
M  V30 48 1 19 45
M  V30 49 1 20 46
M  V30 50 1 21 47
M  V30 51 1 27 48
M  V30 52 1 27 49
M  V30 53 1 27 50
M  V30 54 1 28 51
M  V30 55 1 28 52
M  V30 56 1 28 53
M  V30 57 1 29 54
M  V30 58 1 29 55
M  V30 59 1 30 56
M  V30 END BOND
M  V30 END CTAB
M  END
>  <Dataset>  (925) 
ChEMBL_Kinases

>  <Ligand_Instance>  (925) 
nan

>  <PDB_ID>  (925) 
nan

>  <Standardized_SMILES>  (925) 
CCN(Cc1cc(Nc2nc(C)cn3c(-c4cn[nH]c4)cnc23)sn1)C(C)(C)CO

>  <Name>  (925) 
nan

>  <Pocket>  (925) 
nan

>  <ATP_Site>  (925) 
nan

>  <Peripheral>  (925) 
nan

>  <Num_H_Atoms_ProtBoundConf>  (925) 
nan

>  <Num_Resolved_Atoms>  (925) 
nan

>  <Num_Not_Resolved_Atoms>  (925) 
nan

$$$$
CHEMBL165
     RDKit          3D

  0  0  0  0  0  0  0  0  0  0999 V3000
M  V30 BEGIN CTAB
M  V30 COUNTS 29 30 0 0 0
M  V30 BEGIN ATOM
M  V30 1 O 1.212433 -4.798533 5.267759 0
M  V30 2 C 1.087047 -3.935397 4.190556 0
M  V30 3 C 1.656518 -4.212864 2.968631 0
M  V30 4 C 1.529067 -3.351048 1.899768 0
M  V30 5 C 0.826463 -2.167305 1.995036 0
M  V30 6 C 0.683095 -1.245548 0.872772 0
M  V30 7 C 0.044256 -0.109708 0.859497 0
M  V30 8 C -0.080132 0.789200 -0.280654 0
M  V30 9 C 0.472342 0.551884 -1.519548 0
M  V30 10 C 0.347933 1.410613 -2.592190 0
M  V30 11 O 0.945437 1.086777 -3.819307 0
M  V30 12 C -0.365333 2.581547 -2.443805 0
M  V30 13 C -0.934404 2.855150 -1.216634 0
M  V30 14 O -1.663041 4.008834 -0.993739 0
M  V30 15 C -0.785224 1.968370 -0.170320 0
M  V30 16 C 0.274647 -1.928633 3.229749 0
M  V30 17 C 0.374956 -2.759454 4.327025 0
M  V30 18 H 0.421027 -5.063709 5.855238 0
M  V30 19 H 2.214269 -5.127426 2.850834 0
M  V30 20 H 2.001381 -3.616496 0.945597 0
M  V30 21 H 1.170236 -1.548598 -0.062176 0
M  V30 22 H -0.425684 0.167689 1.786530 0
M  V30 23 H 1.033396 -0.339459 -1.686134 0
M  V30 24 H 0.322201 0.580531 -4.466549 0
M  V30 25 H -0.476602 3.273029 -3.274664 0
M  V30 26 H -2.549686 4.244347 -1.369442 0
M  V30 27 H -1.247891 2.211730 0.792300 0
M  V30 28 H -0.296056 -1.033783 3.419041 0
M  V30 29 H -0.069754 -2.544138 5.283522 0
M  V30 END ATOM
M  V30 BEGIN BOND
M  V30 1 1 1 2
M  V30 2 2 2 3
M  V30 3 1 3 4
M  V30 4 2 4 5
M  V30 5 1 5 6
M  V30 6 2 6 7
M  V30 7 1 7 8
M  V30 8 2 8 9
M  V30 9 1 9 10
M  V30 10 1 10 11
M  V30 11 2 10 12
M  V30 12 1 12 13
M  V30 13 1 13 14
M  V30 14 2 13 15
M  V30 15 1 5 16
M  V30 16 2 16 17
M  V30 17 1 17 2
M  V30 18 1 15 8
M  V30 19 1 1 18
M  V30 20 1 3 19
M  V30 21 1 4 20
M  V30 22 1 6 21
M  V30 23 1 7 22
M  V30 24 1 9 23
M  V30 25 1 11 24
M  V30 26 1 12 25
M  V30 27 1 14 26
M  V30 28 1 15 27
M  V30 29 1 16 28
M  V30 30 1 17 29
M  V30 END BOND
M  V30 END CTAB
M  END
>  <Dataset>  (926) 
ChEMBL_Kinases

>  <Ligand_Instance>  (926) 
nan

>  <PDB_ID>  (926) 
nan

>  <Standardized_SMILES>  (926) 
Oc1ccc(/C=C/c2cc(O)cc(O)c2)cc1

>  <Name>  (926) 
RESVERATROL

>  <Pocket>  (926) 
nan

>  <ATP_Site>  (926) 
nan

>  <Peripheral>  (926) 
nan

>  <Num_H_Atoms_ProtBoundConf>  (926) 
nan

>  <Num_Resolved_Atoms>  (926) 
nan

>  <Num_Not_Resolved_Atoms>  (926) 
nan

$$$$
CHEMBL1649770
     RDKit          3D

  0  0  0  0  0  0  0  0  0  0999 V3000
M  V30 BEGIN CTAB
M  V30 COUNTS 36 39 0 0 0
M  V30 BEGIN ATOM
M  V30 1 O 3.286727 -1.816584 5.555608 0
M  V30 2 C 2.415593 -1.199382 4.887901 0
M  V30 3 O 1.626031 -0.255993 5.531699 0
M  V30 4 C 2.242768 -1.475466 3.459099 0
M  V30 5 C 3.055537 -2.423657 2.871062 0
M  V30 6 C 2.916926 -2.707250 1.522900 0
M  V30 7 C 1.960140 -2.022919 0.810361 0
M  V30 8 C 1.158764 -1.079721 1.417154 0
M  V30 9 C 1.277565 -0.778908 2.760488 0
M  V30 10 N 0.233561 -0.425895 0.702336 0
M  V30 11 C -0.012282 -0.595141 -0.603263 0
M  V30 12 N -0.977617 0.082180 -1.365005 0
M  V30 13 C -1.888836 1.073282 -0.940064 0
M  V30 14 C -2.005228 1.574855 0.334701 0
M  V30 15 C -2.890273 2.540792 0.757982 0
M  V30 16 C -3.754388 3.069825 -0.176494 0
M  V30 17 C -3.692113 2.613162 -1.471453 0
M  V30 18 Cl -4.782699 3.276506 -2.665162 0
M  V30 19 C -2.781615 1.646635 -1.818394 0
M  V30 20 C 0.796678 -1.541554 -1.197198 0
M  V30 21 N 0.633841 -1.790987 -2.508741 0
M  V30 22 C 1.393593 -2.702015 -3.138754 0
M  V30 23 N 2.350691 -3.400489 -2.471212 0
M  V30 24 C 2.546443 -3.176864 -1.142538 0
M  V30 25 C 1.767410 -2.253019 -0.530052 0
M  V30 26 H 1.358242 -0.380220 6.518238 0
M  V30 27 H 3.798770 -2.933986 3.493686 0
M  V30 28 H 3.566853 -3.437528 1.143549 0
M  V30 29 H 0.671072 -0.045052 3.284862 0
M  V30 30 H -1.047699 -0.167184 -2.391245 0
M  V30 31 H -1.359192 1.204498 1.115189 0
M  V30 32 H -2.927703 2.890088 1.779887 0
M  V30 33 H -4.471780 3.828054 0.086118 0
M  V30 34 H -2.788715 1.330273 -2.869948 0
M  V30 35 H 1.228065 -2.870479 -4.195173 0
M  V30 36 H 3.308538 -3.776725 -0.753142 0
M  V30 END ATOM
M  V30 BEGIN BOND
M  V30 1 2 1 2
M  V30 2 1 2 3
M  V30 3 1 2 4
M  V30 4 2 4 5
M  V30 5 1 5 6
M  V30 6 2 6 7
M  V30 7 1 7 8
M  V30 8 2 8 9
M  V30 9 1 8 10
M  V30 10 2 10 11
M  V30 11 1 11 12
M  V30 12 1 12 13
M  V30 13 2 13 14
M  V30 14 1 14 15
M  V30 15 2 15 16
M  V30 16 1 16 17
M  V30 17 1 17 18
M  V30 18 2 17 19
M  V30 19 1 11 20
M  V30 20 2 20 21
M  V30 21 1 21 22
M  V30 22 2 22 23
M  V30 23 1 23 24
M  V30 24 2 24 25
M  V30 25 1 9 4
M  V30 26 1 19 13
M  V30 27 1 25 20
M  V30 28 1 25 7
M  V30 29 1 3 26
M  V30 30 1 5 27
M  V30 31 1 6 28
M  V30 32 1 9 29
M  V30 33 1 12 30
M  V30 34 1 14 31
M  V30 35 1 15 32
M  V30 36 1 16 33
M  V30 37 1 19 34
M  V30 38 1 22 35
M  V30 39 1 24 36
M  V30 END BOND
M  V30 END CTAB
M  END
>  <Dataset>  (927) 
ChEMBL_Kinases

>  <Ligand_Instance>  (927) 
nan

>  <PDB_ID>  (927) 
nan

>  <Standardized_SMILES>  (927) 
O=C(O)c1ccc2c(c1)nc(Nc1cccc(Cl)c1)c1ncncc12

>  <Name>  (927) 
nan

>  <Pocket>  (927) 
nan

>  <ATP_Site>  (927) 
nan

>  <Peripheral>  (927) 
nan

>  <Num_H_Atoms_ProtBoundConf>  (927) 
nan

>  <Num_Resolved_Atoms>  (927) 
nan

>  <Num_Not_Resolved_Atoms>  (927) 
nan

$$$$
CHEMBL1649760
     RDKit          3D

  0  0  0  0  0  0  0  0  0  0999 V3000
M  V30 BEGIN CTAB
M  V30 COUNTS 38 41 0 0 0
M  V30 BEGIN ATOM
M  V30 1 O 1.606835 -6.560968 1.153366 0
M  V30 2 C 2.404371 -5.443876 1.496366 0
M  V30 3 C 1.552066 -4.220562 1.486818 0
M  V30 4 C 0.903665 -4.002796 2.700408 0
M  V30 5 C 0.087871 -2.890121 2.830870 0
M  V30 6 C -0.069717 -2.029275 1.774295 0
M  V30 7 C 0.571840 -2.242068 0.566266 0
M  V30 8 C 1.389767 -3.350309 0.425806 0
M  V30 9 N 0.481154 -1.431821 -0.529926 0
M  V30 10 C -0.294155 -0.335260 -0.436536 0
M  V30 11 N -0.552742 0.667679 -1.428030 0
M  V30 12 C 0.027101 1.989767 -1.272111 0
M  V30 13 C -0.422993 3.044190 -2.059196 0
M  V30 14 C 0.113405 4.331817 -1.898754 0
M  V30 15 C 1.088717 4.483548 -0.937461 0
M  V30 16 C 1.542499 3.441425 -0.151983 0
M  V30 17 Cl 2.765200 3.575309 1.065855 0
M  V30 18 C 1.001155 2.161836 -0.320200 0
M  V30 19 C -0.978770 -0.040109 0.745618 0
M  V30 20 C -1.779523 1.050324 0.961407 0
M  V30 21 C -2.442810 1.352788 2.128315 0
M  V30 22 N -2.282021 0.486592 3.153473 0
M  V30 23 C -1.495913 -0.624080 3.004326 0
M  V30 24 C -0.848947 -0.898726 1.827378 0
M  V30 25 H 0.661270 -6.382991 1.473640 0
M  V30 26 H 3.237962 -5.298562 0.756584 0
M  V30 27 H 2.855636 -5.625531 2.477516 0
M  V30 28 H 1.011058 -4.674948 3.565187 0
M  V30 29 H -0.392535 -2.747361 3.763652 0
M  V30 30 H 1.943814 -3.633704 -0.450266 0
M  V30 31 H -1.157354 0.425173 -2.266901 0
M  V30 32 H -1.196762 2.865550 -2.794906 0
M  V30 33 H -0.237192 5.170578 -2.510444 0
M  V30 34 H 1.537300 5.480740 -0.784088 0
M  V30 35 H 1.302485 1.297853 0.256703 0
M  V30 36 H -1.910830 1.750439 0.152681 0
M  V30 37 H -3.059560 2.227477 2.237521 0
M  V30 38 H -1.488629 -1.191150 3.918932 0
M  V30 END ATOM
M  V30 BEGIN BOND
M  V30 1 1 1 2
M  V30 2 1 2 3
M  V30 3 2 3 4
M  V30 4 1 4 5
M  V30 5 2 5 6
M  V30 6 1 6 7
M  V30 7 2 7 8
M  V30 8 1 7 9
M  V30 9 2 9 10
M  V30 10 1 10 11
M  V30 11 1 11 12
M  V30 12 2 12 13
M  V30 13 1 13 14
M  V30 14 2 14 15
M  V30 15 1 15 16
M  V30 16 1 16 17
M  V30 17 2 16 18
M  V30 18 1 10 19
M  V30 19 2 19 20
M  V30 20 1 20 21
M  V30 21 2 21 22
M  V30 22 1 22 23
M  V30 23 2 23 24
M  V30 24 1 8 3
M  V30 25 1 18 12
M  V30 26 1 24 19
M  V30 27 1 24 6
M  V30 28 1 1 25
M  V30 29 1 2 26
M  V30 30 1 2 27
M  V30 31 1 4 28
M  V30 32 1 5 29
M  V30 33 1 8 30
M  V30 34 1 11 31
M  V30 35 1 13 32
M  V30 36 1 14 33
M  V30 37 1 15 34
M  V30 38 1 18 35
M  V30 39 1 20 36
M  V30 40 1 21 37
M  V30 41 1 23 38
M  V30 END BOND
M  V30 END CTAB
M  END
>  <Dataset>  (928) 
ChEMBL_Kinases

>  <Ligand_Instance>  (928) 
nan

>  <PDB_ID>  (928) 
nan

>  <Standardized_SMILES>  (928) 
OCc1ccc2c(c1)nc(Nc1cccc(Cl)c1)c1ccncc12

>  <Name>  (928) 
nan

>  <Pocket>  (928) 
nan

>  <ATP_Site>  (928) 
nan

>  <Peripheral>  (928) 
nan

>  <Num_H_Atoms_ProtBoundConf>  (928) 
nan

>  <Num_Resolved_Atoms>  (928) 
nan

>  <Num_Not_Resolved_Atoms>  (928) 
nan

$$$$
CHEMBL1645462
     RDKit          3D

  0  0  0  0  0  0  0  0  0  0999 V3000
M  V30 BEGIN CTAB
M  V30 COUNTS 66 71 0 0 0
M  V30 BEGIN ATOM
M  V30 1 C 2.581955 -2.101563 0.389021 0
M  V30 2 C 1.863338 -2.877780 -0.643889 0
M  V30 3 C 1.901011 -2.673417 -2.028482 0
M  V30 4 N 2.706827 -1.605000 -2.570972 0
M  V30 5 C 2.306180 -0.264863 -2.804550 0
M  V30 6 O 1.120246 -0.070465 -2.482515 0
M  V30 7 O 3.281106 0.526474 -3.323312 0
M  V30 8 C 3.075564 1.876128 -3.636663 0
M  V30 9 C 2.112967 2.004164 -4.786791 0 CFG=2
M  V30 10 C 2.121295 3.372406 -5.392879 0
M  V30 11 O 0.938756 4.033937 -5.478103 0
M  V30 12 C -0.109772 3.175163 -5.756140 0
M  V30 13 C -0.255708 2.358816 -4.461886 0
M  V30 14 N 0.863294 1.449080 -4.486762 0
M  V30 15 C 1.084195 -3.631922 -2.625962 0
M  V30 16 N 0.589280 -4.367125 -1.626161 0
M  V30 17 N -0.234959 -5.394483 -1.799986 0
M  V30 18 C -0.648775 -6.050898 -0.703194 0
M  V30 19 N -0.248260 -5.686969 0.528163 0
M  V30 20 C 0.591754 -4.641818 0.725360 0
M  V30 21 N 1.094912 -4.159319 1.967674 0
M  V30 22 C 0.169704 -3.471009 2.834965 0
M  V30 23 C 0.552972 -2.677666 3.904767 0
M  V30 24 C -0.343250 -2.050275 4.729234 0
M  V30 25 C -1.697338 -2.188196 4.520436 0
M  V30 26 C -2.136602 -2.967123 3.468799 0
M  V30 27 C -3.524895 -2.936447 3.494901 0
M  V30 28 N -3.907456 -2.161656 4.532347 0
M  V30 29 N -2.793721 -1.720496 5.136687 0
M  V30 30 C -2.831591 -0.853754 6.286530 0
M  V30 31 C -2.864638 0.572342 5.960756 0
M  V30 32 C -4.125028 1.173831 5.821817 0
M  V30 33 C -4.335369 2.503234 5.515767 0
M  V30 34 C -3.199123 3.273896 5.338876 0
M  V30 35 C -1.943138 2.725372 5.465602 0
M  V30 36 F -0.854812 3.485133 5.291352 0
M  V30 37 C -1.755881 1.387232 5.773758 0
M  V30 38 C -1.197613 -3.565288 2.683422 0
M  V30 39 C 1.021062 -3.961090 -0.422258 0
M  V30 40 H 1.963176 -1.851204 1.263140 0
M  V30 41 H 3.470920 -2.717782 0.717475 0
M  V30 42 H 3.003788 -1.166918 -0.044795 0
M  V30 43 H 3.656636 -1.988374 -2.769982 0
M  V30 44 H 2.670000 2.392325 -2.716045 0
M  V30 45 H 4.044693 2.359723 -3.910603 0
M  V30 46 H 2.564891 1.337958 -5.594071 0
M  V30 47 H 2.778333 3.996751 -4.712327 0
M  V30 48 H 2.642563 3.420684 -6.370430 0
M  V30 49 H -1.058836 3.692325 -6.015959 0
M  V30 50 H 0.211205 2.456216 -6.536838 0
M  V30 51 H -0.214519 3.090743 -3.611958 0
M  V30 52 H -1.189787 1.799231 -4.416508 0
M  V30 53 H 0.586389 0.621767 -5.067688 0
M  V30 54 H 1.007856 -3.607573 -3.698840 0
M  V30 55 H -1.317964 -6.892315 -0.794782 0
M  V30 56 H 2.056287 -4.221807 2.369319 0
M  V30 57 H 1.615911 -2.551931 4.090454 0
M  V30 58 H -0.001809 -1.435525 5.556272 0
M  V30 59 H -4.174258 -3.463130 2.779209 0
M  V30 60 H -3.708756 -1.083960 6.920718 0
M  V30 61 H -1.942284 -1.141618 6.905842 0
M  V30 62 H -5.012108 0.557804 5.962254 0
M  V30 63 H -5.344951 2.881037 5.429098 0
M  V30 64 H -3.348067 4.338745 5.093163 0
M  V30 65 H -0.776689 0.927168 5.879308 0
M  V30 66 H -1.594330 -4.163226 1.872083 0
M  V30 END ATOM
M  V30 BEGIN BOND
M  V30 1 1 1 2
M  V30 2 1 2 3
M  V30 3 1 3 4
M  V30 4 1 4 5
M  V30 5 2 5 6
M  V30 6 1 5 7
M  V30 7 1 7 8
M  V30 8 1 8 9
M  V30 9 1 9 10
M  V30 10 1 10 11
M  V30 11 1 11 12
M  V30 12 1 12 13
M  V30 13 1 13 14
M  V30 14 2 3 15
M  V30 15 1 15 16
M  V30 16 1 16 17
M  V30 17 2 17 18
M  V30 18 1 18 19
M  V30 19 2 19 20
M  V30 20 1 20 21
M  V30 21 1 21 22
M  V30 22 2 22 23
M  V30 23 1 23 24
M  V30 24 2 24 25
M  V30 25 1 25 26
M  V30 26 1 26 27
M  V30 27 2 27 28
M  V30 28 1 28 29
M  V30 29 1 29 30
M  V30 30 1 30 31
M  V30 31 2 31 32
M  V30 32 1 32 33
M  V30 33 2 33 34
M  V30 34 1 34 35
M  V30 35 1 35 36
M  V30 36 2 35 37
M  V30 37 2 26 38
M  V30 38 1 20 39
M  V30 39 2 39 2
M  V30 40 1 14 9
M  V30 41 1 39 16
M  V30 42 1 38 22
M  V30 43 1 29 25
M  V30 44 1 37 31
M  V30 45 1 1 40
M  V30 46 1 1 41
M  V30 47 1 1 42
M  V30 48 1 4 43
M  V30 49 1 8 44
M  V30 50 1 8 45
M  V30 51 1 9 46 CFG=3
M  V30 52 1 10 47
M  V30 53 1 10 48
M  V30 54 1 12 49
M  V30 55 1 12 50
M  V30 56 1 13 51
M  V30 57 1 13 52
M  V30 58 1 14 53
M  V30 59 1 15 54
M  V30 60 1 18 55
M  V30 61 1 21 56
M  V30 62 1 23 57
M  V30 63 1 24 58
M  V30 64 1 27 59
M  V30 65 1 30 60
M  V30 66 1 30 61
M  V30 67 1 32 62
M  V30 68 1 33 63
M  V30 69 1 34 64
M  V30 70 1 37 65
M  V30 71 1 38 66
M  V30 END BOND
M  V30 END CTAB
M  END
>  <Dataset>  (929) 
ChEMBL_Kinases

>  <Ligand_Instance>  (929) 
nan

>  <PDB_ID>  (929) 
nan

>  <Standardized_SMILES>  (929) 
Cc1c(NC(=O)OC[C@@H]2COCCN2)cn2ncnc(Nc3ccc4c(cnn4Cc4cccc(F)c4)c3)c12

>  <Name>  (929) 
AC-480

>  <Pocket>  (929) 
nan

>  <ATP_Site>  (929) 
nan

>  <Peripheral>  (929) 
nan

>  <Num_H_Atoms_ProtBoundConf>  (929) 
nan

>  <Num_Resolved_Atoms>  (929) 
nan

>  <Num_Not_Resolved_Atoms>  (929) 
nan

$$$$
CHEMBL1643963
     RDKit          3D

  0  0  0  0  0  0  0  0  0  0999 V3000
M  V30 BEGIN CTAB
M  V30 COUNTS 61 65 0 0 0
M  V30 BEGIN ATOM
M  V30 1 C 3.282600 -4.012036 2.919044 0
M  V30 2 C 3.734444 -2.769935 3.002882 0
M  V30 3 C 3.860370 -2.069682 1.726126 0
M  V30 4 O 3.523583 -2.740783 0.726791 0
M  V30 5 N 4.338045 -0.748715 1.787622 0
M  V30 6 C 4.583173 0.214815 0.768191 0
M  V30 7 C 5.773678 0.378811 0.096336 0
M  V30 8 C 5.895166 1.361774 -0.888165 0
M  V30 9 C 4.791364 2.170100 -1.175596 0
M  V30 10 C 3.580194 2.002213 -0.491116 0
M  V30 11 O 2.646747 2.894706 -0.932182 0
M  V30 12 C 1.345298 3.028922 -0.495171 0
M  V30 13 N 0.689523 2.332645 0.450454 0
M  V30 14 C -0.592578 2.574900 0.776232 0
M  V30 15 N -1.184965 1.774255 1.795264 0
M  V30 16 C -1.832009 0.557866 1.435198 0
M  V30 17 C -1.887744 0.136789 0.122204 0
M  V30 18 C -2.508172 -1.037038 -0.249584 0
M  V30 19 C -3.103971 -1.843133 0.695492 0
M  V30 20 N -3.759775 -3.066014 0.390705 0
M  V30 21 C -4.434026 -3.961196 1.307322 0
M  V30 22 C -3.527418 -5.184885 1.476567 0
M  V30 23 N -3.061356 -5.633731 0.178290 0
M  V30 24 C -1.662919 -5.373222 -0.025417 0
M  V30 25 C -3.866141 -5.090611 -0.899587 0
M  V30 26 C -3.822955 -3.577433 -0.964921 0
M  V30 27 C -3.041467 -1.411467 2.003280 0
M  V30 28 C -2.424518 -0.240835 2.386629 0
M  V30 29 N -1.260466 3.568902 0.121728 0
M  V30 30 C -0.660233 4.302280 -0.834998 0
M  V30 31 N -1.132161 5.315390 -1.592222 0
M  V30 32 C -0.126706 5.704274 -2.397255 0
M  V30 33 N 0.974098 4.950438 -2.158773 0
M  V30 34 C 0.675042 4.052578 -1.176696 0
M  V30 35 C 3.510386 1.024830 0.465684 0
M  V30 36 H 3.127506 -4.671272 3.745364 0
M  V30 37 H 3.003420 -4.550900 2.027718 0
M  V30 38 H 3.953608 -2.427181 3.996770 0
M  V30 39 H 4.588533 -0.293215 2.691888 0
M  V30 40 H 6.587498 -0.269916 0.358356 0
M  V30 41 H 6.842954 1.458241 -1.390806 0
M  V30 42 H 5.002431 2.892666 -1.952023 0
M  V30 43 H -1.161266 2.049286 2.801430 0
M  V30 44 H -1.431918 0.736469 -0.669742 0
M  V30 45 H -2.527162 -1.324591 -1.283387 0
M  V30 46 H -5.379015 -4.373370 0.893405 0
M  V30 47 H -4.603302 -3.540101 2.302005 0
M  V30 48 H -4.169263 -5.977339 1.915810 0
M  V30 49 H -2.724793 -5.000917 2.205912 0
M  V30 50 H -1.574640 -4.448549 -0.640565 0
M  V30 51 H -1.107719 -5.181117 0.925247 0
M  V30 52 H -1.178902 -6.206449 -0.582440 0
M  V30 53 H -4.897938 -5.478702 -0.816314 0
M  V30 54 H -3.439533 -5.478353 -1.840832 0
M  V30 55 H -4.749559 -3.254851 -1.479273 0
M  V30 56 H -2.963253 -3.289793 -1.585023 0
M  V30 57 H -3.466041 -1.944820 2.843685 0
M  V30 58 H -2.364483 0.114574 3.401699 0
M  V30 59 H -2.081429 5.753662 -1.596749 0
M  V30 60 H -0.190930 6.501990 -3.126822 0
M  V30 61 H 2.563247 0.958160 0.939761 0
M  V30 END ATOM
M  V30 BEGIN BOND
M  V30 1 2 1 2
M  V30 2 1 2 3
M  V30 3 2 3 4
M  V30 4 1 3 5
M  V30 5 1 5 6
M  V30 6 2 6 7
M  V30 7 1 7 8
M  V30 8 2 8 9
M  V30 9 1 9 10
M  V30 10 1 10 11
M  V30 11 1 11 12
M  V30 12 2 12 13
M  V30 13 1 13 14
M  V30 14 1 14 15
M  V30 15 1 15 16
M  V30 16 2 16 17
M  V30 17 1 17 18
M  V30 18 2 18 19
M  V30 19 1 19 20
M  V30 20 1 20 21
M  V30 21 1 21 22
M  V30 22 1 22 23
M  V30 23 1 23 24
M  V30 24 1 23 25
M  V30 25 1 25 26
M  V30 26 1 19 27
M  V30 27 2 27 28
M  V30 28 2 14 29
M  V30 29 1 29 30
M  V30 30 1 30 31
M  V30 31 1 31 32
M  V30 32 2 32 33
M  V30 33 1 33 34
M  V30 34 2 10 35
M  V30 35 1 35 6
M  V30 36 1 34 12
M  V30 37 1 28 16
M  V30 38 2 34 30
M  V30 39 1 26 20
M  V30 40 1 1 36
M  V30 41 1 1 37
M  V30 42 1 2 38
M  V30 43 1 5 39
M  V30 44 1 7 40
M  V30 45 1 8 41
M  V30 46 1 9 42
M  V30 47 1 15 43
M  V30 48 1 17 44
M  V30 49 1 18 45
M  V30 50 1 21 46
M  V30 51 1 21 47
M  V30 52 1 22 48
M  V30 53 1 22 49
M  V30 54 1 24 50
M  V30 55 1 24 51
M  V30 56 1 24 52
M  V30 57 1 25 53
M  V30 58 1 25 54
M  V30 59 1 26 55
M  V30 60 1 26 56
M  V30 61 1 27 57
M  V30 62 1 28 58
M  V30 63 1 31 59
M  V30 64 1 32 60
M  V30 65 1 35 61
M  V30 END BOND
M  V30 END CTAB
M  END
>  <Dataset>  (930) 
ChEMBL_Kinases

>  <Ligand_Instance>  (930) 
nan

>  <PDB_ID>  (930) 
nan

>  <Standardized_SMILES>  (930) 
C=CC(=O)Nc1cccc(Oc2nc(Nc3ccc(N4CCN(C)CC4)cc3)nc3[nH]cnc23)c1

>  <Name>  (930) 
nan

>  <Pocket>  (930) 
nan

>  <ATP_Site>  (930) 
nan

>  <Peripheral>  (930) 
nan

>  <Num_H_Atoms_ProtBoundConf>  (930) 
nan

>  <Num_Resolved_Atoms>  (930) 
nan

>  <Num_Not_Resolved_Atoms>  (930) 
nan

$$$$
CHEMBL1643574
     RDKit          3D

  0  0  0  0  0  0  0  0  0  0999 V3000
M  V30 BEGIN CTAB
M  V30 COUNTS 48 51 0 0 0
M  V30 BEGIN ATOM
M  V30 1 N -0.339187 -6.218085 -2.566382 0
M  V30 2 C 0.393817 -5.591043 -1.524577 0
M  V30 3 N 1.169059 -6.268771 -0.657016 0
M  V30 4 C 1.863835 -5.673857 0.330578 0
M  V30 5 C 1.809857 -4.299015 0.502155 0
M  V30 6 C 1.006333 -3.589553 -0.395839 0
M  V30 7 C 0.982097 -2.225904 -0.188346 0
M  V30 8 C 0.224699 -1.429227 -1.012388 0
M  V30 9 O 0.004454 -0.063535 -1.053797 0
M  V30 10 C 0.565581 0.885484 -0.174125 0 CFG=1
M  V30 11 C 1.473662 1.832900 -0.920090 0
M  V30 12 C 0.988026 3.260720 -0.746036 0
M  V30 13 C 0.849189 3.537620 0.717304 0
M  V30 14 N -0.123565 2.684386 1.348381 0
M  V30 15 C 0.200649 2.329724 2.687462 0
M  V30 16 C -0.747583 1.464475 3.384982 0
M  V30 17 C -0.758764 0.084634 3.426467 0
M  V30 18 C -1.707854 -0.634600 4.121065 0
M  V30 19 C -2.707529 0.014678 4.818522 0
M  V30 20 C -2.733758 1.393903 4.803744 0
M  V30 21 C -1.771618 2.091244 4.100368 0
M  V30 22 C -0.571836 1.609417 0.508584 0
M  V30 23 C -0.504403 -2.033610 -2.045308 0
M  V30 24 C -0.458324 -3.421133 -2.229178 0
M  V30 25 C 0.302723 -4.219992 -1.400872 0
M  V30 26 H -1.245445 -6.381176 -2.060259 0
M  V30 27 H 0.121275 -6.361258 -3.486038 0
M  V30 28 H 2.486420 -6.242410 1.023033 0
M  V30 29 H 2.362626 -3.812039 1.290260 0
M  V30 30 H 1.488784 -1.662837 0.554464 0
M  V30 31 H 1.204450 0.339288 0.542583 0
M  V30 32 H 2.517837 1.818707 -0.542336 0
M  V30 33 H 1.512039 1.557630 -1.985042 0
M  V30 34 H 0.057831 3.456010 -1.299102 0
M  V30 35 H 1.772066 3.927904 -1.147008 0
M  V30 36 H 1.852777 3.452476 1.189513 0
M  V30 37 H 0.494393 4.585160 0.821473 0
M  V30 38 H 0.393490 3.271071 3.241606 0
M  V30 39 H 1.191132 1.787745 2.705598 0
M  V30 40 H 0.052916 -0.387388 2.858839 0
M  V30 41 H -1.610581 -1.728030 4.078188 0
M  V30 42 H -3.402488 -0.635830 5.330137 0
M  V30 43 H -3.519250 1.879766 5.352375 0
M  V30 44 H -1.883175 3.167737 4.153843 0
M  V30 45 H -1.268281 1.948576 -0.285612 0
M  V30 46 H -1.101286 0.846970 1.108983 0
M  V30 47 H -1.147761 -1.566959 -2.782036 0
M  V30 48 H -0.995305 -3.949186 -3.004393 0
M  V30 END ATOM
M  V30 BEGIN BOND
M  V30 1 1 1 2
M  V30 2 2 2 3
M  V30 3 1 3 4
M  V30 4 2 4 5
M  V30 5 1 5 6
M  V30 6 2 6 7
M  V30 7 1 7 8
M  V30 8 1 8 9
M  V30 9 1 9 10
M  V30 10 1 10 11
M  V30 11 1 11 12
M  V30 12 1 12 13
M  V30 13 1 13 14
M  V30 14 1 14 15
M  V30 15 1 15 16
M  V30 16 2 16 17
M  V30 17 1 17 18
M  V30 18 2 18 19
M  V30 19 1 19 20
M  V30 20 2 20 21
M  V30 21 1 14 22
M  V30 22 2 8 23
M  V30 23 1 23 24
M  V30 24 2 24 25
M  V30 25 1 25 2
M  V30 26 1 25 6
M  V30 27 1 22 10
M  V30 28 1 21 16
M  V30 29 1 1 26
M  V30 30 1 1 27
M  V30 31 1 4 28
M  V30 32 1 5 29
M  V30 33 1 7 30
M  V30 34 1 10 31 CFG=1
M  V30 35 1 11 32
M  V30 36 1 11 33
M  V30 37 1 12 34
M  V30 38 1 12 35
M  V30 39 1 13 36
M  V30 40 1 13 37
M  V30 41 1 15 38
M  V30 42 1 15 39
M  V30 43 1 17 40
M  V30 44 1 18 41
M  V30 45 1 19 42
M  V30 46 1 20 43
M  V30 47 1 21 44
M  V30 48 1 22 45
M  V30 49 1 22 46
M  V30 50 1 23 47
M  V30 51 1 24 48
M  V30 END BOND
M  V30 END CTAB
M  END
>  <Dataset>  (931) 
ChEMBL_Kinases

>  <Ligand_Instance>  (931) 
nan

>  <PDB_ID>  (931) 
nan

>  <Standardized_SMILES>  (931) 
Nc1nccc2cc(O[C@H]3CCCN(Cc4ccccc4)C3)ccc12

>  <Name>  (931) 
nan

>  <Pocket>  (931) 
nan

>  <ATP_Site>  (931) 
nan

>  <Peripheral>  (931) 
nan

>  <Num_H_Atoms_ProtBoundConf>  (931) 
nan

>  <Num_Resolved_Atoms>  (931) 
nan

>  <Num_Not_Resolved_Atoms>  (931) 
nan

$$$$
CHEMBL1643368
     RDKit          3D

  0  0  0  0  0  0  0  0  0  0999 V3000
M  V30 BEGIN CTAB
M  V30 COUNTS 35 37 0 0 0
M  V30 BEGIN ATOM
M  V30 1 N 0.952883 -4.906357 3.692277 0
M  V30 2 C 1.524175 -3.597895 3.620697 0
M  V30 3 N 2.502134 -3.157265 4.417646 0
M  V30 4 C 3.021476 -1.920888 4.328620 0
M  V30 5 C 2.538364 -1.026794 3.366786 0
M  V30 6 C 1.534131 -1.470521 2.543959 0
M  V30 7 C 1.056786 -0.589788 1.595005 0
M  V30 8 C 0.034801 -0.983331 0.727998 0
M  V30 9 O -0.580022 -0.281525 -0.273202 0
M  V30 10 C -0.298843 1.038803 -0.654037 0 CFG=1
M  V30 11 C 0.119121 1.152178 -2.106053 0
M  V30 12 C -1.153634 1.316715 -2.918594 0
M  V30 13 C -1.673006 2.713873 -2.662942 0
M  V30 14 N -1.464779 3.049343 -1.289064 0
M  V30 15 C -1.545744 1.901868 -0.415427 0
M  V30 16 C -0.488261 -2.272065 0.839885 0
M  V30 17 C -0.001399 -3.162307 1.803652 0
M  V30 18 C 1.009004 -2.742927 2.645350 0
M  V30 19 H 1.377959 -5.827538 3.377386 0
M  V30 20 H -0.013893 -5.085557 4.094403 0
M  V30 21 H 3.824791 -1.631185 5.020153 0
M  V30 22 H 2.938418 -0.040088 3.280675 0
M  V30 23 H 1.383940 0.411177 1.425412 0
M  V30 24 H 0.506259 1.510922 -0.053953 0
M  V30 25 H 0.660749 0.290906 -2.493176 0
M  V30 26 H 0.745097 2.049249 -2.227251 0
M  V30 27 H -0.947474 1.191302 -4.002186 0
M  V30 28 H -1.904277 0.592885 -2.573665 0
M  V30 29 H -1.249716 3.451827 -3.360274 0
M  V30 30 H -2.783167 2.692341 -2.832239 0
M  V30 31 H -2.044388 3.856830 -0.959328 0
M  V30 32 H -2.430172 1.290124 -0.714654 0
M  V30 33 H -1.591104 2.184993 0.637363 0
M  V30 34 H -1.277324 -2.701144 0.234467 0
M  V30 35 H -0.388725 -4.169615 1.913601 0
M  V30 END ATOM
M  V30 BEGIN BOND
M  V30 1 1 1 2
M  V30 2 2 2 3
M  V30 3 1 3 4
M  V30 4 2 4 5
M  V30 5 1 5 6
M  V30 6 2 6 7
M  V30 7 1 7 8
M  V30 8 1 8 9
M  V30 9 1 9 10
M  V30 10 1 10 11
M  V30 11 1 11 12
M  V30 12 1 12 13
M  V30 13 1 13 14
M  V30 14 1 14 15
M  V30 15 2 8 16
M  V30 16 1 16 17
M  V30 17 2 17 18
M  V30 18 1 18 2
M  V30 19 1 18 6
M  V30 20 1 15 10
M  V30 21 1 1 19
M  V30 22 1 1 20
M  V30 23 1 4 21
M  V30 24 1 5 22
M  V30 25 1 7 23
M  V30 26 1 10 24 CFG=1
M  V30 27 1 11 25
M  V30 28 1 11 26
M  V30 29 1 12 27
M  V30 30 1 12 28
M  V30 31 1 13 29
M  V30 32 1 13 30
M  V30 33 1 14 31
M  V30 34 1 15 32
M  V30 35 1 15 33
M  V30 36 1 16 34
M  V30 37 1 17 35
M  V30 END BOND
M  V30 END CTAB
M  END
>  <Dataset>  (932) 
ChEMBL_Kinases

>  <Ligand_Instance>  (932) 
nan

>  <PDB_ID>  (932) 
nan

>  <Standardized_SMILES>  (932) 
Nc1nccc2cc(O[C@H]3CCCNC3)ccc12

>  <Name>  (932) 
nan

>  <Pocket>  (932) 
nan

>  <ATP_Site>  (932) 
nan

>  <Peripheral>  (932) 
nan

>  <Num_H_Atoms_ProtBoundConf>  (932) 
nan

>  <Num_Resolved_Atoms>  (932) 
nan

>  <Num_Not_Resolved_Atoms>  (932) 
nan

$$$$
CHEMBL1615189
     RDKit          3D

  0  0  0  0  0  0  0  0  0  0999 V3000
M  V30 BEGIN CTAB
M  V30 COUNTS 45 48 0 0 0
M  V30 BEGIN ATOM
M  V30 1 C 5.644354 -3.602696 5.513103 0
M  V30 2 C 4.817229 -2.890453 4.500037 0
M  V30 3 O 3.553734 -2.773724 4.649508 0
M  V30 4 N 5.425871 -2.339561 3.366842 0
M  V30 5 C 4.421171 -1.659882 2.458206 0
M  V30 6 N 4.133087 -0.499315 2.570033 0
M  V30 7 C 3.280239 0.175020 1.837014 0
M  V30 8 C 2.867576 1.497880 1.865997 0
M  V30 9 C 1.952306 1.983075 0.986810 0
M  V30 10 C 1.350963 1.223478 -0.006796 0
M  V30 11 C 0.367055 1.691625 -0.971203 0
M  V30 12 C 0.338264 2.977645 -1.471621 0
M  V30 13 N -0.609269 3.329558 -2.358101 0
M  V30 14 C -1.552937 2.480580 -2.795573 0
M  V30 15 Cl -2.770088 2.977527 -3.952605 0
M  V30 16 C -1.601489 1.156691 -2.342514 0
M  V30 17 N -2.566653 0.203536 -2.762307 0
M  V30 18 S -2.884873 -1.346787 -2.115010 0
M  V30 19 O -3.958529 -2.010958 -2.929768 0
M  V30 20 O -1.644601 -2.184633 -2.282225 0
M  V30 21 C -3.406413 -1.334457 -0.460491 0
M  V30 22 C -4.769145 -1.147651 -0.234060 0
M  V30 23 C -5.279865 -1.128376 1.031375 0
M  V30 24 C -4.486201 -1.290546 2.148116 0
M  V30 25 F -4.938203 -1.280103 3.434785 0
M  V30 26 C -3.113878 -1.480044 1.955422 0
M  V30 27 C -2.632920 -1.494464 0.669189 0
M  V30 28 C -0.620457 0.834612 -1.440757 0
M  V30 29 C 1.691669 -0.108279 -0.123114 0
M  V30 30 C 2.650400 -0.525656 0.833131 0
M  V30 31 S 3.415518 -2.243473 1.062284 0
M  V30 32 H 5.035868 -3.665944 6.444899 0
M  V30 33 H 5.878147 -4.631221 5.199095 0
M  V30 34 H 6.572940 -3.077137 5.747981 0
M  V30 35 H 6.443722 -2.412384 3.210868 0
M  V30 36 H 3.260116 2.205315 2.594054 0
M  V30 37 H 1.640227 3.043078 1.032133 0
M  V30 38 H 1.096721 3.695774 -1.133720 0
M  V30 39 H -3.138579 0.550213 -3.591847 0
M  V30 40 H -5.470978 -1.010283 -1.054343 0
M  V30 41 H -6.346366 -0.983017 1.220637 0
M  V30 42 H -2.386710 -1.619427 2.766089 0
M  V30 43 H -1.592605 -1.641037 0.503787 0
M  V30 44 H -0.594144 -0.164155 -1.055182 0
M  V30 45 H 1.356560 -0.852947 -0.800012 0
M  V30 END ATOM
M  V30 BEGIN BOND
M  V30 1 1 1 2
M  V30 2 2 2 3
M  V30 3 1 2 4
M  V30 4 1 4 5
M  V30 5 2 5 6
M  V30 6 1 6 7
M  V30 7 2 7 8
M  V30 8 1 8 9
M  V30 9 2 9 10
M  V30 10 1 10 11
M  V30 11 2 11 12
M  V30 12 1 12 13
M  V30 13 2 13 14
M  V30 14 1 14 15
M  V30 15 1 14 16
M  V30 16 1 16 17
M  V30 17 1 17 18
M  V30 18 2 18 19
M  V30 19 2 18 20
M  V30 20 1 18 21
M  V30 21 2 21 22
M  V30 22 1 22 23
M  V30 23 2 23 24
M  V30 24 1 24 25
M  V30 25 1 24 26
M  V30 26 2 26 27
M  V30 27 2 16 28
M  V30 28 1 10 29
M  V30 29 2 29 30
M  V30 30 1 30 31
M  V30 31 1 31 5
M  V30 32 1 30 7
M  V30 33 1 28 11
M  V30 34 1 27 21
M  V30 35 1 1 32
M  V30 36 1 1 33
M  V30 37 1 1 34
M  V30 38 1 4 35
M  V30 39 1 8 36
M  V30 40 1 9 37
M  V30 41 1 12 38
M  V30 42 1 17 39
M  V30 43 1 22 40
M  V30 44 1 23 41
M  V30 45 1 26 42
M  V30 46 1 27 43
M  V30 47 1 28 44
M  V30 48 1 29 45
M  V30 END BOND
M  V30 END CTAB
M  END
>  <Dataset>  (933) 
ChEMBL_Kinases

>  <Ligand_Instance>  (933) 
nan

>  <PDB_ID>  (933) 
nan

>  <Standardized_SMILES>  (933) 
CC(=O)Nc1nc2ccc(-c3cnc(Cl)c(NS(=O)(=O)c4ccc(F)cc4)c3)cc2s1

>  <Name>  (933) 
nan

>  <Pocket>  (933) 
nan

>  <ATP_Site>  (933) 
nan

>  <Peripheral>  (933) 
nan

>  <Num_H_Atoms_ProtBoundConf>  (933) 
nan

>  <Num_Resolved_Atoms>  (933) 
nan

>  <Num_Not_Resolved_Atoms>  (933) 
nan

$$$$
CHEMBL1617004
     RDKit          3D

  0  0  0  0  0  0  0  0  0  0999 V3000
M  V30 BEGIN CTAB
M  V30 COUNTS 32 34 0 0 0
M  V30 BEGIN ATOM
M  V30 1 O 0.774630 -0.094575 4.018277 0
M  V30 2 N 1.909540 -0.611962 3.956663 0 CHG=1 VAL=4
M  V30 3 O 2.536924 -0.917842 5.137311 0 CHG=-1 VAL=1
M  V30 4 C 2.535917 -0.870938 2.724885 0
M  V30 5 C 3.767791 -1.417691 2.565599 0
M  V30 6 C 4.285667 -1.630694 1.278917 0
M  V30 7 C 3.596789 -1.308293 0.126458 0
M  V30 8 C 2.355115 -0.757367 0.265231 0
M  V30 9 C 1.474387 -0.360906 -0.844852 0
M  V30 10 C 1.913396 -0.554332 -2.152066 0
M  V30 11 S 0.474912 0.074192 -3.214050 0
M  V30 12 C -0.455127 0.484472 -1.654197 0
M  V30 13 N -1.765601 1.039720 -1.136038 0
M  V30 14 C -2.607452 0.118254 -0.403644 0
M  V30 15 C -2.429601 0.434915 0.949950 0
M  V30 16 C -3.117138 -0.284575 1.931396 0
M  V30 17 C -3.958011 -1.296445 1.521418 0
M  V30 18 C -4.118984 -1.590971 0.206206 0
M  V30 19 C -3.447345 -0.891021 -0.789948 0
M  V30 20 N 0.284294 0.162121 -0.859286 0
M  V30 21 C 1.880404 -0.562363 1.568451 0
M  V30 22 H 4.341460 -1.691992 3.451750 0
M  V30 23 H 5.282342 -2.074641 1.177086 0
M  V30 24 H 3.987088 -1.466748 -0.860157 0
M  V30 25 H 2.964055 -1.014084 -2.548042 0
M  V30 26 H -2.064436 2.016822 -1.296027 0
M  V30 27 H -1.807770 1.194996 1.423992 0
M  V30 28 H -3.048569 -0.121371 2.998427 0
M  V30 29 H -4.511178 -1.885143 2.262086 0
M  V30 30 H -4.759070 -2.370830 -0.200217 0
M  V30 31 H -3.449528 -0.981282 -1.864962 0
M  V30 32 H 0.872984 -0.113725 1.666758 0
M  V30 END ATOM
M  V30 BEGIN BOND
M  V30 1 2 1 2
M  V30 2 1 2 3
M  V30 3 1 2 4
M  V30 4 2 4 5
M  V30 5 1 5 6
M  V30 6 2 6 7
M  V30 7 1 7 8
M  V30 8 1 8 9
M  V30 9 2 9 10
M  V30 10 1 10 11
M  V30 11 1 11 12
M  V30 12 1 12 13
M  V30 13 1 13 14
M  V30 14 2 14 15
M  V30 15 1 15 16
M  V30 16 2 16 17
M  V30 17 1 17 18
M  V30 18 2 18 19
M  V30 19 2 12 20
M  V30 20 2 8 21
M  V30 21 1 21 4
M  V30 22 1 20 9
M  V30 23 1 19 14
M  V30 24 1 5 22
M  V30 25 1 6 23
M  V30 26 1 7 24
M  V30 27 1 10 25
M  V30 28 1 13 26
M  V30 29 1 15 27
M  V30 30 1 16 28
M  V30 31 1 17 29
M  V30 32 1 18 30
M  V30 33 1 19 31
M  V30 34 1 21 32
M  V30 END BOND
M  V30 END CTAB
M  END
>  <Dataset>  (934) 
ChEMBL_Kinases

>  <Ligand_Instance>  (934) 
nan

>  <PDB_ID>  (934) 
nan

>  <Standardized_SMILES>  (934) 
O=[N+]([O-])c1cccc(-c2csc(Nc3ccccc3)n2)c1

>  <Name>  (934) 
nan

>  <Pocket>  (934) 
nan

>  <ATP_Site>  (934) 
nan

>  <Peripheral>  (934) 
nan

>  <Num_H_Atoms_ProtBoundConf>  (934) 
nan

>  <Num_Resolved_Atoms>  (934) 
nan

>  <Num_Not_Resolved_Atoms>  (934) 
nan

$$$$
CHEMBL1617811
     RDKit          3D

  0  0  0  0  0  0  0  0  0  0999 V3000
M  V30 BEGIN CTAB
M  V30 COUNTS 17 18 0 0 0
M  V30 BEGIN ATOM
M  V30 1 N -1.971151 0.717196 1.268881 0
M  V30 2 C -0.576309 0.500928 1.159963 0
M  V30 3 C -0.194115 -0.337685 0.113213 0
M  V30 4 C 1.159841 -0.580624 -0.035585 0
M  V30 5 C 2.139542 -0.045502 0.784346 0
M  V30 6 N 3.484169 -0.143519 0.823489 0
M  V30 7 C 3.914636 0.605210 1.853912 0
M  V30 8 N 2.843070 1.181777 2.473107 0
M  V30 9 C 1.715414 0.785053 1.815374 0
M  V30 10 C 0.371643 1.046794 1.989970 0
M  V30 11 H -2.392503 1.658165 1.086037 0
M  V30 12 H -2.571989 -0.096507 1.539237 0
M  V30 13 H -0.818434 -0.837375 -0.616339 0
M  V30 14 H 1.543086 -1.218319 -0.820048 0
M  V30 15 H 4.077717 -0.710526 0.157382 0
M  V30 16 H 4.959422 0.681531 2.083289 0
M  V30 17 H 0.032911 1.700460 2.800797 0
M  V30 END ATOM
M  V30 BEGIN BOND
M  V30 1 1 1 2
M  V30 2 2 2 3
M  V30 3 1 3 4
M  V30 4 2 4 5
M  V30 5 1 5 6
M  V30 6 1 6 7
M  V30 7 2 7 8
M  V30 8 1 8 9
M  V30 9 2 9 10
M  V30 10 1 10 2
M  V30 11 1 9 5
M  V30 12 1 1 11
M  V30 13 1 1 12
M  V30 14 1 3 13
M  V30 15 1 4 14
M  V30 16 1 6 15
M  V30 17 1 7 16
M  V30 18 1 10 17
M  V30 END BOND
M  V30 END CTAB
M  END
>  <Dataset>  (935) 
ChEMBL_Kinases

>  <Ligand_Instance>  (935) 
nan

>  <PDB_ID>  (935) 
nan

>  <Standardized_SMILES>  (935) 
Nc1ccc2[nH]cnc2c1

>  <Name>  (935) 
nan

>  <Pocket>  (935) 
nan

>  <ATP_Site>  (935) 
nan

>  <Peripheral>  (935) 
nan

>  <Num_H_Atoms_ProtBoundConf>  (935) 
nan

>  <Num_Resolved_Atoms>  (935) 
nan

>  <Num_Not_Resolved_Atoms>  (935) 
nan

$$$$
CHEMBL1620
     RDKit          3D

  0  0  0  0  0  0  0  0  0  0999 V3000
M  V30 BEGIN CTAB
M  V30 COUNTS 40 41 0 0 0
M  V30 BEGIN ATOM
M  V30 1 C -1.684654 -2.618256 2.267597 0
M  V30 2 N -0.728888 -3.482897 1.605428 0
M  V30 3 C -1.273756 -4.763912 1.253351 0
M  V30 4 C -0.070454 -2.790761 0.520837 0
M  V30 5 C 0.837075 -1.693421 1.027335 0
M  V30 6 O 1.363345 -1.079855 -0.065978 0
M  V30 7 C 2.184035 -0.122577 -0.093682 0
M  V30 8 C 1.143680 0.877239 -1.038876 0
M  V30 9 C 0.412154 0.123519 -1.949359 0
M  V30 10 C -0.451734 0.731723 -2.809988 0
M  V30 11 C -0.547397 2.092816 -2.709994 0
M  V30 12 C 0.187060 2.797183 -1.801106 0
M  V30 13 C 1.067013 2.254628 -0.923169 0
M  V30 14 C 1.544454 0.589566 1.376094 0
M  V30 15 C 2.501723 0.519137 2.375976 0
M  V30 16 C 2.180612 1.027201 3.584032 0
M  V30 17 C 0.929766 1.573965 3.730965 0
M  V30 18 C 0.033598 1.613486 2.711563 0
M  V30 19 C 0.259653 1.132218 1.465450 0
M  V30 20 H -1.442557 -2.279676 3.250362 0
M  V30 21 H -1.852982 -1.731525 1.562082 0
M  V30 22 H -2.632528 -3.174311 2.262926 0
M  V30 23 H -0.866069 -5.018046 0.251483 0
M  V30 24 H -2.381716 -4.606432 1.118826 0
M  V30 25 H -1.042826 -5.581713 1.936127 0
M  V30 26 H -0.830382 -2.465863 -0.192147 0
M  V30 27 H 0.577287 -3.545444 -0.024132 0
M  V30 28 H 1.730753 -2.193833 1.544654 0
M  V30 29 H 0.386178 -1.104737 1.810476 0
M  V30 30 H 2.843463 0.646681 -0.111297 0
M  V30 31 H 0.489414 -0.953918 -2.015693 0
M  V30 32 H -1.020587 0.156528 -3.516350 0
M  V30 33 H -1.204733 2.605472 -3.369441 0
M  V30 34 H 0.139014 3.867992 -1.701766 0
M  V30 35 H 1.708907 2.627007 -0.158753 0
M  V30 36 H 3.478552 0.059155 2.139254 0
M  V30 37 H 2.900632 0.985349 4.384147 0
M  V30 38 H 0.623638 1.980074 4.692650 0
M  V30 39 H -0.971534 2.031328 2.763825 0
M  V30 40 H -0.315731 1.066463 0.552120 0
M  V30 END ATOM
M  V30 BEGIN BOND
M  V30 1 1 1 2
M  V30 2 1 2 3
M  V30 3 1 2 4
M  V30 4 1 4 5
M  V30 5 1 5 6
M  V30 6 1 6 7
M  V30 7 1 7 8
M  V30 8 2 8 9
M  V30 9 1 9 10
M  V30 10 2 10 11
M  V30 11 1 11 12
M  V30 12 2 12 13
M  V30 13 1 7 14
M  V30 14 2 14 15
M  V30 15 1 15 16
M  V30 16 2 16 17
M  V30 17 1 17 18
M  V30 18 2 18 19
M  V30 19 1 13 8
M  V30 20 1 19 14
M  V30 21 1 1 20
M  V30 22 1 1 21
M  V30 23 1 1 22
M  V30 24 1 3 23
M  V30 25 1 3 24
M  V30 26 1 3 25
M  V30 27 1 4 26
M  V30 28 1 4 27
M  V30 29 1 5 28
M  V30 30 1 5 29
M  V30 31 1 7 30
M  V30 32 1 9 31
M  V30 33 1 10 32
M  V30 34 1 11 33
M  V30 35 1 12 34
M  V30 36 1 13 35
M  V30 37 1 15 36
M  V30 38 1 16 37
M  V30 39 1 17 38
M  V30 40 1 18 39
M  V30 41 1 19 40
M  V30 END BOND
M  V30 END CTAB
M  END
>  <Dataset>  (936) 
ChEMBL_Kinases

>  <Ligand_Instance>  (936) 
nan

>  <PDB_ID>  (936) 
nan

>  <Standardized_SMILES>  (936) 
CN(C)CCOC(c1ccccc1)c1ccccc1

>  <Name>  (936) 
DIPHENHYDRAMINE HYDROCHLORIDE

>  <Pocket>  (936) 
nan

>  <ATP_Site>  (936) 
nan

>  <Peripheral>  (936) 
nan

>  <Num_H_Atoms_ProtBoundConf>  (936) 
nan

>  <Num_Resolved_Atoms>  (936) 
nan

>  <Num_Not_Resolved_Atoms>  (936) 
nan

$$$$
CHEMBL1621959
     RDKit          3D

  0  0  0  0  0  0  0  0  0  0999 V3000
M  V30 BEGIN CTAB
M  V30 COUNTS 33 35 0 0 0
M  V30 BEGIN ATOM
M  V30 1 O 1.124891 -5.746831 4.247600 0
M  V30 2 C 1.065254 -4.506639 4.061872 0
M  V30 3 O 1.372262 -3.678346 5.113503 0
M  V30 4 C 0.674574 -4.040563 2.743752 0
M  V30 5 C 0.390730 -4.945497 1.769633 0
M  V30 6 C 0.020722 -4.505740 0.521244 0
M  V30 7 C -0.089536 -3.156331 0.165371 0
M  V30 8 N -0.472841 -2.723469 -1.128240 0
M  V30 9 C -0.562077 -1.288981 -1.410088 0
M  V30 10 N -0.435409 -0.258136 -0.965487 0
M  V30 11 C -0.617913 0.920390 -1.567361 0
M  V30 12 C -0.421858 2.195902 -0.883855 0
M  V30 13 C -0.034643 2.337834 0.431491 0
M  V30 14 C 0.153900 3.520585 1.088303 0
M  V30 15 C -0.054656 4.692421 0.398168 0
M  V30 16 C -0.444268 4.642698 -0.923953 0
M  V30 17 C -0.612661 3.407106 -1.513200 0
M  V30 18 C -1.014947 0.882050 -2.914546 0
M  V30 19 S -1.092135 -0.985290 -3.203483 0
M  V30 20 C 0.215093 -2.315562 1.209098 0
M  V30 21 C 0.590874 -2.699293 2.477792 0
M  V30 22 H 1.662840 -4.074847 6.013758 0
M  V30 23 H 0.446941 -6.015163 1.945993 0
M  V30 24 H -0.203878 -5.251709 -0.249938 0
M  V30 25 H -0.662289 -3.487062 -1.781751 0
M  V30 26 H 0.139963 1.424741 1.010261 0
M  V30 27 H 0.463278 3.529051 2.137703 0
M  V30 28 H 0.079115 5.653281 0.865957 0
M  V30 29 H -0.604913 5.561158 -1.455295 0
M  V30 30 H -0.918302 3.451361 -2.549165 0
M  V30 31 H -1.208073 1.714703 -3.557477 0
M  V30 32 H 0.171449 -1.244903 1.075361 0
M  V30 33 H 0.819493 -1.990990 3.262089 0
M  V30 END ATOM
M  V30 BEGIN BOND
M  V30 1 2 1 2
M  V30 2 1 2 3
M  V30 3 1 2 4
M  V30 4 2 4 5
M  V30 5 1 5 6
M  V30 6 2 6 7
M  V30 7 1 7 8
M  V30 8 1 8 9
M  V30 9 2 9 10
M  V30 10 1 10 11
M  V30 11 1 11 12
M  V30 12 2 12 13
M  V30 13 1 13 14
M  V30 14 2 14 15
M  V30 15 1 15 16
M  V30 16 2 16 17
M  V30 17 2 11 18
M  V30 18 1 18 19
M  V30 19 1 7 20
M  V30 20 2 20 21
M  V30 21 1 21 4
M  V30 22 1 19 9
M  V30 23 1 17 12
M  V30 24 1 3 22
M  V30 25 1 5 23
M  V30 26 1 6 24
M  V30 27 1 8 25
M  V30 28 1 13 26
M  V30 29 1 14 27
M  V30 30 1 15 28
M  V30 31 1 16 29
M  V30 32 1 17 30
M  V30 33 1 18 31
M  V30 34 1 20 32
M  V30 35 1 21 33
M  V30 END BOND
M  V30 END CTAB
M  END
>  <Dataset>  (937) 
ChEMBL_Kinases

>  <Ligand_Instance>  (937) 
nan

>  <PDB_ID>  (937) 
nan

>  <Standardized_SMILES>  (937) 
O=C(O)c1ccc(Nc2nc(-c3ccccc3)cs2)cc1

>  <Name>  (937) 
nan

>  <Pocket>  (937) 
nan

>  <ATP_Site>  (937) 
nan

>  <Peripheral>  (937) 
nan

>  <Num_H_Atoms_ProtBoundConf>  (937) 
nan

>  <Num_Resolved_Atoms>  (937) 
nan

>  <Num_Not_Resolved_Atoms>  (937) 
nan

$$$$
CHEMBL1625188
     RDKit          3D

  0  0  0  0  0  0  0  0  0  0999 V3000
M  V30 BEGIN CTAB
M  V30 COUNTS 58 60 0 0 0
M  V30 BEGIN ATOM
M  V30 1 C 2.288494 -5.912788 5.304827 0
M  V30 2 O 1.842897 -5.608982 3.998012 0
M  V30 3 C 2.241788 -4.411505 3.421724 0
M  V30 4 C 3.056008 -3.505603 4.068537 0
M  V30 5 C 3.482782 -2.303657 3.544871 0
M  V30 6 C 3.066597 -1.972120 2.272048 0
M  V30 7 C 3.499421 -0.698196 1.647319 0
M  V30 8 C 2.591834 0.462550 1.942385 0
M  V30 9 N 3.053517 1.684087 1.309740 0
M  V30 10 C 2.947395 1.678996 -0.117148 0
M  V30 11 C 1.504189 1.550112 -0.525048 0
M  V30 12 C 0.855945 2.771593 -0.702693 0
M  V30 13 C -0.456220 2.864543 -1.067924 0
M  V30 14 C -1.212429 1.719574 -1.280936 0
M  V30 15 O -2.523918 1.660665 -1.646506 0
M  V30 16 C -3.411864 2.690541 -1.899296 0
M  V30 17 C -4.722206 2.065851 -2.257194 0
M  V30 18 C -5.601271 1.826549 -1.223747 0
M  V30 19 C -6.856280 1.245207 -1.442414 0
M  V30 20 C -7.129010 0.936349 -2.778413 0
M  V30 21 Cl -8.636195 0.198450 -3.318797 0
M  V30 22 N -6.272624 1.166556 -3.805049 0
M  V30 23 C -5.061516 1.735120 -3.541864 0
M  V30 24 C -0.549533 0.522456 -1.098998 0
M  V30 25 O -1.226622 -0.680585 -1.289945 0
M  V30 26 C -0.647382 -1.935394 -1.130693 0
M  V30 27 C 0.772969 0.403768 -0.731353 0
M  V30 28 C 2.240550 -2.867317 1.588363 0
M  V30 29 C 1.821334 -4.073065 2.131760 0
M  V30 30 O 1.014939 -4.979545 1.500550 0
M  V30 31 C 0.462870 -4.894400 0.226984 0
M  V30 32 H 3.359616 -5.733618 5.473054 0
M  V30 33 H 1.718165 -5.345319 6.074831 0
M  V30 34 H 2.079120 -6.992262 5.499756 0
M  V30 35 H 3.409069 -3.734429 5.085671 0
M  V30 36 H 4.134252 -1.647363 4.143545 0
M  V30 37 H 3.619755 -0.861615 0.564977 0
M  V30 38 H 4.521517 -0.467204 2.030124 0
M  V30 39 H 2.615793 0.681236 3.042496 0
M  V30 40 H 1.561335 0.191089 1.721510 0
M  V30 41 H 2.543389 2.509811 1.681345 0
M  V30 42 H 3.382325 2.610567 -0.503327 0
M  V30 43 H 3.489036 0.828752 -0.525990 0
M  V30 44 H 1.344653 3.728459 -0.564763 0
M  V30 45 H -0.967341 3.807463 -1.208376 0
M  V30 46 H -3.521990 3.468007 -1.150178 0
M  V30 47 H -3.083848 3.230031 -2.836884 0
M  V30 48 H -5.401718 2.060713 -0.190105 0
M  V30 49 H -7.607026 1.018987 -0.716205 0
M  V30 50 H -4.318435 1.954834 -4.289829 0
M  V30 51 H -0.666015 -2.143479 -0.020895 0
M  V30 52 H 0.346538 -2.029809 -1.572983 0
M  V30 53 H -1.351341 -2.699783 -1.565489 0
M  V30 54 H 1.325110 -0.495019 -0.579707 0
M  V30 55 H 1.909641 -2.622555 0.600529 0
M  V30 56 H -0.597381 -4.579883 0.294170 0
M  V30 57 H 0.455683 -5.902779 -0.246120 0
M  V30 58 H 1.008248 -4.212495 -0.452996 0
M  V30 END ATOM
M  V30 BEGIN BOND
M  V30 1 1 1 2
M  V30 2 1 2 3
M  V30 3 2 3 4
M  V30 4 1 4 5
M  V30 5 2 5 6
M  V30 6 1 6 7
M  V30 7 1 7 8
M  V30 8 1 8 9
M  V30 9 1 9 10
M  V30 10 1 10 11
M  V30 11 2 11 12
M  V30 12 1 12 13
M  V30 13 2 13 14
M  V30 14 1 14 15
M  V30 15 1 15 16
M  V30 16 1 16 17
M  V30 17 2 17 18
M  V30 18 1 18 19
M  V30 19 2 19 20
M  V30 20 1 20 21
M  V30 21 1 20 22
M  V30 22 2 22 23
M  V30 23 1 14 24
M  V30 24 1 24 25
M  V30 25 1 25 26
M  V30 26 2 24 27
M  V30 27 1 6 28
M  V30 28 2 28 29
M  V30 29 1 29 30
M  V30 30 1 30 31
M  V30 31 1 29 3
M  V30 32 1 27 11
M  V30 33 1 23 17
M  V30 34 1 1 32
M  V30 35 1 1 33
M  V30 36 1 1 34
M  V30 37 1 4 35
M  V30 38 1 5 36
M  V30 39 1 7 37
M  V30 40 1 7 38
M  V30 41 1 8 39
M  V30 42 1 8 40
M  V30 43 1 9 41
M  V30 44 1 10 42
M  V30 45 1 10 43
M  V30 46 1 12 44
M  V30 47 1 13 45
M  V30 48 1 16 46
M  V30 49 1 16 47
M  V30 50 1 18 48
M  V30 51 1 19 49
M  V30 52 1 23 50
M  V30 53 1 26 51
M  V30 54 1 26 52
M  V30 55 1 26 53
M  V30 56 1 27 54
M  V30 57 1 28 55
M  V30 58 1 31 56
M  V30 59 1 31 57
M  V30 60 1 31 58
M  V30 END BOND
M  V30 END CTAB
M  END
>  <Dataset>  (938) 
ChEMBL_Kinases

>  <Ligand_Instance>  (938) 
nan

>  <PDB_ID>  (938) 
nan

>  <Standardized_SMILES>  (938) 
COc1ccc(CCNCc2ccc(OCc3ccc(Cl)nc3)c(OC)c2)cc1OC

>  <Name>  (938) 
nan

>  <Pocket>  (938) 
nan

>  <ATP_Site>  (938) 
nan

>  <Peripheral>  (938) 
nan

>  <Num_H_Atoms_ProtBoundConf>  (938) 
nan

>  <Num_Resolved_Atoms>  (938) 
nan

>  <Num_Not_Resolved_Atoms>  (938) 
nan

$$$$
CHEMBL163
     RDKit          3D

  0  0  0  0  0  0  0  0  0  0999 V3000
M  V30 BEGIN CTAB
M  V30 COUNTS 98 101 0 0 0
M  V30 BEGIN ATOM
M  V30 1 C 5.221880 -1.833208 3.156008 0
M  V30 2 C 5.626199 -0.384728 2.933429 0
M  V30 3 C 6.558276 -0.317014 1.741917 0
M  V30 4 C 4.409302 0.420040 2.749124 0
M  V30 5 N 3.751883 1.399943 3.231352 0
M  V30 6 C 2.622439 1.765526 2.653658 0
M  V30 7 C 1.838977 2.917948 3.243550 0
M  V30 8 N 0.929344 2.400976 4.254695 0
M  V30 9 C 1.562417 2.333285 5.556893 0
M  V30 10 C -0.440516 1.973749 4.132773 0
M  V30 11 O -0.982066 1.513273 5.195941 0
M  V30 12 N -1.232194 2.026001 2.925072 0
M  V30 13 C -2.575499 1.533135 3.046076 0 CFG=2
M  V30 14 C -2.811658 0.569742 1.918986 0
M  V30 15 O -3.865144 -0.114696 2.050184 0
M  V30 16 N -2.014725 0.349981 0.756858 0
M  V30 17 C -2.460192 -0.662139 -0.199827 0 CFG=1
M  V30 18 C -3.538545 -0.101109 -1.049139 0
M  V30 19 C -4.131034 -0.981800 -2.050509 0
M  V30 20 C -3.867507 -1.159568 -3.389255 0
M  V30 21 C -4.522007 -2.070602 -4.188050 0
M  V30 22 C -5.498613 -2.858088 -3.636599 0
M  V30 23 C -5.856253 -2.775739 -2.307040 0
M  V30 24 C -5.147431 -1.830433 -1.567465 0
M  V30 25 C -1.343893 -1.391846 -0.824784 0
M  V30 26 C -0.336102 -0.564306 -1.573186 0 CFG=2
M  V30 27 O -0.873226 0.141562 -2.604236 0
M  V30 28 C 0.876733 -1.363722 -1.920454 0 CFG=2
M  V30 29 C 2.067821 -0.543922 -2.356875 0
M  V30 30 C 1.864471 0.288648 -3.537302 0
M  V30 31 C 1.461822 1.616379 -3.528087 0
M  V30 32 C 1.252618 2.425611 -4.619402 0
M  V30 33 C 1.463740 1.868448 -5.888774 0
M  V30 34 C 1.871568 0.529785 -5.956654 0
M  V30 35 C 2.068100 -0.243059 -4.816622 0
M  V30 36 N 0.596873 -2.357611 -2.942783 0
M  V30 37 C 0.876966 -3.764264 -2.735027 0
M  V30 38 O 1.370510 -4.021386 -1.608637 0
M  V30 39 O 0.637759 -4.733451 -3.661216 0
M  V30 40 C 0.919528 -6.095762 -3.457271 0
M  V30 41 C 0.196893 -6.635861 -2.342694 0
M  V30 42 C 0.430897 -6.803760 -1.000181 0
M  V30 43 N -0.501287 -7.365553 -0.245355 0
M  V30 44 C -1.549637 -7.751950 -0.614408 0
M  V30 45 S -1.501255 -7.351075 -2.492790 0
M  V30 46 C -3.540871 2.712894 2.830095 0
M  V30 47 C -3.297360 3.776177 3.852580 0
M  V30 48 C -4.976612 2.249474 2.915522 0
M  V30 49 C 2.081245 1.095899 1.474887 0
M  V30 50 S 3.388920 -0.146086 1.271060 0
M  V30 51 H 5.717920 -2.264826 4.033719 0
M  V30 52 H 5.504181 -2.440260 2.266521 0
M  V30 53 H 4.108624 -1.922537 3.327174 0
M  V30 54 H 6.142853 -0.008424 3.835150 0
M  V30 55 H 6.605226 0.728467 1.339384 0
M  V30 56 H 7.575892 -0.655499 1.993777 0
M  V30 57 H 6.199312 -0.937168 0.904498 0
M  V30 58 H 1.197052 3.388435 2.472031 0
M  V30 59 H 2.520738 3.654916 3.666358 0
M  V30 60 H 1.846463 3.390341 5.800365 0
M  V30 61 H 2.437397 1.682711 5.608141 0
M  V30 62 H 0.831493 1.993059 6.326609 0
M  V30 63 H -0.747688 2.412816 2.099135 0
M  V30 64 H -2.766310 1.133736 4.024498 0
M  V30 65 H -1.167533 0.966404 0.723444 0
M  V30 66 H -3.019885 -1.404668 0.474912 0
M  V30 67 H -4.366434 0.197256 -0.330927 0
M  V30 68 H -3.304131 0.860917 -1.558642 0
M  V30 69 H -3.119705 -0.539691 -3.813001 0
M  V30 70 H -4.226343 -2.121261 -5.246848 0
M  V30 71 H -6.024698 -3.583711 -4.253411 0
M  V30 72 H -6.611707 -3.383716 -1.870037 0
M  V30 73 H -5.457966 -1.790810 -0.514561 0
M  V30 74 H -0.834477 -1.977283 -0.029441 0
M  V30 75 H -1.797367 -2.182352 -1.484120 0
M  V30 76 H 0.007014 0.220353 -0.826624 0
M  V30 77 H -1.111154 1.079869 -2.393722 0
M  V30 78 H 1.238524 -1.931652 -1.036649 0
M  V30 79 H 2.878135 -1.304467 -2.561497 0
M  V30 80 H 2.474506 0.060569 -1.523699 0
M  V30 81 H 1.318367 1.979474 -2.504013 0
M  V30 82 H 0.938136 3.449604 -4.489448 0
M  V30 83 H 1.317080 2.449193 -6.774234 0
M  V30 84 H 2.028441 0.109466 -6.945470 0
M  V30 85 H 2.388222 -1.283699 -4.958623 0
M  V30 86 H 0.183459 -2.140212 -3.882593 0
M  V30 87 H 0.737385 -6.700847 -4.376187 0
M  V30 88 H 2.026941 -6.248907 -3.263546 0
M  V30 89 H 1.347530 -6.504218 -0.518662 0
M  V30 90 H -2.419239 -8.218558 -0.197000 0
M  V30 91 H -3.295781 3.134222 1.824218 0
M  V30 92 H -2.893324 3.372813 4.775496 0
M  V30 93 H -4.267892 4.310296 4.043447 0
M  V30 94 H -2.611313 4.580379 3.487938 0
M  V30 95 H -5.596417 3.067836 3.386556 0
M  V30 96 H -5.390314 2.151895 1.877415 0
M  V30 97 H -5.117833 1.335666 3.519817 0
M  V30 98 H 1.233476 1.324614 0.991948 0
M  V30 END ATOM
M  V30 BEGIN BOND
M  V30 1 1 1 2
M  V30 2 1 2 3
M  V30 3 1 2 4
M  V30 4 2 4 5
M  V30 5 1 5 6
M  V30 6 1 6 7
M  V30 7 1 7 8
M  V30 8 1 8 9
M  V30 9 1 8 10
M  V30 10 2 10 11
M  V30 11 1 10 12
M  V30 12 1 12 13
M  V30 13 1 13 14
M  V30 14 2 14 15
M  V30 15 1 14 16
M  V30 16 1 16 17
M  V30 17 1 17 18
M  V30 18 1 18 19
M  V30 19 2 19 20
M  V30 20 1 20 21
M  V30 21 2 21 22
M  V30 22 1 22 23
M  V30 23 2 23 24
M  V30 24 1 17 25
M  V30 25 1 25 26
M  V30 26 1 26 27
M  V30 27 1 26 28
M  V30 28 1 28 29
M  V30 29 1 29 30
M  V30 30 2 30 31
M  V30 31 1 31 32
M  V30 32 2 32 33
M  V30 33 1 33 34
M  V30 34 2 34 35
M  V30 35 1 28 36
M  V30 36 1 36 37
M  V30 37 2 37 38
M  V30 38 1 37 39
M  V30 39 1 39 40
M  V30 40 1 40 41
M  V30 41 2 41 42
M  V30 42 1 42 43
M  V30 43 2 43 44
M  V30 44 1 44 45
M  V30 45 1 13 46
M  V30 46 1 46 47
M  V30 47 1 46 48
M  V30 48 2 6 49
M  V30 49 1 49 50
M  V30 50 1 50 4
M  V30 51 1 24 19
M  V30 52 1 35 30
M  V30 53 1 45 41
M  V30 54 1 1 51
M  V30 55 1 1 52
M  V30 56 1 1 53
M  V30 57 1 2 54
M  V30 58 1 3 55
M  V30 59 1 3 56
M  V30 60 1 3 57
M  V30 61 1 7 58
M  V30 62 1 7 59
M  V30 63 1 9 60
M  V30 64 1 9 61
M  V30 65 1 9 62
M  V30 66 1 12 63
M  V30 67 1 13 64 CFG=1
M  V30 68 1 16 65
M  V30 69 1 17 66 CFG=1
M  V30 70 1 18 67
M  V30 71 1 18 68
M  V30 72 1 20 69
M  V30 73 1 21 70
M  V30 74 1 22 71
M  V30 75 1 23 72
M  V30 76 1 24 73
M  V30 77 1 25 74
M  V30 78 1 25 75
M  V30 79 1 26 76 CFG=1
M  V30 80 1 27 77
M  V30 81 1 28 78 CFG=1
M  V30 82 1 29 79
M  V30 83 1 29 80
M  V30 84 1 31 81
M  V30 85 1 32 82
M  V30 86 1 33 83
M  V30 87 1 34 84
M  V30 88 1 35 85
M  V30 89 1 36 86
M  V30 90 1 40 87
M  V30 91 1 40 88
M  V30 92 1 42 89
M  V30 93 1 44 90
M  V30 94 1 46 91
M  V30 95 1 47 92
M  V30 96 1 47 93
M  V30 97 1 47 94
M  V30 98 1 48 95
M  V30 99 1 48 96
M  V30 100 1 48 97
M  V30 101 1 49 98
M  V30 END BOND
M  V30 END CTAB
M  END
>  <Dataset>  (939) 
ChEMBL_Kinases

>  <Ligand_Instance>  (939) 
nan

>  <PDB_ID>  (939) 
nan

>  <Standardized_SMILES>  (939) 
CC(C)c1nc(CN(C)C(=O)N[C@H](C(=O)N[C@@H](Cc2ccccc2)C[C@H](O)[C@H](Cc2ccccc2)NC(=O)OCc2cncs2)C(C)C)cs1

>  <Name>  (939) 
RITONAVIR

>  <Pocket>  (939) 
nan

>  <ATP_Site>  (939) 
nan

>  <Peripheral>  (939) 
nan

>  <Num_H_Atoms_ProtBoundConf>  (939) 
nan

>  <Num_Resolved_Atoms>  (939) 
nan

>  <Num_Not_Resolved_Atoms>  (939) 
nan

$$$$
CHEMBL1633
     RDKit          3D

  0  0  0  0  0  0  0  0  0  0999 V3000
M  V30 BEGIN CTAB
M  V30 COUNTS 41 44 0 0 0
M  V30 BEGIN ATOM
M  V30 1 C -1.383674 -3.535194 1.688931 0
M  V30 2 N -0.609295 -2.973098 2.740202 0
M  V30 3 C 0.817055 -3.146590 2.630420 0
M  V30 4 C 1.518468 -1.835308 2.427772 0
M  V30 5 C 0.688389 -0.824750 1.678694 0
M  V30 6 C 0.819589 -0.256392 0.475725 0
M  V30 7 C -0.223165 0.722486 0.048126 0
M  V30 8 C -1.471483 0.160148 0.276908 0
M  V30 9 C -2.516993 0.988926 -0.056682 0
M  V30 10 C -2.275399 2.267030 -0.575086 0
M  V30 11 C -0.973909 2.745389 -0.771607 0
M  V30 12 C 0.145550 1.962255 -0.455755 0
M  V30 13 C 1.360593 2.716915 -0.767107 0
M  V30 14 C 2.522054 1.887943 -1.089762 0
M  V30 15 O 3.530925 2.474653 -1.545671 0
M  V30 16 C 2.761177 0.453569 -0.986418 0
M  V30 17 S 4.151026 -0.423994 -1.777371 0
M  V30 18 C 3.646279 -2.114952 -1.153670 0
M  V30 19 C 2.493822 -1.853133 -0.419881 0
M  V30 20 C 2.029694 -0.601434 -0.314225 0
M  V30 21 C -0.319894 -0.506745 2.718621 0
M  V30 22 C -1.009788 -1.712281 3.244851 0
M  V30 23 H -2.303531 -2.955569 1.458738 0
M  V30 24 H -1.676192 -4.567550 2.019363 0
M  V30 25 H -0.761412 -3.687447 0.771221 0
M  V30 26 H 1.028991 -3.823144 1.798496 0
M  V30 27 H 1.239211 -3.628602 3.541819 0
M  V30 28 H 1.689230 -1.474393 3.510780 0
M  V30 29 H 2.508768 -1.903167 1.988791 0
M  V30 30 H -1.513006 -0.835464 0.658992 0
M  V30 31 H -3.504597 0.597612 0.104582 0
M  V30 32 H -3.133540 2.908584 -0.833285 0
M  V30 33 H -0.853040 3.734148 -1.173171 0
M  V30 34 H 1.166786 3.416354 -1.619519 0
M  V30 35 H 1.608493 3.310896 0.162097 0
M  V30 36 H 4.162569 -2.984413 -1.356317 0
M  V30 37 H 2.000324 -2.700182 0.019840 0
M  V30 38 H -0.955269 0.364441 2.512052 0
M  V30 39 H 0.275576 -0.105728 3.634785 0
M  V30 40 H -2.101752 -1.595729 2.977830 0
M  V30 41 H -1.025794 -1.762141 4.360970 0
M  V30 END ATOM
M  V30 BEGIN BOND
M  V30 1 1 1 2
M  V30 2 1 2 3
M  V30 3 1 3 4
M  V30 4 1 4 5
M  V30 5 2 5 6 CFG=2
M  V30 6 1 6 7
M  V30 7 2 7 8
M  V30 8 1 8 9
M  V30 9 2 9 10
M  V30 10 1 10 11
M  V30 11 2 11 12
M  V30 12 1 12 13
M  V30 13 1 13 14
M  V30 14 2 14 15
M  V30 15 1 14 16
M  V30 16 1 16 17
M  V30 17 1 17 18
M  V30 18 2 18 19
M  V30 19 1 19 20
M  V30 20 1 5 21
M  V30 21 1 21 22
M  V30 22 1 22 2
M  V30 23 1 20 6
M  V30 24 1 12 7
M  V30 25 2 20 16
M  V30 26 1 1 23
M  V30 27 1 1 24
M  V30 28 1 1 25
M  V30 29 1 3 26
M  V30 30 1 3 27
M  V30 31 1 4 28
M  V30 32 1 4 29
M  V30 33 1 8 30
M  V30 34 1 9 31
M  V30 35 1 10 32
M  V30 36 1 11 33
M  V30 37 1 13 34
M  V30 38 1 13 35
M  V30 39 1 18 36
M  V30 40 1 19 37
M  V30 41 1 21 38
M  V30 42 1 21 39
M  V30 43 1 22 40
M  V30 44 1 22 41
M  V30 END BOND
M  V30 END CTAB
M  END
>  <Dataset>  (940) 
ChEMBL_Kinases

>  <Ligand_Instance>  (940) 
nan

>  <PDB_ID>  (940) 
nan

>  <Standardized_SMILES>  (940) 
CN1CCC(=C2c3ccccc3CC(=O)c3sccc32)CC1

>  <Name>  (940) 
KETOTIFEN FUMARATE

>  <Pocket>  (940) 
nan

>  <ATP_Site>  (940) 
nan

>  <Peripheral>  (940) 
nan

>  <Num_H_Atoms_ProtBoundConf>  (940) 
nan

>  <Num_Resolved_Atoms>  (940) 
nan

>  <Num_Not_Resolved_Atoms>  (940) 
nan

$$$$
CHEMBL1643147
     RDKit          3D

  0  0  0  0  0  0  0  0  0  0999 V3000
M  V30 BEGIN CTAB
M  V30 COUNTS 71 74 0 0 0
M  V30 BEGIN ATOM
M  V30 1 C 4.448862 -5.178645 5.906226 0
M  V30 2 O 4.506112 -3.764439 5.880308 0
M  V30 3 C 4.263147 -3.107601 4.666347 0
M  V30 4 C 4.313377 -1.712580 4.613084 0
M  V30 5 C 4.073354 -1.073186 3.415693 0
M  V30 6 C 3.782433 -1.756114 2.254180 0
M  V30 7 C 3.545171 -0.984492 1.043394 0
M  V30 8 O 3.615716 0.269382 1.120440 0
M  V30 9 N 3.240583 -1.591175 -0.206315 0
M  V30 10 C 3.006346 -0.841801 -1.399032 0
M  V30 11 C 4.159529 -0.595113 -2.152565 0
M  V30 12 C 3.997182 0.127157 -3.321007 0
M  V30 13 C 2.755724 0.596381 -3.746930 0
M  V30 14 C 1.684850 0.299319 -2.932713 0
M  V30 15 C 1.749879 -0.408328 -1.760350 0
M  V30 16 C 0.597004 -0.704326 -0.924165 0
M  V30 17 O 0.858313 -1.365730 0.112320 0
M  V30 18 N -0.699342 -0.280591 -1.257268 0
M  V30 19 C -1.906314 -0.504483 -0.526808 0
M  V30 20 C -2.818726 -1.327642 -1.390059 0
M  V30 21 C -2.124807 -2.609509 -1.686495 0
M  V30 22 C -1.322901 -2.646977 -2.833194 0
M  V30 23 C -0.661652 -3.815332 -3.145192 0
M  V30 24 C -0.776252 -4.936704 -2.353731 0
M  V30 25 O -0.133188 -6.129035 -2.625897 0
M  V30 26 C -1.566021 -4.907876 -1.219898 0
M  V30 27 C -2.243528 -3.729765 -0.889637 0
M  V30 28 C -2.538402 0.753923 -0.058219 0
M  V30 29 O -1.574786 1.342536 -0.613453 0
M  V30 30 N -3.748689 0.755794 0.686149 0
M  V30 31 C -4.132673 2.109115 1.008102 0
M  V30 32 C -3.724891 2.737956 2.154145 0
M  V30 33 C -4.132454 4.025438 2.388785 0
M  V30 34 C -4.941445 4.668412 1.476888 0
M  V30 35 C -5.346327 6.063105 1.793286 0
M  V30 36 C -5.336617 4.011253 0.331874 0
M  V30 37 C -4.951517 2.707714 0.047470 0
M  V30 38 C -5.383323 2.005806 -1.192038 0
M  V30 39 C 3.734562 -3.123228 2.312445 0
M  V30 40 C 3.972418 -3.776235 3.502854 0
M  V30 41 H 3.483617 -5.507128 5.442911 0
M  V30 42 H 4.474573 -5.551927 6.943072 0
M  V30 43 H 5.263064 -5.594305 5.287085 0
M  V30 44 H 4.543419 -1.176586 5.532423 0
M  V30 45 H 4.132079 0.006285 3.462799 0
M  V30 46 H 3.177512 -2.627743 -0.291495 0
M  V30 47 H 5.135568 -0.946827 -1.846646 0
M  V30 48 H 4.863317 0.350800 -3.951518 0
M  V30 49 H 2.684632 1.153607 -4.664110 0
M  V30 50 H 0.730434 0.670776 -3.278158 0
M  V30 51 H -0.899205 0.266818 -2.119802 0
M  V30 52 H -1.661345 -1.087822 0.382777 0
M  V30 53 H -3.073583 -0.859497 -2.339948 0
M  V30 54 H -3.788247 -1.548403 -0.860582 0
M  V30 55 H -1.243485 -1.749727 -3.448625 0
M  V30 56 H -0.038761 -3.860152 -4.027173 0
M  V30 57 H 0.295876 -6.358897 -3.506155 0
M  V30 58 H -1.674117 -5.786824 -0.572924 0
M  V30 59 H -2.860140 -3.688796 -0.014581 0
M  V30 60 H -4.133762 -0.187064 0.862684 0
M  V30 61 H -3.089463 2.194512 2.842801 0
M  V30 62 H -3.793574 4.496012 3.303843 0
M  V30 63 H -5.541891 6.623670 0.864229 0
M  V30 64 H -4.464618 6.566349 2.271901 0
M  V30 65 H -6.177356 6.098342 2.519918 0
M  V30 66 H -5.978379 4.525231 -0.388678 0
M  V30 67 H -6.390524 1.556820 -1.107510 0
M  V30 68 H -4.692775 1.148788 -1.337930 0
M  V30 69 H -5.318060 2.668053 -2.081657 0
M  V30 70 H 3.508871 -3.688040 1.418546 0
M  V30 71 H 3.922889 -4.838139 3.493080 0
M  V30 END ATOM
M  V30 BEGIN BOND
M  V30 1 1 1 2
M  V30 2 1 2 3
M  V30 3 2 3 4
M  V30 4 1 4 5
M  V30 5 2 5 6
M  V30 6 1 6 7
M  V30 7 2 7 8
M  V30 8 1 7 9
M  V30 9 1 9 10
M  V30 10 2 10 11
M  V30 11 1 11 12
M  V30 12 2 12 13
M  V30 13 1 13 14
M  V30 14 2 14 15
M  V30 15 1 15 16
M  V30 16 2 16 17
M  V30 17 1 16 18
M  V30 18 1 18 19
M  V30 19 1 19 20
M  V30 20 1 20 21
M  V30 21 2 21 22
M  V30 22 1 22 23
M  V30 23 2 23 24
M  V30 24 1 24 25
M  V30 25 1 24 26
M  V30 26 2 26 27
M  V30 27 1 19 28
M  V30 28 2 28 29
M  V30 29 1 28 30
M  V30 30 1 30 31
M  V30 31 2 31 32
M  V30 32 1 32 33
M  V30 33 2 33 34
M  V30 34 1 34 35
M  V30 35 1 34 36
M  V30 36 2 36 37
M  V30 37 1 37 38
M  V30 38 1 6 39
M  V30 39 2 39 40
M  V30 40 1 40 3
M  V30 41 1 15 10
M  V30 42 1 27 21
M  V30 43 1 37 31
M  V30 44 1 1 41
M  V30 45 1 1 42
M  V30 46 1 1 43
M  V30 47 1 4 44
M  V30 48 1 5 45
M  V30 49 1 9 46
M  V30 50 1 11 47
M  V30 51 1 12 48
M  V30 52 1 13 49
M  V30 53 1 14 50
M  V30 54 1 18 51
M  V30 55 1 19 52
M  V30 56 1 20 53
M  V30 57 1 20 54
M  V30 58 1 22 55
M  V30 59 1 23 56
M  V30 60 1 25 57
M  V30 61 1 26 58
M  V30 62 1 27 59
M  V30 63 1 30 60
M  V30 64 1 32 61
M  V30 65 1 33 62
M  V30 66 1 35 63
M  V30 67 1 35 64
M  V30 68 1 35 65
M  V30 69 1 36 66
M  V30 70 1 38 67
M  V30 71 1 38 68
M  V30 72 1 38 69
M  V30 73 1 39 70
M  V30 74 1 40 71
M  V30 END BOND
M  V30 END CTAB
M  END
>  <Dataset>  (941) 
ChEMBL_Kinases

>  <Ligand_Instance>  (941) 
nan

>  <PDB_ID>  (941) 
nan

>  <Standardized_SMILES>  (941) 
COc1ccc(C(=O)Nc2ccccc2C(=O)NC(Cc2ccc(O)cc2)C(=O)Nc2ccc(C)cc2C)cc1

>  <Name>  (941) 
nan

>  <Pocket>  (941) 
nan

>  <ATP_Site>  (941) 
nan

>  <Peripheral>  (941) 
nan

>  <Num_H_Atoms_ProtBoundConf>  (941) 
nan

>  <Num_Resolved_Atoms>  (941) 
nan

>  <Num_Not_Resolved_Atoms>  (941) 
nan

$$$$
CHEMBL16410
     RDKit          3D

  0  0  0  0  0  0  0  0  0  0999 V3000
M  V30 BEGIN CTAB
M  V30 COUNTS 47 48 0 0 0
M  V30 BEGIN ATOM
M  V30 1 C -2.396659 -1.136567 3.047558 0
M  V30 2 C -2.377673 -2.329164 2.157432 0
M  V30 3 C -1.057476 -2.748218 1.631718 0
M  V30 4 N -0.277728 -1.882012 0.846551 0
M  V30 5 C 1.027549 -2.546734 0.659639 0
M  V30 6 C 0.931782 -3.768437 -0.183275 0
M  V30 7 C 2.284362 -4.435300 -0.390511 0
M  V30 8 C -0.848282 -1.528366 -0.405182 0
M  V30 9 C 0.209111 -0.813501 -1.289472 0
M  V30 10 C 0.405807 0.388213 -0.409286 0
M  V30 11 C 1.537786 1.159517 -0.166096 0
M  V30 12 C 1.446906 2.240916 0.715580 0
M  V30 13 O 2.568158 3.036981 0.981518 0
M  V30 14 C 3.804504 2.764151 0.369349 0
M  V30 15 C 0.256274 2.577430 1.364913 0
M  V30 16 O 0.247390 3.649774 2.212937 0
M  V30 17 C -0.914915 4.040389 2.908157 0
M  V30 18 C -0.846584 1.792361 1.101996 0
M  V30 19 C -0.793755 0.718240 0.237658 0
M  V30 20 C -1.750296 -0.315799 -0.283758 0
M  V30 21 H -1.535560 -1.126146 3.764010 0
M  V30 22 H -3.294153 -1.181479 3.733373 0
M  V30 23 H -2.417946 -0.160347 2.581202 0
M  V30 24 H -2.767920 -3.177780 2.847508 0
M  V30 25 H -3.187441 -2.281031 1.413386 0
M  V30 26 H -1.276239 -3.730166 1.074395 0
M  V30 27 H -0.483770 -3.160384 2.528637 0
M  V30 28 H 1.272807 -2.901868 1.705500 0
M  V30 29 H 1.829428 -1.863979 0.399965 0
M  V30 30 H 0.312278 -4.578273 0.304838 0
M  V30 31 H 0.463707 -3.631964 -1.174289 0
M  V30 32 H 2.411406 -5.360773 0.206058 0
M  V30 33 H 2.448587 -4.714785 -1.445566 0
M  V30 34 H 3.078784 -3.729251 -0.109305 0
M  V30 35 H -1.294908 -2.352065 -0.956505 0
M  V30 36 H -0.327320 -0.474138 -2.179059 0
M  V30 37 H 1.105401 -1.377431 -1.446294 0
M  V30 38 H 2.487005 0.948583 -0.638156 0
M  V30 39 H 4.511751 3.600501 0.597786 0
M  V30 40 H 3.688606 2.592772 -0.717988 0
M  V30 41 H 4.258991 1.827935 0.785825 0
M  V30 42 H -1.183300 3.243017 3.615348 0
M  V30 43 H -0.764378 4.982252 3.463334 0
M  V30 44 H -1.746379 4.202233 2.161233 0
M  V30 45 H -1.783498 2.011230 1.578189 0
M  V30 46 H -2.012728 0.006854 -1.341491 0
M  V30 47 H -2.659385 -0.421661 0.262232 0
M  V30 END ATOM
M  V30 BEGIN BOND
M  V30 1 1 1 2
M  V30 2 1 2 3
M  V30 3 1 3 4
M  V30 4 1 4 5
M  V30 5 1 5 6
M  V30 6 1 6 7
M  V30 7 1 4 8
M  V30 8 1 8 9
M  V30 9 1 9 10
M  V30 10 2 10 11
M  V30 11 1 11 12
M  V30 12 1 12 13
M  V30 13 1 13 14
M  V30 14 2 12 15
M  V30 15 1 15 16
M  V30 16 1 16 17
M  V30 17 1 15 18
M  V30 18 2 18 19
M  V30 19 1 19 20
M  V30 20 1 20 8
M  V30 21 1 19 10
M  V30 22 1 1 21
M  V30 23 1 1 22
M  V30 24 1 1 23
M  V30 25 1 2 24
M  V30 26 1 2 25
M  V30 27 1 3 26
M  V30 28 1 3 27
M  V30 29 1 5 28
M  V30 30 1 5 29
M  V30 31 1 6 30
M  V30 32 1 6 31
M  V30 33 1 7 32
M  V30 34 1 7 33
M  V30 35 1 7 34
M  V30 36 1 8 35
M  V30 37 1 9 36
M  V30 38 1 9 37
M  V30 39 1 11 38
M  V30 40 1 14 39
M  V30 41 1 14 40
M  V30 42 1 14 41
M  V30 43 1 17 42
M  V30 44 1 17 43
M  V30 45 1 17 44
M  V30 46 1 18 45
M  V30 47 1 20 46
M  V30 48 1 20 47
M  V30 END BOND
M  V30 END CTAB
M  END
>  <Dataset>  (942) 
ChEMBL_Kinases

>  <Ligand_Instance>  (942) 
nan

>  <PDB_ID>  (942) 
nan

>  <Standardized_SMILES>  (942) 
CCCN(CCC)C1Cc2cc(OC)c(OC)cc2C1

>  <Name>  (942) 
PNU-99194A

>  <Pocket>  (942) 
nan

>  <ATP_Site>  (942) 
nan

>  <Peripheral>  (942) 
nan

>  <Num_H_Atoms_ProtBoundConf>  (942) 
nan

>  <Num_Resolved_Atoms>  (942) 
nan

>  <Num_Not_Resolved_Atoms>  (942) 
nan

$$$$
CHEMBL16425
     RDKit          3D

  0  0  0  0  0  0  0  0  0  0999 V3000
M  V30 BEGIN CTAB
M  V30 COUNTS 15 16 0 0 0
M  V30 BEGIN ATOM
M  V30 1 Br -0.935854 -1.733455 3.652597 0
M  V30 2 C 0.027041 -0.934976 2.232487 0
M  V30 3 C -0.079379 -1.509026 1.000372 0
M  V30 4 C 0.638254 -0.905421 -0.033680 0
M  V30 5 C 1.402838 0.212507 0.222321 0
M  V30 6 N 2.195276 1.016811 -0.525540 0
M  V30 7 N 2.725299 1.989774 0.218063 0
M  V30 8 C 2.302657 1.863402 1.482161 0
M  V30 9 C 1.492275 0.770402 1.473562 0
M  V30 10 C 0.783344 0.185759 2.528363 0
M  V30 11 H -0.672901 -2.382670 0.784999 0
M  V30 12 H 0.628241 -1.273739 -1.048295 0
M  V30 13 H 2.344959 0.855418 -1.562738 0
M  V30 14 H 2.611815 2.550856 2.258798 0
M  V30 15 H 0.826896 0.593196 3.525849 0
M  V30 END ATOM
M  V30 BEGIN BOND
M  V30 1 1 1 2
M  V30 2 2 2 3
M  V30 3 1 3 4
M  V30 4 2 4 5
M  V30 5 1 5 6
M  V30 6 1 6 7
M  V30 7 2 7 8
M  V30 8 1 8 9
M  V30 9 2 9 10
M  V30 10 1 10 2
M  V30 11 1 9 5
M  V30 12 1 3 11
M  V30 13 1 4 12
M  V30 14 1 6 13
M  V30 15 1 8 14
M  V30 16 1 10 15
M  V30 END BOND
M  V30 END CTAB
M  END
>  <Dataset>  (943) 
ChEMBL_Kinases

>  <Ligand_Instance>  (943) 
nan

>  <PDB_ID>  (943) 
nan

>  <Standardized_SMILES>  (943) 
Brc1ccc2[nH]ncc2c1

>  <Name>  (943) 
nan

>  <Pocket>  (943) 
nan

>  <ATP_Site>  (943) 
nan

>  <Peripheral>  (943) 
nan

>  <Num_H_Atoms_ProtBoundConf>  (943) 
nan

>  <Num_Resolved_Atoms>  (943) 
nan

>  <Num_Not_Resolved_Atoms>  (943) 
nan

$$$$
CHEMBL1642546
     RDKit          3D

  0  0  0  0  0  0  0  0  0  0999 V3000
M  V30 BEGIN CTAB
M  V30 COUNTS 50 53 0 0 0
M  V30 BEGIN ATOM
M  V30 1 C -5.298883 -1.607704 4.732267 0
M  V30 2 C -4.517783 -2.780077 5.232156 0
M  V30 3 N -3.817854 -3.478503 4.181922 0
M  V30 4 C -2.837268 -2.909496 3.341531 0
M  V30 5 N -2.567253 -1.606341 3.577410 0
M  V30 6 C -1.648029 -0.949160 2.839985 0
M  V30 7 S -0.990794 0.818107 2.841525 0
M  V30 8 C 0.145144 0.478522 1.460780 0
M  V30 9 C 1.053044 1.579736 0.916670 0
M  V30 10 C 0.984315 2.825964 1.499687 0
M  V30 11 C 1.841816 3.740757 0.934735 0
M  V30 12 C 2.690037 3.421546 -0.122951 0
M  V30 13 C 2.673419 2.128320 -0.631792 0
M  V30 14 C 3.573405 1.741964 -1.773458 0 CFG=2
M  V30 15 C 4.225877 2.940614 -2.389437 0
M  V30 16 N 2.818103 0.973548 -2.749641 0
M  V30 17 C 3.047402 -0.372365 -3.124656 0
M  V30 18 C 2.146660 -0.974179 -4.155073 0
M  V30 19 O 3.996662 -0.983357 -2.568119 0
M  V30 20 C 1.836803 1.161194 -0.111002 0
M  V30 21 N -0.042029 -0.673813 1.195799 0
M  V30 22 C -0.891157 -1.475598 1.797650 0
M  V30 23 C -1.171359 -2.806075 1.561783 0
M  V30 24 C -2.102573 -3.455911 2.315319 0
M  V30 25 N -2.207290 -4.753745 1.900853 0
M  V30 26 C -1.339374 -4.934682 0.877937 0
M  V30 27 N -0.731147 -3.748752 0.696134 0
M  V30 28 C 0.289136 -3.489269 -0.313916 0
M  V30 29 H -4.791259 -0.639275 4.933400 0
M  V30 30 H -5.514460 -1.668737 3.653529 0
M  V30 31 H -6.257301 -1.562150 5.268953 0
M  V30 32 H -5.180156 -3.484010 5.747057 0
M  V30 33 H -3.787399 -2.396453 5.993879 0
M  V30 34 H -3.994451 -4.470787 3.970467 0
M  V30 35 H 0.314730 3.044499 2.321006 0
M  V30 36 H 1.863523 4.762052 1.327174 0
M  V30 37 H 3.355624 4.169015 -0.546233 0
M  V30 38 H 4.360954 1.085532 -1.375126 0
M  V30 39 H 4.847494 2.577603 -3.220731 0
M  V30 40 H 3.532404 3.676046 -2.800337 0
M  V30 41 H 4.939900 3.363114 -1.645379 0
M  V30 42 H 2.053625 1.573845 -3.151834 0
M  V30 43 H 1.227711 -1.381747 -3.718889 0
M  V30 44 H 1.883017 -0.229318 -4.936496 0
M  V30 45 H 2.661232 -1.826776 -4.663368 0
M  V30 46 H 1.821886 0.155177 -0.504653 0
M  V30 47 H -1.159040 -5.838434 0.312362 0
M  V30 48 H 0.904339 -4.403162 -0.471372 0
M  V30 49 H -0.255595 -3.324788 -1.258151 0
M  V30 50 H 0.915716 -2.633927 -0.030089 0
M  V30 END ATOM
M  V30 BEGIN BOND
M  V30 1 1 1 2
M  V30 2 1 2 3
M  V30 3 1 3 4
M  V30 4 2 4 5
M  V30 5 1 5 6
M  V30 6 1 6 7
M  V30 7 1 7 8
M  V30 8 1 8 9
M  V30 9 2 9 10
M  V30 10 1 10 11
M  V30 11 2 11 12
M  V30 12 1 12 13
M  V30 13 1 13 14
M  V30 14 1 14 15
M  V30 15 1 14 16
M  V30 16 1 16 17
M  V30 17 1 17 18
M  V30 18 2 17 19
M  V30 19 2 13 20
M  V30 20 2 8 21
M  V30 21 1 21 22
M  V30 22 1 22 23
M  V30 23 2 23 24
M  V30 24 1 24 25
M  V30 25 2 25 26
M  V30 26 1 26 27
M  V30 27 1 27 28
M  V30 28 1 24 4
M  V30 29 2 22 6
M  V30 30 1 27 23
M  V30 31 1 20 9
M  V30 32 1 1 29
M  V30 33 1 1 30
M  V30 34 1 1 31
M  V30 35 1 2 32
M  V30 36 1 2 33
M  V30 37 1 3 34
M  V30 38 1 10 35
M  V30 39 1 11 36
M  V30 40 1 12 37
M  V30 41 1 14 38 CFG=1
M  V30 42 1 15 39
M  V30 43 1 15 40
M  V30 44 1 15 41
M  V30 45 1 16 42
M  V30 46 1 18 43
M  V30 47 1 18 44
M  V30 48 1 18 45
M  V30 49 1 20 46
M  V30 50 1 26 47
M  V30 51 1 28 48
M  V30 52 1 28 49
M  V30 53 1 28 50
M  V30 END BOND
M  V30 END CTAB
M  END
>  <Dataset>  (944) 
ChEMBL_Kinases

>  <Ligand_Instance>  (944) 
nan

>  <PDB_ID>  (944) 
nan

>  <Standardized_SMILES>  (944) 
CCNc1nc2sc(-c3cccc([C@H](C)NC(C)=O)c3)nc2c2c1ncn2C

>  <Name>  (944) 
nan

>  <Pocket>  (944) 
nan

>  <ATP_Site>  (944) 
nan

>  <Peripheral>  (944) 
nan

>  <Num_H_Atoms_ProtBoundConf>  (944) 
nan

>  <Num_Resolved_Atoms>  (944) 
nan

>  <Num_Not_Resolved_Atoms>  (944) 
nan

$$$$
CHEMBL1642547
     RDKit          3D

  0  0  0  0  0  0  0  0  0  0999 V3000
M  V30 BEGIN CTAB
M  V30 COUNTS 44 47 0 0 0
M  V30 BEGIN ATOM
M  V30 1 C -0.249720 -4.817489 1.051047 0
M  V30 2 C 0.566568 -4.290178 -0.075224 0
M  V30 3 O 1.798192 -4.534444 -0.096335 0
M  V30 4 N -0.029061 -3.522006 -1.114100 0
M  V30 5 C 0.691423 -2.962925 -2.259400 0 CFG=1
M  V30 6 C 0.019582 -3.580423 -3.480479 0
M  V30 7 C 0.388090 -1.506273 -2.275857 0
M  V30 8 C 0.058488 -0.890158 -3.489444 0
M  V30 9 C -0.230172 0.475373 -3.530027 0
M  V30 10 C -0.199368 1.256365 -2.378883 0
M  V30 11 C 0.134037 0.548918 -1.255548 0
M  V30 12 C 0.198302 1.329829 0.094518 0
M  V30 13 N 0.438482 1.059145 1.199506 0
M  V30 14 C 0.444517 1.868521 2.235103 0
M  V30 15 C 0.135721 3.177557 2.001046 0
M  V30 16 N 0.076952 4.201403 2.912652 0
M  V30 17 C 0.345938 3.945892 4.208715 0
M  V30 18 N 0.255460 5.070392 5.054477 0
M  V30 19 C 0.661322 2.633465 4.478158 0
M  V30 20 N 0.967092 2.156165 5.720952 0
M  V30 21 C 1.219537 0.837558 5.605706 0
M  V30 22 N 1.067679 0.516173 4.299148 0
M  V30 23 C 1.245348 -0.810516 3.726619 0
M  V30 24 C 0.719974 1.608473 3.564288 0
M  V30 25 S -0.161600 3.111906 0.138355 0
M  V30 26 C 0.431196 -0.759844 -1.093666 0
M  V30 27 H -0.132239 -5.913565 1.150996 0
M  V30 28 H 0.072849 -4.374623 2.021181 0
M  V30 29 H -1.317484 -4.556365 0.917047 0
M  V30 30 H -1.060739 -3.299746 -1.124792 0
M  V30 31 H 1.760380 -3.202680 -2.232380 0
M  V30 32 H 0.568347 -3.439555 -4.409237 0
M  V30 33 H -0.072448 -4.695105 -3.349970 0
M  V30 34 H -1.001813 -3.178198 -3.553274 0
M  V30 35 H 0.023514 -1.472784 -4.420003 0
M  V30 36 H -0.487451 0.954089 -4.479924 0
M  V30 37 H -0.414423 2.314517 -2.358873 0
M  V30 38 H 1.102698 5.690306 4.986774 0
M  V30 39 H -0.672046 4.992013 5.551317 0
M  V30 40 H 1.495877 0.133077 6.391875 0
M  V30 41 H 1.984681 -1.386911 4.321154 0
M  V30 42 H 1.598472 -0.779156 2.691220 0
M  V30 43 H 0.275112 -1.360488 3.699175 0
M  V30 44 H 0.680620 -1.218523 -0.166026 0
M  V30 END ATOM
M  V30 BEGIN BOND
M  V30 1 1 1 2
M  V30 2 2 2 3
M  V30 3 1 2 4
M  V30 4 1 4 5
M  V30 5 1 5 6
M  V30 6 1 5 7
M  V30 7 2 7 8
M  V30 8 1 8 9
M  V30 9 2 9 10
M  V30 10 1 10 11
M  V30 11 1 11 12
M  V30 12 2 12 13
M  V30 13 1 13 14
M  V30 14 2 14 15
M  V30 15 1 15 16
M  V30 16 2 16 17
M  V30 17 1 17 18
M  V30 18 1 17 19
M  V30 19 1 19 20
M  V30 20 2 20 21
M  V30 21 1 21 22
M  V30 22 1 22 23
M  V30 23 1 22 24
M  V30 24 1 15 25
M  V30 25 2 11 26
M  V30 26 1 26 7
M  V30 27 1 25 12
M  V30 28 1 24 14
M  V30 29 2 24 19
M  V30 30 1 1 27
M  V30 31 1 1 28
M  V30 32 1 1 29
M  V30 33 1 4 30
M  V30 34 1 5 31 CFG=1
M  V30 35 1 6 32
M  V30 36 1 6 33
M  V30 37 1 6 34
M  V30 38 1 8 35
M  V30 39 1 9 36
M  V30 40 1 10 37
M  V30 41 1 18 38
M  V30 42 1 18 39
M  V30 43 1 21 40
M  V30 44 1 23 41
M  V30 45 1 23 42
M  V30 46 1 23 43
M  V30 47 1 26 44
M  V30 END BOND
M  V30 END CTAB
M  END
>  <Dataset>  (945) 
ChEMBL_Kinases

>  <Ligand_Instance>  (945) 
nan

>  <PDB_ID>  (945) 
nan

>  <Standardized_SMILES>  (945) 
CC(=O)N[C@@H](C)c1cccc(-c2nc3c(nc(N)c4ncn(C)c43)s2)c1

>  <Name>  (945) 
nan

>  <Pocket>  (945) 
nan

>  <ATP_Site>  (945) 
nan

>  <Peripheral>  (945) 
nan

>  <Num_H_Atoms_ProtBoundConf>  (945) 
nan

>  <Num_Resolved_Atoms>  (945) 
nan

>  <Num_Not_Resolved_Atoms>  (945) 
nan

$$$$
CHEMBL1643135
     RDKit          3D

  0  0  0  0  0  0  0  0  0  0999 V3000
M  V30 BEGIN CTAB
M  V30 COUNTS 49 52 0 0 0
M  V30 BEGIN ATOM
M  V30 1 O 2.775696 3.317116 0.498864 0
M  V30 2 C 2.616640 2.164792 0.013783 0
M  V30 3 C 3.524597 1.154589 -0.517587 0
M  V30 4 C 3.711617 1.332511 -1.893018 0
M  V30 5 C 4.547941 0.467231 -2.595664 0
M  V30 6 C 5.192640 -0.564741 -1.940249 0
M  V30 7 C 4.992451 -0.719071 -0.586533 0
M  V30 8 Cl 5.762746 -2.002068 0.360004 0
M  V30 9 C 4.170034 0.126010 0.123555 0
M  V30 10 Cl 3.831111 0.040699 1.838851 0
M  V30 11 N 1.247545 1.781241 -0.014301 0
M  V30 12 C 0.280047 2.733263 0.497882 0
M  V30 13 C -0.249858 2.189512 1.808859 0
M  V30 14 N -0.317286 0.752527 1.673794 0
M  V30 15 C -0.884580 0.077213 2.767245 0
M  V30 16 C -0.893863 -1.382641 2.523976 0
M  V30 17 C 0.240484 -2.113851 2.896284 0
M  V30 18 C 0.417708 -3.474282 2.761697 0
M  V30 19 C -0.624206 -4.185983 2.205759 0
M  V30 20 C -1.767348 -3.519043 1.819736 0
M  V30 21 N -2.875906 -4.206567 1.239057 0
M  V30 22 C -4.085855 -3.566809 0.820399 0
M  V30 23 N -4.547865 -3.059186 -0.132374 0
M  V30 24 C -5.754042 -2.530024 -0.222809 0
M  V30 25 C -6.580783 -2.581040 0.960810 0
M  V30 26 S -5.421808 -3.460870 2.165862 0
M  V30 27 C -1.905828 -2.166139 1.969741 0
M  V30 28 C -0.607631 0.315879 0.358314 0
M  V30 29 C 0.652792 0.547792 -0.490598 0
M  V30 30 H 3.263779 2.100391 -2.515776 0
M  V30 31 H 4.749525 0.530208 -3.655534 0
M  V30 32 H 5.862235 -1.276245 -2.441269 0
M  V30 33 H 0.725768 3.741485 0.629750 0
M  V30 34 H -0.554311 2.783431 -0.235363 0
M  V30 35 H -1.210653 2.661073 2.013572 0
M  V30 36 H 0.430174 2.459491 2.645546 0
M  V30 37 H -1.887520 0.436892 3.078530 0
M  V30 38 H -0.235999 0.261558 3.664936 0
M  V30 39 H 1.080188 -1.562296 3.340913 0
M  V30 40 H 1.341746 -3.931472 3.086379 0
M  V30 41 H -0.548166 -5.255931 2.072790 0
M  V30 42 H -2.798507 -5.238811 1.112453 0
M  V30 43 H -5.982470 -2.111087 -1.199592 0
M  V30 44 H -7.633268 -2.079457 0.761750 0
M  V30 45 H -2.789334 -1.578116 1.682603 0
M  V30 46 H -0.953857 -0.707882 0.287782 0
M  V30 47 H -1.415746 0.938266 -0.129235 0
M  V30 48 H 0.378476 0.579364 -1.556821 0
M  V30 49 H 1.323651 -0.326374 -0.309159 0
M  V30 END ATOM
M  V30 BEGIN BOND
M  V30 1 2 1 2
M  V30 2 1 2 3
M  V30 3 2 3 4
M  V30 4 1 4 5
M  V30 5 2 5 6
M  V30 6 1 6 7
M  V30 7 1 7 8
M  V30 8 2 7 9
M  V30 9 1 9 10
M  V30 10 1 2 11
M  V30 11 1 11 12
M  V30 12 1 12 13
M  V30 13 1 13 14
M  V30 14 1 14 15
M  V30 15 1 15 16
M  V30 16 2 16 17
M  V30 17 1 17 18
M  V30 18 2 18 19
M  V30 19 1 19 20
M  V30 20 1 20 21
M  V30 21 1 21 22
M  V30 22 2 22 23
M  V30 23 1 23 24
M  V30 24 2 24 25
M  V30 25 1 25 26
M  V30 26 2 20 27
M  V30 27 1 14 28
M  V30 28 1 28 29
M  V30 29 1 9 3
M  V30 30 1 29 11
M  V30 31 1 27 16
M  V30 32 1 26 22
M  V30 33 1 4 30
M  V30 34 1 5 31
M  V30 35 1 6 32
M  V30 36 1 12 33
M  V30 37 1 12 34
M  V30 38 1 13 35
M  V30 39 1 13 36
M  V30 40 1 15 37
M  V30 41 1 15 38
M  V30 42 1 17 39
M  V30 43 1 18 40
M  V30 44 1 19 41
M  V30 45 1 21 42
M  V30 46 1 24 43
M  V30 47 1 25 44
M  V30 48 1 27 45
M  V30 49 1 28 46
M  V30 50 1 28 47
M  V30 51 1 29 48
M  V30 52 1 29 49
M  V30 END BOND
M  V30 END CTAB
M  END
>  <Dataset>  (946) 
ChEMBL_Kinases

>  <Ligand_Instance>  (946) 
nan

>  <PDB_ID>  (946) 
nan

>  <Standardized_SMILES>  (946) 
O=C(c1cccc(Cl)c1Cl)N1CCN(Cc2cccc(Nc3nccs3)c2)CC1

>  <Name>  (946) 
nan

>  <Pocket>  (946) 
nan

>  <ATP_Site>  (946) 
nan

>  <Peripheral>  (946) 
nan

>  <Num_H_Atoms_ProtBoundConf>  (946) 
nan

>  <Num_Resolved_Atoms>  (946) 
nan

>  <Num_Not_Resolved_Atoms>  (946) 
nan

$$$$
CHEMBL1643136
     RDKit          3D

  0  0  0  0  0  0  0  0  0  0999 V3000
M  V30 BEGIN CTAB
M  V30 COUNTS 45 48 0 0 0
M  V30 BEGIN ATOM
M  V30 1 O 0.417664 -7.615130 1.923828 0
M  V30 2 C 0.081552 -6.883790 0.967134 0
M  V30 3 O -0.318795 -7.745576 -0.015434 0
M  V30 4 C 0.155045 -5.437562 1.031275 0
M  V30 5 C 0.606395 -4.864640 2.187651 0
M  V30 6 C 0.681799 -3.507086 2.264422 0
M  V30 7 C 0.297423 -2.771939 1.166622 0
M  V30 8 C -0.164485 -3.281507 -0.024825 0
M  V30 9 N -0.554094 -2.548476 -1.172687 0
M  V30 10 C -0.435169 -1.154296 -1.409832 0
M  V30 11 N -0.928154 -0.667938 -2.559222 0
M  V30 12 C -0.877368 0.618471 -2.913528 0
M  V30 13 C -0.292657 1.539476 -2.080407 0
M  V30 14 C -0.069840 2.878346 -2.114083 0
M  V30 15 C 0.576525 3.208344 -0.951945 0
M  V30 16 N 0.733714 2.057542 -0.232331 0
M  V30 17 C 1.396026 2.223530 1.008322 0
M  V30 18 C 1.416605 1.066639 1.939897 0
M  V30 19 C 0.116493 0.845768 2.647686 0
M  V30 20 C -0.306580 2.095699 3.384296 0
M  V30 21 C 0.753666 3.170985 3.246353 0
M  V30 22 C 0.897453 3.456438 1.774806 0
M  V30 23 C 0.204602 1.029918 -0.914202 0
M  V30 24 N 0.139867 -0.262525 -0.585365 0
M  V30 25 C -0.215367 -4.658868 -0.033624 0
M  V30 26 H -1.130002 -8.361217 0.150667 0
M  V30 27 H 0.899633 -5.481462 3.030146 0
M  V30 28 H 1.032648 -3.034462 3.160666 0
M  V30 29 H 0.361966 -1.699778 1.259810 0
M  V30 30 H -0.983452 -3.121341 -1.936641 0
M  V30 31 H -1.297655 0.961206 -3.868088 0
M  V30 32 H -0.392566 3.461199 -2.959078 0
M  V30 33 H 0.836760 4.255604 -0.808855 0
M  V30 34 H 2.477437 2.464537 0.779854 0
M  V30 35 H 1.789393 0.158241 1.452457 0
M  V30 36 H 2.234130 1.301616 2.697064 0
M  V30 37 H 0.277512 0.074017 3.453931 0
M  V30 38 H -0.658657 0.561465 1.939843 0
M  V30 39 H -0.575454 1.918667 4.437274 0
M  V30 40 H -1.214433 2.532295 2.873257 0
M  V30 41 H 1.688938 2.946446 3.770571 0
M  V30 42 H 0.371003 4.110596 3.705131 0
M  V30 43 H 1.507509 4.343323 1.568810 0
M  V30 44 H -0.144647 3.637573 1.395590 0
M  V30 45 H -0.563550 -5.193352 -0.917073 0
M  V30 END ATOM
M  V30 BEGIN BOND
M  V30 1 2 1 2
M  V30 2 1 2 3
M  V30 3 1 2 4
M  V30 4 2 4 5
M  V30 5 1 5 6
M  V30 6 2 6 7
M  V30 7 1 7 8
M  V30 8 1 8 9
M  V30 9 1 9 10
M  V30 10 2 10 11
M  V30 11 1 11 12
M  V30 12 2 12 13
M  V30 13 1 13 14
M  V30 14 2 14 15
M  V30 15 1 15 16
M  V30 16 1 16 17
M  V30 17 1 17 18
M  V30 18 1 18 19
M  V30 19 1 19 20
M  V30 20 1 20 21
M  V30 21 1 21 22
M  V30 22 1 16 23
M  V30 23 2 23 24
M  V30 24 2 8 25
M  V30 25 1 25 4
M  V30 26 1 24 10
M  V30 27 1 23 13
M  V30 28 1 22 17
M  V30 29 1 3 26
M  V30 30 1 5 27
M  V30 31 1 6 28
M  V30 32 1 7 29
M  V30 33 1 9 30
M  V30 34 1 12 31
M  V30 35 1 14 32
M  V30 36 1 15 33
M  V30 37 1 17 34
M  V30 38 1 18 35
M  V30 39 1 18 36
M  V30 40 1 19 37
M  V30 41 1 19 38
M  V30 42 1 20 39
M  V30 43 1 20 40
M  V30 44 1 21 41
M  V30 45 1 21 42
M  V30 46 1 22 43
M  V30 47 1 22 44
M  V30 48 1 25 45
M  V30 END BOND
M  V30 END CTAB
M  END
>  <Dataset>  (947) 
ChEMBL_Kinases

>  <Ligand_Instance>  (947) 
nan

>  <PDB_ID>  (947) 
nan

>  <Standardized_SMILES>  (947) 
O=C(O)c1cccc(Nc2ncc3ccn(C4CCCCC4)c3n2)c1

>  <Name>  (947) 
nan

>  <Pocket>  (947) 
nan

>  <ATP_Site>  (947) 
nan

>  <Peripheral>  (947) 
nan

>  <Num_H_Atoms_ProtBoundConf>  (947) 
nan

>  <Num_Resolved_Atoms>  (947) 
nan

>  <Num_Not_Resolved_Atoms>  (947) 
nan

$$$$
CHEMBL1643138
     RDKit          3D

  0  0  0  0  0  0  0  0  0  0999 V3000
M  V30 BEGIN CTAB
M  V30 COUNTS 52 55 0 0 0
M  V30 BEGIN ATOM
M  V30 1 O -0.004482 2.772395 2.319048 0
M  V30 2 C 0.987010 2.006416 2.231285 0
M  V30 3 C 2.329144 2.330299 1.765867 0
M  V30 4 C 3.416865 2.807898 2.463081 0
M  V30 5 C 4.607482 3.043640 1.810015 0
M  V30 6 C 4.668118 2.787751 0.458114 0
M  V30 7 C 3.605733 2.303616 -0.307386 0
M  V30 8 C 3.744149 2.042206 -1.767639 0
M  V30 9 F 2.867039 2.789627 -2.526859 0
M  V30 10 F 5.068907 2.313587 -2.098607 0
M  V30 11 F 3.522198 0.734457 -2.077844 0
M  V30 12 C 2.425522 2.080838 0.390685 0
M  V30 13 F 1.413988 1.603822 -0.407736 0
M  V30 14 N 1.030801 0.602633 2.572463 0
M  V30 15 C 2.105155 -0.404248 2.529917 0
M  V30 16 C 1.695548 -1.394954 1.455292 0
M  V30 17 N 0.405074 -1.126769 0.972420 0
M  V30 18 C 0.043718 -1.641061 -0.277191 0
M  V30 19 C -1.376872 -1.320312 -0.638326 0
M  V30 20 C -1.724624 -0.155546 -1.287295 0
M  V30 21 C -3.053660 0.086403 -1.605302 0
M  V30 22 C -4.020794 -0.861709 -1.259444 0
M  V30 23 C -3.650127 -2.024182 -0.608573 0
M  V30 24 N -4.579695 -3.042551 -0.217609 0
M  V30 25 C -4.114829 -4.226422 0.419205 0
M  V30 26 C -3.910696 -5.219619 -0.550964 0
M  V30 27 C -3.452636 -6.367130 0.105037 0
M  V30 28 N -3.392526 -6.044677 1.428205 0
M  V30 29 N -3.784114 -4.788341 1.594033 0
M  V30 30 N -2.342792 -2.182841 -0.336392 0
M  V30 31 C -0.649732 -0.897549 1.871471 0
M  V30 32 C -0.230471 -0.001639 3.045226 0
M  V30 33 H 3.212753 2.959249 3.514062 0
M  V30 34 H 5.426033 3.415964 2.386360 0
M  V30 35 H 5.607241 2.976448 -0.047422 0
M  V30 36 H 3.089263 0.048354 2.369123 0
M  V30 37 H 2.067193 -0.932553 3.501982 0
M  V30 38 H 2.436428 -1.248957 0.630862 0
M  V30 39 H 1.844765 -2.445436 1.806762 0
M  V30 40 H 0.700645 -1.292769 -1.115606 0
M  V30 41 H 0.117818 -2.767794 -0.356384 0
M  V30 42 H -0.955239 0.577141 -1.550881 0
M  V30 43 H -3.382565 0.987634 -2.117785 0
M  V30 44 H -5.077110 -0.767794 -1.465608 0
M  V30 45 H -5.586395 -2.846353 -0.431888 0
M  V30 46 H -3.990719 -5.390573 -1.627725 0
M  V30 47 H -3.158643 -7.370778 -0.172909 0
M  V30 48 H -3.118884 -6.526418 2.337674 0
M  V30 49 H -1.425278 -0.277770 1.325357 0
M  V30 50 H -1.121744 -1.792519 2.302210 0
M  V30 51 H -0.013926 -0.581425 3.954245 0
M  V30 52 H -0.955699 0.773772 3.277062 0
M  V30 END ATOM
M  V30 BEGIN BOND
M  V30 1 2 1 2
M  V30 2 1 2 3
M  V30 3 2 3 4
M  V30 4 1 4 5
M  V30 5 2 5 6
M  V30 6 1 6 7
M  V30 7 1 7 8
M  V30 8 1 8 9
M  V30 9 1 8 10
M  V30 10 1 8 11
M  V30 11 2 7 12
M  V30 12 1 12 13
M  V30 13 1 2 14
M  V30 14 1 14 15
M  V30 15 1 15 16
M  V30 16 1 16 17
M  V30 17 1 17 18
M  V30 18 1 18 19
M  V30 19 2 19 20
M  V30 20 1 20 21
M  V30 21 2 21 22
M  V30 22 1 22 23
M  V30 23 1 23 24
M  V30 24 1 24 25
M  V30 25 1 25 26
M  V30 26 2 26 27
M  V30 27 1 27 28
M  V30 28 1 28 29
M  V30 29 2 23 30
M  V30 30 1 17 31
M  V30 31 1 31 32
M  V30 32 1 12 3
M  V30 33 1 32 14
M  V30 34 1 30 19
M  V30 35 2 29 25
M  V30 36 1 4 33
M  V30 37 1 5 34
M  V30 38 1 6 35
M  V30 39 1 15 36
M  V30 40 1 15 37
M  V30 41 1 16 38
M  V30 42 1 16 39
M  V30 43 1 18 40
M  V30 44 1 18 41
M  V30 45 1 20 42
M  V30 46 1 21 43
M  V30 47 1 22 44
M  V30 48 1 24 45
M  V30 49 1 26 46
M  V30 50 1 27 47
M  V30 51 1 28 48
M  V30 52 1 31 49
M  V30 53 1 31 50
M  V30 54 1 32 51
M  V30 55 1 32 52
M  V30 END BOND
M  V30 END CTAB
M  END
>  <Dataset>  (948) 
ChEMBL_Kinases

>  <Ligand_Instance>  (948) 
nan

>  <PDB_ID>  (948) 
nan

>  <Standardized_SMILES>  (948) 
O=C(c1cccc(C(F)(F)F)c1F)N1CCN(Cc2cccc(Nc3cc[nH]n3)n2)CC1

>  <Name>  (948) 
nan

>  <Pocket>  (948) 
nan

>  <ATP_Site>  (948) 
nan

>  <Peripheral>  (948) 
nan

>  <Num_H_Atoms_ProtBoundConf>  (948) 
nan

>  <Num_Resolved_Atoms>  (948) 
nan

>  <Num_Not_Resolved_Atoms>  (948) 
nan

$$$$
CHEMBL1643139
     RDKit          3D

  0  0  0  0  0  0  0  0  0  0999 V3000
M  V30 BEGIN CTAB
M  V30 COUNTS 60 65 0 0 0
M  V30 BEGIN ATOM
M  V30 1 C 7.078752 -4.375436 4.453036 0
M  V30 2 C 6.200858 -3.472061 3.627918 0
M  V30 3 C 6.535992 -2.189330 3.243616 0
M  V30 4 C 5.639824 -1.451685 2.477140 0
M  V30 5 C 4.415974 -1.959681 2.082756 0
M  V30 6 C 3.528081 -1.112635 1.303473 0
M  V30 7 N 3.334225 0.118617 1.864606 0
M  V30 8 N 2.557730 1.032233 1.306739 0
M  V30 9 C 1.902353 0.822362 0.150695 0
M  V30 10 N 1.042103 1.696949 -0.568915 0
M  V30 11 C -0.350062 1.774941 -0.276175 0
M  V30 12 C -1.224965 2.559054 -0.960516 0
M  V30 13 C -2.571336 2.687651 -0.727138 0
M  V30 14 C -3.088820 1.932684 0.322552 0
M  V30 15 O -4.382938 1.923037 0.708872 0
M  V30 16 C -5.454962 1.189780 0.361309 0
M  V30 17 N -6.559401 1.584044 1.064203 0
M  V30 18 C -7.767707 1.017642 0.912179 0
M  V30 19 C -7.974311 -0.014796 0.022564 0
M  V30 20 C -6.894014 -0.450536 -0.711192 0
M  V30 21 C -5.673108 0.159248 -0.523022 0
M  V30 22 C -4.501025 -0.261299 -1.273796 0
M  V30 23 C -4.184150 0.301045 -2.505899 0
M  V30 24 N -3.047198 -0.309752 -2.946770 0
M  V30 25 N -2.628240 -1.226459 -2.062409 0
M  V30 26 C -3.501490 -1.208851 -1.039809 0
M  V30 27 N -3.501437 -1.997361 0.155331 0
M  V30 28 C -2.232308 1.109465 1.058586 0
M  V30 29 C -0.868942 1.018202 0.775493 0
M  V30 30 C 2.061317 -0.402503 -0.461946 0
M  V30 31 C 1.476122 -0.778562 -1.653317 0
M  V30 32 C 1.697464 -2.024354 -2.211026 0
M  V30 33 C 2.518301 -2.951717 -1.597142 0
M  V30 34 C 3.110349 -2.599994 -0.411696 0
M  V30 35 C 2.871236 -1.359025 0.116711 0
M  V30 36 C 4.122888 -3.244646 2.490091 0
M  V30 37 C 4.973240 -4.032783 3.254913 0
M  V30 38 H 6.986359 -5.417706 4.090582 0
M  V30 39 H 8.102212 -3.990351 4.411023 0
M  V30 40 H 6.724089 -4.307362 5.494817 0
M  V30 41 H 7.496879 -1.878797 3.590642 0
M  V30 42 H 5.981148 -0.455029 2.219089 0
M  V30 43 H 1.391422 2.312973 -1.334860 0
M  V30 44 H -0.791707 3.145734 -1.785536 0
M  V30 45 H -3.245169 3.319680 -1.288714 0
M  V30 46 H -8.653965 1.315207 1.459111 0
M  V30 47 H -8.897956 -0.544011 -0.182871 0
M  V30 48 H -6.934126 -1.252707 -1.440333 0
M  V30 49 H -4.709863 1.075937 -3.047509 0
M  V30 50 H -2.592965 -0.065587 -3.863342 0
M  V30 51 H -3.785783 -1.679047 1.084541 0
M  V30 52 H -3.225578 -3.005311 0.313795 0
M  V30 53 H -2.595017 0.495007 1.895828 0
M  V30 54 H -0.245620 0.358340 1.384538 0
M  V30 55 H 0.832535 -0.065639 -2.144868 0
M  V30 56 H 1.189981 -2.218020 -3.148384 0
M  V30 57 H 2.653424 -3.908101 -2.081891 0
M  V30 58 H 3.756039 -3.338449 0.037523 0
M  V30 59 H 3.178341 -3.705311 2.236543 0
M  V30 60 H 4.681603 -5.039902 3.543129 0
M  V30 END ATOM
M  V30 BEGIN BOND
M  V30 1 1 1 2
M  V30 2 2 2 3
M  V30 3 1 3 4
M  V30 4 2 4 5
M  V30 5 1 5 6
M  V30 6 2 6 7
M  V30 7 1 7 8
M  V30 8 2 8 9
M  V30 9 1 9 10
M  V30 10 1 10 11
M  V30 11 2 11 12
M  V30 12 1 12 13
M  V30 13 2 13 14
M  V30 14 1 14 15
M  V30 15 1 15 16
M  V30 16 2 16 17
M  V30 17 1 17 18
M  V30 18 2 18 19
M  V30 19 1 19 20
M  V30 20 2 20 21
M  V30 21 1 21 22
M  V30 22 2 22 23
M  V30 23 1 23 24
M  V30 24 1 24 25
M  V30 25 2 25 26
M  V30 26 1 26 27
M  V30 27 1 14 28
M  V30 28 2 28 29
M  V30 29 1 9 30
M  V30 30 2 30 31
M  V30 31 1 31 32
M  V30 32 2 32 33
M  V30 33 1 33 34
M  V30 34 2 34 35
M  V30 35 1 5 36
M  V30 36 2 36 37
M  V30 37 1 37 2
M  V30 38 1 35 6
M  V30 39 1 29 11
M  V30 40 1 35 30
M  V30 41 1 21 16
M  V30 42 1 26 22
M  V30 43 1 1 38
M  V30 44 1 1 39
M  V30 45 1 1 40
M  V30 46 1 3 41
M  V30 47 1 4 42
M  V30 48 1 10 43
M  V30 49 1 12 44
M  V30 50 1 13 45
M  V30 51 1 18 46
M  V30 52 1 19 47
M  V30 53 1 20 48
M  V30 54 1 23 49
M  V30 55 1 24 50
M  V30 56 1 27 51
M  V30 57 1 27 52
M  V30 58 1 28 53
M  V30 59 1 29 54
M  V30 60 1 31 55
M  V30 61 1 32 56
M  V30 62 1 33 57
M  V30 63 1 34 58
M  V30 64 1 36 59
M  V30 65 1 37 60
M  V30 END BOND
M  V30 END CTAB
M  END
>  <Dataset>  (949) 
ChEMBL_Kinases

>  <Ligand_Instance>  (949) 
nan

>  <PDB_ID>  (949) 
nan

>  <Standardized_SMILES>  (949) 
Cc1ccc(-c2nnc(Nc3ccc(Oc4ncccc4-c4c[nH]nc4N)cc3)c3ccccc23)cc1

>  <Name>  (949) 
nan

>  <Pocket>  (949) 
nan

>  <ATP_Site>  (949) 
nan

>  <Peripheral>  (949) 
nan

>  <Num_H_Atoms_ProtBoundConf>  (949) 
nan

>  <Num_Resolved_Atoms>  (949) 
nan

>  <Num_Not_Resolved_Atoms>  (949) 
nan

$$$$
CHEMBL164
     RDKit          3D

  0  0  0  0  0  0  0  0  0  0999 V3000
M  V30 BEGIN CTAB
M  V30 COUNTS 33 35 0 0 0
M  V30 BEGIN ATOM
M  V30 1 O -1.453355 -0.499718 4.003884 0
M  V30 2 C -1.253540 -0.577855 2.767041 0
M  V30 3 C 0.000968 -0.402452 2.234980 0
M  V30 4 O 1.010477 -0.138938 3.135813 0
M  V30 5 C 0.321079 -0.467752 0.903880 0
M  V30 6 C 1.612496 -0.294682 0.274709 0
M  V30 7 C 1.671565 -0.410419 -1.096837 0
M  V30 8 C 2.840473 -0.267381 -1.814113 0
M  V30 9 O 2.863686 -0.390368 -3.194668 0
M  V30 10 C 4.029877 0.004375 -1.173474 0
M  V30 11 O 5.235262 0.158268 -1.843787 0
M  V30 12 C 4.017448 0.128611 0.199735 0
M  V30 13 O 5.186841 0.401553 0.892122 0
M  V30 14 C 2.820915 -0.024582 0.860416 0
M  V30 15 O -0.713546 -0.723248 0.138889 0
M  V30 16 C -1.921368 -0.897817 0.589318 0
M  V30 17 C -2.907368 -1.161865 -0.363050 0
M  V30 18 C -4.222567 -1.358727 0.053813 0
M  V30 19 O -5.244288 -1.623120 -0.832936 0
M  V30 20 C -4.555597 -1.295132 1.391501 0
M  V30 21 C -3.589339 -1.033762 2.353142 0
M  V30 22 O -3.832314 -0.952336 3.709571 0
M  V30 23 C -2.297174 -0.843380 1.910629 0
M  V30 24 H 1.445885 -0.887979 3.677073 0
M  V30 25 H 0.790197 -0.624570 -1.710451 0
M  V30 26 H 3.073100 -1.311117 -3.582431 0
M  V30 27 H 5.354195 -0.064272 -2.824056 0
M  V30 28 H 5.429134 1.387537 1.062173 0
M  V30 29 H 2.862248 0.080370 1.919658 0
M  V30 30 H -2.714042 -1.225692 -1.431898 0
M  V30 31 H -5.582661 -0.993429 -1.541526 0
M  V30 32 H -5.582767 -1.446352 1.744613 0
M  V30 33 H -4.754941 -1.225838 4.021374 0
M  V30 END ATOM
M  V30 BEGIN BOND
M  V30 1 2 1 2
M  V30 2 1 2 3
M  V30 3 1 3 4
M  V30 4 2 3 5
M  V30 5 1 5 6
M  V30 6 2 6 7
M  V30 7 1 7 8
M  V30 8 1 8 9
M  V30 9 2 8 10
M  V30 10 1 10 11
M  V30 11 1 10 12
M  V30 12 1 12 13
M  V30 13 2 12 14
M  V30 14 1 5 15
M  V30 15 1 15 16
M  V30 16 2 16 17
M  V30 17 1 17 18
M  V30 18 1 18 19
M  V30 19 2 18 20
M  V30 20 1 20 21
M  V30 21 1 21 22
M  V30 22 2 21 23
M  V30 23 1 23 2
M  V30 24 1 14 6
M  V30 25 1 23 16
M  V30 26 1 4 24
M  V30 27 1 7 25
M  V30 28 1 9 26
M  V30 29 1 11 27
M  V30 30 1 13 28
M  V30 31 1 14 29
M  V30 32 1 17 30
M  V30 33 1 19 31
M  V30 34 1 20 32
M  V30 35 1 22 33
M  V30 END BOND
M  V30 END CTAB
M  END
>  <Dataset>  (950) 
ChEMBL_Kinases

>  <Ligand_Instance>  (950) 
nan

>  <PDB_ID>  (950) 
nan

>  <Standardized_SMILES>  (950) 
O=c1c(O)c(-c2cc(O)c(O)c(O)c2)oc2cc(O)cc(O)c12

>  <Name>  (950) 
MYRICETIN

>  <Pocket>  (950) 
nan

>  <ATP_Site>  (950) 
nan

>  <Peripheral>  (950) 
nan

>  <Num_H_Atoms_ProtBoundConf>  (950) 
nan

>  <Num_Resolved_Atoms>  (950) 
nan

>  <Num_Not_Resolved_Atoms>  (950) 
nan

$$$$
CHEMBL1607077
     RDKit          3D

  0  0  0  0  0  0  0  0  0  0999 V3000
M  V30 BEGIN CTAB
M  V30 COUNTS 39 41 0 0 0
M  V30 BEGIN ATOM
M  V30 1 O 0.108372 -2.299872 3.438878 0
M  V30 2 C -0.495486 -2.062247 2.348551 0
M  V30 3 N -0.946584 -3.195404 1.629647 0
M  V30 4 C -0.819442 -4.584267 1.957827 0
M  V30 5 C 0.546998 -5.067214 1.695770 0
M  V30 6 C 1.597928 -5.079466 2.582751 0
M  V30 7 C 2.842812 -5.571857 2.179171 0
M  V30 8 N 3.024927 -6.032986 0.936057 0
M  V30 9 C 2.014116 -6.026582 0.066777 0
M  V30 10 C 0.756813 -5.550911 0.408777 0
M  V30 11 C -0.699171 -0.693831 1.885837 0
M  V30 12 C -1.365937 -0.308203 0.729220 0
M  V30 13 C -1.487105 1.037840 0.399943 0
M  V30 14 C -0.959837 2.034678 1.193180 0
M  V30 15 O -1.151313 3.329812 0.750766 0
M  V30 16 C -0.284086 4.023732 -0.083109 0
M  V30 17 C -0.610886 3.815692 -1.423098 0
M  V30 18 C 0.106976 4.400190 -2.449698 0
M  V30 19 C 1.174166 5.209889 -2.133803 0
M  V30 20 C 1.508799 5.424212 -0.793770 0
M  V30 21 C 0.788393 4.838139 0.221511 0
M  V30 22 C -0.291636 1.680139 2.349587 0
M  V30 23 C -0.183045 0.338471 2.657172 0
M  V30 24 H -1.452955 -3.016087 0.713484 0
M  V30 25 H -0.944803 -4.644277 3.080973 0
M  V30 26 H -1.549834 -5.227995 1.456812 0
M  V30 27 H 1.414099 -4.704686 3.568038 0
M  V30 28 H 3.617856 -5.547810 2.934127 0
M  V30 29 H 2.175832 -6.400417 -0.927717 0
M  V30 30 H -0.028772 -5.573177 -0.349275 0
M  V30 31 H -1.769489 -1.100046 0.126468 0
M  V30 32 H -2.029364 1.193498 -0.526634 0
M  V30 33 H -1.430575 3.198097 -1.797355 0
M  V30 34 H -0.119671 4.260102 -3.503148 0
M  V30 35 H 1.770042 5.692393 -2.913061 0
M  V30 36 H 2.342747 6.055870 -0.486011 0
M  V30 37 H 0.944610 4.924391 1.280637 0
M  V30 38 H 0.113288 2.463669 2.954927 0
M  V30 39 H 0.358182 0.125716 3.585903 0
M  V30 END ATOM
M  V30 BEGIN BOND
M  V30 1 2 1 2
M  V30 2 1 2 3
M  V30 3 1 3 4
M  V30 4 1 4 5
M  V30 5 2 5 6
M  V30 6 1 6 7
M  V30 7 2 7 8
M  V30 8 1 8 9
M  V30 9 2 9 10
M  V30 10 1 2 11
M  V30 11 2 11 12
M  V30 12 1 12 13
M  V30 13 2 13 14
M  V30 14 1 14 15
M  V30 15 1 15 16
M  V30 16 2 16 17
M  V30 17 1 17 18
M  V30 18 2 18 19
M  V30 19 1 19 20
M  V30 20 2 20 21
M  V30 21 1 14 22
M  V30 22 2 22 23
M  V30 23 1 10 5
M  V30 24 1 23 11
M  V30 25 1 21 16
M  V30 26 1 3 24
M  V30 27 1 4 25
M  V30 28 1 4 26
M  V30 29 1 6 27
M  V30 30 1 7 28
M  V30 31 1 9 29
M  V30 32 1 10 30
M  V30 33 1 12 31
M  V30 34 1 13 32
M  V30 35 1 17 33
M  V30 36 1 18 34
M  V30 37 1 19 35
M  V30 38 1 20 36
M  V30 39 1 21 37
M  V30 40 1 22 38
M  V30 41 1 23 39
M  V30 END BOND
M  V30 END CTAB
M  END
>  <Dataset>  (951) 
ChEMBL_Kinases

>  <Ligand_Instance>  (951) 
nan

>  <PDB_ID>  (951) 
nan

>  <Standardized_SMILES>  (951) 
O=C(NCc1ccncc1)c1ccc(Oc2ccccc2)cc1

>  <Name>  (951) 
nan

>  <Pocket>  (951) 
nan

>  <ATP_Site>  (951) 
nan

>  <Peripheral>  (951) 
nan

>  <Num_H_Atoms_ProtBoundConf>  (951) 
nan

>  <Num_Resolved_Atoms>  (951) 
nan

>  <Num_Not_Resolved_Atoms>  (951) 
nan

$$$$
CHEMBL1606945
     RDKit          3D

  0  0  0  0  0  0  0  0  0  0999 V3000
M  V30 BEGIN CTAB
M  V30 COUNTS 52 55 0 0 0
M  V30 BEGIN ATOM
M  V30 1 N 3.877096 -2.059525 1.471965 0
M  V30 2 C 4.234329 -1.005923 1.212959 0
M  V30 3 C 4.701632 0.303943 0.901480 0
M  V30 4 C 5.963703 0.681065 1.257567 0
M  V30 5 C 6.422077 1.946703 0.960821 0
M  V30 6 C 5.557171 2.788430 0.301477 0
M  V30 7 C 4.284411 2.390668 -0.051061 0
M  V30 8 C 3.805714 1.105177 0.245123 0
M  V30 9 C 2.442826 0.927743 -0.226019 0
M  V30 10 N 1.790006 -0.308306 -0.023802 0
M  V30 11 C 1.062099 -0.473373 1.125325 0
M  V30 12 O 1.028013 0.498068 1.955789 0
M  V30 13 N 0.382452 -1.625540 1.406627 0
M  V30 14 C -0.323207 -1.653679 2.656296 0
M  V30 15 C -1.705677 -1.121864 2.642614 0
M  V30 16 C -2.673315 -1.776770 1.762100 0
M  V30 17 O -3.006010 -2.661088 0.897546 0
M  V30 18 N -3.960738 -1.114441 1.897956 0
M  V30 19 C -5.028404 -1.682987 1.057861 0
M  V30 20 C -6.275764 -0.915993 1.296050 0
M  V30 21 C -6.787699 0.206199 0.678455 0
M  V30 22 C -7.994630 0.541297 1.269571 0
M  V30 23 C -8.159661 -0.429427 2.251050 0
M  V30 24 O -7.150390 -1.241074 2.227585 0
M  V30 25 C 0.483488 -2.582059 0.471453 0
M  V30 26 O -0.131980 -3.649973 0.711601 0
M  V30 27 C 1.205063 -2.451934 -0.694438 0
M  V30 28 C 1.239918 -3.499806 -1.582914 0
M  V30 29 C 1.964340 -3.390848 -2.766377 0
M  V30 30 C 2.638419 -2.213673 -3.018025 0
M  V30 31 C 2.598034 -1.167179 -2.121046 0
M  V30 32 C 1.888428 -1.286905 -0.972528 0
M  V30 33 H 6.583187 -0.039336 1.774176 0
M  V30 34 H 7.433351 2.150845 1.283158 0
M  V30 35 H 5.963459 3.773285 0.090173 0
M  V30 36 H 3.735574 3.182952 -0.566925 0
M  V30 37 H 2.370149 1.293195 -1.299018 0
M  V30 38 H 1.843438 1.750234 0.300269 0
M  V30 39 H -0.322232 -2.705356 3.069456 0
M  V30 40 H 0.234098 -1.083651 3.458399 0
M  V30 41 H -1.687154 -0.028234 2.406505 0
M  V30 42 H -2.097069 -1.173055 3.682173 0
M  V30 43 H -4.204263 -0.289099 2.520345 0
M  V30 44 H -5.162811 -2.733338 1.375499 0
M  V30 45 H -4.741056 -1.584732 -0.013465 0
M  V30 46 H -6.279486 0.703333 -0.135926 0
M  V30 47 H -8.632923 1.372073 1.003143 0
M  V30 48 H -9.028124 -0.464485 2.921089 0
M  V30 49 H 0.709254 -4.439979 -1.395337 0
M  V30 50 H 1.966365 -4.239357 -3.440007 0
M  V30 51 H 3.190063 -2.155816 -3.938879 0
M  V30 52 H 3.118776 -0.262950 -2.314203 0
M  V30 END ATOM
M  V30 BEGIN BOND
M  V30 1 3 1 2
M  V30 2 1 2 3
M  V30 3 2 3 4
M  V30 4 1 4 5
M  V30 5 2 5 6
M  V30 6 1 6 7
M  V30 7 2 7 8
M  V30 8 1 8 9
M  V30 9 1 9 10
M  V30 10 1 10 11
M  V30 11 2 11 12
M  V30 12 1 11 13
M  V30 13 1 13 14
M  V30 14 1 14 15
M  V30 15 1 15 16
M  V30 16 2 16 17
M  V30 17 1 16 18
M  V30 18 1 18 19
M  V30 19 1 19 20
M  V30 20 2 20 21
M  V30 21 1 21 22
M  V30 22 2 22 23
M  V30 23 1 23 24
M  V30 24 1 13 25
M  V30 25 2 25 26
M  V30 26 1 25 27
M  V30 27 2 27 28
M  V30 28 1 28 29
M  V30 29 2 29 30
M  V30 30 1 30 31
M  V30 31 2 31 32
M  V30 32 1 8 3
M  V30 33 1 32 10
M  V30 34 1 24 20
M  V30 35 1 32 27
M  V30 36 1 4 33
M  V30 37 1 5 34
M  V30 38 1 6 35
M  V30 39 1 7 36
M  V30 40 1 9 37
M  V30 41 1 9 38
M  V30 42 1 14 39
M  V30 43 1 14 40
M  V30 44 1 15 41
M  V30 45 1 15 42
M  V30 46 1 18 43
M  V30 47 1 19 44
M  V30 48 1 19 45
M  V30 49 1 21 46
M  V30 50 1 22 47
M  V30 51 1 23 48
M  V30 52 1 28 49
M  V30 53 1 29 50
M  V30 54 1 30 51
M  V30 55 1 31 52
M  V30 END BOND
M  V30 END CTAB
M  END
>  <Dataset>  (952) 
ChEMBL_Kinases

>  <Ligand_Instance>  (952) 
nan

>  <PDB_ID>  (952) 
nan

>  <Standardized_SMILES>  (952) 
N#Cc1ccccc1Cn1c(=O)n(CCC(=O)NCc2ccco2)c(=O)c2ccccc21

>  <Name>  (952) 
nan

>  <Pocket>  (952) 
nan

>  <ATP_Site>  (952) 
nan

>  <Peripheral>  (952) 
nan

>  <Num_H_Atoms_ProtBoundConf>  (952) 
nan

>  <Num_Resolved_Atoms>  (952) 
nan

>  <Num_Not_Resolved_Atoms>  (952) 
nan

$$$$
CHEMBL1606939
     RDKit          3D

  0  0  0  0  0  0  0  0  0  0999 V3000
M  V30 BEGIN CTAB
M  V30 COUNTS 29 31 0 0 0
M  V30 BEGIN ATOM
M  V30 1 O 0.700510 -1.561881 3.192824 0
M  V30 2 C 0.714601 -1.358338 1.958320 0
M  V30 3 C 1.175227 -2.368949 0.991793 0
M  V30 4 C 1.608886 -3.589881 1.467205 0
M  V30 5 C 2.035993 -4.518883 0.529906 0
M  V30 6 C 2.044697 -4.274978 -0.840041 0
M  V30 7 C 1.605987 -3.045660 -1.291065 0
M  V30 8 C 1.171803 -2.095128 -0.369745 0
M  V30 9 N 0.726495 -0.837856 -0.876255 0
M  V30 10 C 0.284768 0.125782 0.078379 0
M  V30 11 N -0.095351 1.230732 -0.522068 0
M  V30 12 C -0.613717 2.451858 0.129258 0
M  V30 13 C -1.783581 2.048602 0.980179 0
M  V30 14 C -1.465203 1.517391 2.320966 0
M  V30 15 C -0.169450 0.838778 2.519349 0
M  V30 16 N 0.254509 -0.073706 1.509385 0
M  V30 17 H 1.624904 -3.835028 2.512776 0
M  V30 18 H 2.391675 -5.507945 0.856260 0
M  V30 19 H 2.385786 -5.025109 -1.546431 0
M  V30 20 H 1.588227 -2.792455 -2.354926 0
M  V30 21 H 0.697654 -0.566913 -1.882939 0
M  V30 22 H 0.173216 2.950887 0.701499 0
M  V30 23 H -0.999811 3.074974 -0.709255 0
M  V30 24 H -2.333096 1.266540 0.377300 0
M  V30 25 H -2.510672 2.879653 1.069208 0
M  V30 26 H -1.570605 2.352836 3.049090 0
M  V30 27 H -2.294710 0.802921 2.585925 0
M  V30 28 H 0.616948 1.618329 2.742162 0
M  V30 29 H -0.242794 0.241028 3.469633 0
M  V30 END ATOM
M  V30 BEGIN BOND
M  V30 1 2 1 2
M  V30 2 1 2 3
M  V30 3 2 3 4
M  V30 4 1 4 5
M  V30 5 2 5 6
M  V30 6 1 6 7
M  V30 7 2 7 8
M  V30 8 1 8 9
M  V30 9 1 9 10
M  V30 10 2 10 11
M  V30 11 1 11 12
M  V30 12 1 12 13
M  V30 13 1 13 14
M  V30 14 1 14 15
M  V30 15 1 15 16
M  V30 16 1 16 2
M  V30 17 1 8 3
M  V30 18 1 16 10
M  V30 19 1 4 17
M  V30 20 1 5 18
M  V30 21 1 6 19
M  V30 22 1 7 20
M  V30 23 1 9 21
M  V30 24 1 12 22
M  V30 25 1 12 23
M  V30 26 1 13 24
M  V30 27 1 13 25
M  V30 28 1 14 26
M  V30 29 1 14 27
M  V30 30 1 15 28
M  V30 31 1 15 29
M  V30 END BOND
M  V30 END CTAB
M  END
>  <Dataset>  (953) 
ChEMBL_Kinases

>  <Ligand_Instance>  (953) 
nan

>  <PDB_ID>  (953) 
nan

>  <Standardized_SMILES>  (953) 
O=C1c2ccccc2NC2=NCCCCN12

>  <Name>  (953) 
nan

>  <Pocket>  (953) 
nan

>  <ATP_Site>  (953) 
nan

>  <Peripheral>  (953) 
nan

>  <Num_H_Atoms_ProtBoundConf>  (953) 
nan

>  <Num_Resolved_Atoms>  (953) 
nan

>  <Num_Not_Resolved_Atoms>  (953) 
nan

$$$$
CHEMBL1606811
     RDKit          3D

  0  0  0  0  0  0  0  0  0  0999 V3000
M  V30 BEGIN CTAB
M  V30 COUNTS 52 54 0 0 0
M  V30 BEGIN ATOM
M  V30 1 C -0.486692 -2.361611 2.425078 0
M  V30 2 C 0.376224 -3.569817 2.695853 0
M  V30 3 C 1.844982 -3.183270 2.814749 0
M  V30 4 N 2.324915 -2.566938 1.601340 0
M  V30 5 C 2.330125 -1.274370 1.257760 0
M  V30 6 C 2.887859 -1.142888 -0.002160 0
M  V30 7 S 3.163571 0.271848 -0.972046 0
M  V30 8 O 4.628475 0.422861 -1.263019 0
M  V30 9 O 2.409836 0.115203 -2.279443 0
M  V30 10 C 2.613374 1.749761 -0.141926 0
M  V30 11 C 1.161320 1.582851 0.106390 0
M  V30 12 O 0.469417 0.559230 -0.225913 0
M  V30 13 N 0.336017 2.559002 0.758722 0
M  V30 14 C -1.009312 2.064600 0.826616 0
M  V30 15 C -1.448559 1.318841 1.903218 0
M  V30 16 C -2.763996 0.878309 1.892291 0
M  V30 17 C -3.628271 1.165825 0.844030 0
M  V30 18 O -4.877916 0.609106 1.082967 0
M  V30 19 C -5.933820 0.770520 0.146287 0
M  V30 20 C -6.301075 2.208663 -0.096899 0
M  V30 21 C -3.169013 1.912829 -0.222594 0
M  V30 22 C -1.861042 2.355832 -0.220685 0
M  V30 23 C 3.221264 -2.428532 -0.404775 0
M  V30 24 C 3.807543 -2.939588 -1.562335 0
M  V30 25 C 4.032726 -4.299116 -1.708041 0
M  V30 26 C 3.678325 -5.175454 -0.703748 0
M  V30 27 C 3.095958 -4.675709 0.448119 0
M  V30 28 C 2.860040 -3.312701 0.616535 0
M  V30 29 H -0.315868 -1.566000 3.201762 0
M  V30 30 H -1.541682 -2.661559 2.543886 0
M  V30 31 H -0.359109 -1.981643 1.395751 0
M  V30 32 H 0.213021 -4.267052 1.836395 0
M  V30 33 H 0.059766 -4.053059 3.626282 0
M  V30 34 H 2.399489 -4.113974 3.062305 0
M  V30 35 H 1.905126 -2.429805 3.617385 0
M  V30 36 H 1.965362 -0.451932 1.848335 0
M  V30 37 H 2.886924 2.623920 -0.730086 0
M  V30 38 H 3.216982 1.813610 0.802366 0
M  V30 39 H 0.809954 3.455105 1.079358 0
M  V30 40 H -0.741239 1.119911 2.695476 0
M  V30 41 H -2.994147 0.298019 2.798396 0
M  V30 42 H -6.812759 0.178383 0.392488 0
M  V30 43 H -5.554595 0.396765 -0.850081 0
M  V30 44 H -7.349338 2.416356 0.256355 0
M  V30 45 H -6.281447 2.507167 -1.167602 0
M  V30 46 H -5.636476 2.841386 0.529192 0
M  V30 47 H -3.932281 2.067579 -0.970293 0
M  V30 48 H -1.576069 2.938563 -1.097611 0
M  V30 49 H 4.097656 -2.294024 -2.365976 0
M  V30 50 H 4.492364 -4.719749 -2.610414 0
M  V30 51 H 3.833967 -6.253595 -0.768899 0
M  V30 52 H 2.816465 -5.376200 1.242547 0
M  V30 END ATOM
M  V30 BEGIN BOND
M  V30 1 1 1 2
M  V30 2 1 2 3
M  V30 3 1 3 4
M  V30 4 1 4 5
M  V30 5 2 5 6
M  V30 6 1 6 7
M  V30 7 2 7 8
M  V30 8 2 7 9
M  V30 9 1 7 10
M  V30 10 1 10 11
M  V30 11 2 11 12
M  V30 12 1 11 13
M  V30 13 1 13 14
M  V30 14 2 14 15
M  V30 15 1 15 16
M  V30 16 2 16 17
M  V30 17 1 17 18
M  V30 18 1 18 19
M  V30 19 1 19 20
M  V30 20 1 17 21
M  V30 21 2 21 22
M  V30 22 1 6 23
M  V30 23 2 23 24
M  V30 24 1 24 25
M  V30 25 2 25 26
M  V30 26 1 26 27
M  V30 27 2 27 28
M  V30 28 1 28 4
M  V30 29 1 22 14
M  V30 30 1 28 23
M  V30 31 1 1 29
M  V30 32 1 1 30
M  V30 33 1 1 31
M  V30 34 1 2 32
M  V30 35 1 2 33
M  V30 36 1 3 34
M  V30 37 1 3 35
M  V30 38 1 5 36
M  V30 39 1 10 37
M  V30 40 1 10 38
M  V30 41 1 13 39
M  V30 42 1 15 40
M  V30 43 1 16 41
M  V30 44 1 19 42
M  V30 45 1 19 43
M  V30 46 1 20 44
M  V30 47 1 20 45
M  V30 48 1 20 46
M  V30 49 1 21 47
M  V30 50 1 22 48
M  V30 51 1 24 49
M  V30 52 1 25 50
M  V30 53 1 26 51
M  V30 54 1 27 52
M  V30 END BOND
M  V30 END CTAB
M  END
>  <Dataset>  (954) 
ChEMBL_Kinases

>  <Ligand_Instance>  (954) 
nan

>  <PDB_ID>  (954) 
nan

>  <Standardized_SMILES>  (954) 
CCCn1cc(S(=O)(=O)CC(=O)Nc2ccc(OCC)cc2)c2ccccc21

>  <Name>  (954) 
nan

>  <Pocket>  (954) 
nan

>  <ATP_Site>  (954) 
nan

>  <Peripheral>  (954) 
nan

>  <Num_H_Atoms_ProtBoundConf>  (954) 
nan

>  <Num_Resolved_Atoms>  (954) 
nan

>  <Num_Not_Resolved_Atoms>  (954) 
nan

$$$$
CHEMBL1606808
     RDKit          3D

  0  0  0  0  0  0  0  0  0  0999 V3000
M  V30 BEGIN CTAB
M  V30 COUNTS 54 58 0 0 0
M  V30 BEGIN ATOM
M  V30 1 C -1.276412 -3.732332 1.943712 0
M  V30 2 N -0.621342 -3.337342 0.739230 0
M  V30 3 C 0.453191 -2.532780 0.664251 0
M  V30 4 C 1.185137 -1.883969 1.748768 0
M  V30 5 O 0.985886 -1.910632 2.989583 0
M  V30 6 N 2.312434 -1.069033 1.526542 0
M  V30 7 C 3.132679 -0.358965 2.478754 0
M  V30 8 C 2.237050 0.656290 3.185828 0
M  V30 9 N 1.674865 1.568445 2.259745 0
M  V30 10 C 2.588975 2.435127 1.668603 0
M  V30 11 C 2.094047 3.836003 1.414744 0
M  V30 12 C 0.636652 3.879485 1.129182 0
M  V30 13 C 0.057961 5.002672 0.616095 0
M  V30 14 C -1.296771 5.037170 0.351562 0
M  V30 15 C -2.120913 3.947571 0.591609 0
M  V30 16 C -1.550348 2.819806 1.104816 0
M  V30 17 C -0.203471 2.810503 1.358846 0
M  V30 18 C 0.334394 1.521125 1.921335 0
M  V30 19 C 0.859243 -2.339390 -0.655907 0
M  V30 20 C -0.018112 -3.067578 -1.425976 0
M  V30 21 C -0.058867 -3.216185 -2.783847 0
M  V30 22 O 0.856811 -2.598252 -3.631169 0
M  V30 23 N -1.023632 -3.990058 -3.306586 0
M  V30 24 C -1.911163 -4.589889 -2.498027 0
M  V30 25 C -2.877202 -5.369199 -3.093363 0
M  V30 26 C -3.817017 -6.009389 -2.314711 0
M  V30 27 C -3.766055 -5.851955 -0.945539 0
M  V30 28 C -2.782355 -5.061513 -0.377330 0
M  V30 29 C -1.840567 -4.419062 -1.141745 0
M  V30 30 C -0.895823 -3.653492 -0.535370 0
M  V30 31 H -2.292272 -3.376091 2.100172 0
M  V30 32 H -0.727137 -3.320161 2.846674 0
M  V30 33 H -1.125174 -4.842368 2.097245 0
M  V30 34 H 2.636421 -0.933204 0.529776 0
M  V30 35 H 3.512557 -1.073102 3.272977 0
M  V30 36 H 3.954184 0.174685 2.012429 0
M  V30 37 H 1.429881 0.173248 3.738020 0
M  V30 38 H 2.842277 1.216506 3.950667 0
M  V30 39 H 2.937311 2.019343 0.681448 0
M  V30 40 H 3.539296 2.550479 2.257440 0
M  V30 41 H 2.634611 4.229015 0.526497 0
M  V30 42 H 2.342963 4.447047 2.316605 0
M  V30 43 H 0.718667 5.851827 0.432611 0
M  V30 44 H -1.702254 5.951623 -0.053856 0
M  V30 45 H -3.186073 3.992836 0.377709 0
M  V30 46 H -2.179520 1.955735 1.299866 0
M  V30 47 H -0.277819 1.232781 2.806804 0
M  V30 48 H 0.145322 0.739597 1.145108 0
M  V30 49 H 1.689175 -1.746710 -1.050889 0
M  V30 50 H 0.508358 -1.784865 -4.128303 0
M  V30 51 H -2.899879 -5.480867 -4.182025 0
M  V30 52 H -4.551619 -6.604493 -2.807393 0
M  V30 53 H -4.537852 -6.386135 -0.413809 0
M  V30 54 H -2.869742 -5.033363 0.669291 0
M  V30 END ATOM
M  V30 BEGIN BOND
M  V30 1 1 1 2
M  V30 2 1 2 3
M  V30 3 1 3 4
M  V30 4 2 4 5
M  V30 5 1 4 6
M  V30 6 1 6 7
M  V30 7 1 7 8
M  V30 8 1 8 9
M  V30 9 1 9 10
M  V30 10 1 10 11
M  V30 11 1 11 12
M  V30 12 2 12 13
M  V30 13 1 13 14
M  V30 14 2 14 15
M  V30 15 1 15 16
M  V30 16 2 16 17
M  V30 17 1 17 18
M  V30 18 2 3 19
M  V30 19 1 19 20
M  V30 20 2 20 21
M  V30 21 1 21 22
M  V30 22 1 21 23
M  V30 23 2 23 24
M  V30 24 1 24 25
M  V30 25 2 25 26
M  V30 26 1 26 27
M  V30 27 2 27 28
M  V30 28 1 28 29
M  V30 29 2 29 30
M  V30 30 1 30 2
M  V30 31 1 18 9
M  V30 32 1 30 20
M  V30 33 1 17 12
M  V30 34 1 29 24
M  V30 35 1 1 31
M  V30 36 1 1 32
M  V30 37 1 1 33
M  V30 38 1 6 34
M  V30 39 1 7 35
M  V30 40 1 7 36
M  V30 41 1 8 37
M  V30 42 1 8 38
M  V30 43 1 10 39
M  V30 44 1 10 40
M  V30 45 1 11 41
M  V30 46 1 11 42
M  V30 47 1 13 43
M  V30 48 1 14 44
M  V30 49 1 15 45
M  V30 50 1 16 46
M  V30 51 1 18 47
M  V30 52 1 18 48
M  V30 53 1 19 49
M  V30 54 1 22 50
M  V30 55 1 25 51
M  V30 56 1 26 52
M  V30 57 1 27 53
M  V30 58 1 28 54
M  V30 END BOND
M  V30 END CTAB
M  END
>  <Dataset>  (955) 
ChEMBL_Kinases

>  <Ligand_Instance>  (955) 
nan

>  <PDB_ID>  (955) 
nan

>  <Standardized_SMILES>  (955) 
Cn1c(C(=O)NCCN2CCc3ccccc3C2)cc2c(O)nc3ccccc3c21

>  <Name>  (955) 
nan

>  <Pocket>  (955) 
nan

>  <ATP_Site>  (955) 
nan

>  <Peripheral>  (955) 
nan

>  <Num_H_Atoms_ProtBoundConf>  (955) 
nan

>  <Num_Resolved_Atoms>  (955) 
nan

>  <Num_Not_Resolved_Atoms>  (955) 
nan

$$$$
CHEMBL1606705
     RDKit          3D

  0  0  0  0  0  0  0  0  0  0999 V3000
M  V30 BEGIN CTAB
M  V30 COUNTS 53 56 0 0 0
M  V30 BEGIN ATOM
M  V30 1 C -0.939635 -2.818076 6.389471 0
M  V30 2 C -0.441644 -2.132929 5.176194 0
M  V30 3 C -1.191286 -1.950595 4.034019 0
M  V30 4 C -0.677483 -1.295922 2.929118 0
M  V30 5 C 0.618986 -0.804802 2.951152 0
M  V30 6 C 1.170430 -0.100486 1.773111 0
M  V30 7 N 1.886083 1.043600 1.735734 0
M  V30 8 N 2.198925 1.376586 0.519193 0
M  V30 9 C 2.957638 2.551913 0.185870 0
M  V30 10 C 4.152869 2.419990 -0.495572 0
M  V30 11 C 4.896194 3.559691 -0.828438 0
M  V30 12 C 4.459416 4.822170 -0.489497 0
M  V30 13 C 3.266190 4.956818 0.191457 0
M  V30 14 C 2.524648 3.816980 0.523367 0
M  V30 15 C 1.671619 0.418876 -0.279223 0
M  V30 16 C 1.016506 -0.529969 0.466690 0
M  V30 17 C 0.357559 -1.709921 -0.054417 0
M  V30 18 C -0.529958 -1.993368 -0.987160 0
M  V30 19 C -1.158320 -1.033743 -1.847717 0
M  V30 20 O -0.475596 -0.122066 -2.362846 0
M  V30 21 C -2.612047 -1.120890 -2.126430 0
M  V30 22 C -3.119552 -2.542691 -2.009104 0
M  V30 23 C -4.126549 -2.753256 -3.118530 0
M  V30 24 C -3.837248 -2.769778 -0.696012 0
M  V30 25 C -2.004289 -3.544963 -2.218576 0
M  V30 26 C -0.932636 -3.406339 -1.187058 0
M  V30 27 O -0.421503 -4.370606 -0.553462 0
M  V30 28 C 1.363446 -1.000431 4.120435 0
M  V30 29 C 0.860132 -1.652775 5.229227 0
M  V30 30 H -0.453793 -2.416118 7.317606 0
M  V30 31 H -2.033411 -2.605114 6.548863 0
M  V30 32 H -0.802517 -3.912401 6.302447 0
M  V30 33 H -2.208710 -2.332107 4.007197 0
M  V30 34 H -1.257480 -1.147483 2.030250 0
M  V30 35 H 4.556459 1.446073 -0.797222 0
M  V30 36 H 5.850413 3.471517 -1.373410 0
M  V30 37 H 5.042126 5.694918 -0.751781 0
M  V30 38 H 2.862124 5.933381 0.492099 0
M  V30 39 H 1.580439 3.941190 1.064842 0
M  V30 40 H 1.860547 0.552341 -1.335672 0
M  V30 41 H 0.737783 -2.540904 0.512779 0
M  V30 42 H -2.848360 -0.699878 -3.123576 0
M  V30 43 H -3.130368 -0.494318 -1.370357 0
M  V30 44 H -3.660321 -2.534992 -4.123791 0
M  V30 45 H -5.022669 -2.122492 -2.952913 0
M  V30 46 H -4.369873 -3.849641 -3.161074 0
M  V30 47 H -4.326319 -1.824088 -0.423587 0
M  V30 48 H -4.509491 -3.640344 -0.762912 0
M  V30 49 H -3.065191 -2.972361 0.101051 0
M  V30 50 H -2.443749 -4.553627 -2.163577 0
M  V30 51 H -1.578831 -3.327324 -3.207938 0
M  V30 52 H 2.378814 -0.619925 4.149012 0
M  V30 53 H 1.495549 -1.773299 6.118271 0
M  V30 END ATOM
M  V30 BEGIN BOND
M  V30 1 1 1 2
M  V30 2 2 2 3
M  V30 3 1 3 4
M  V30 4 2 4 5
M  V30 5 1 5 6
M  V30 6 2 6 7
M  V30 7 1 7 8
M  V30 8 1 8 9
M  V30 9 2 9 10
M  V30 10 1 10 11
M  V30 11 2 11 12
M  V30 12 1 12 13
M  V30 13 2 13 14
M  V30 14 1 8 15
M  V30 15 2 15 16
M  V30 16 1 16 17
M  V30 17 2 17 18 CFG=2
M  V30 18 1 18 19
M  V30 19 2 19 20
M  V30 20 1 19 21
M  V30 21 1 21 22
M  V30 22 1 22 23
M  V30 23 1 22 24
M  V30 24 1 22 25
M  V30 25 1 25 26
M  V30 26 2 26 27
M  V30 27 1 5 28
M  V30 28 2 28 29
M  V30 29 1 29 2
M  V30 30 1 16 6
M  V30 31 1 26 18
M  V30 32 1 14 9
M  V30 33 1 1 30
M  V30 34 1 1 31
M  V30 35 1 1 32
M  V30 36 1 3 33
M  V30 37 1 4 34
M  V30 38 1 10 35
M  V30 39 1 11 36
M  V30 40 1 12 37
M  V30 41 1 13 38
M  V30 42 1 14 39
M  V30 43 1 15 40
M  V30 44 1 17 41
M  V30 45 1 21 42
M  V30 46 1 21 43
M  V30 47 1 23 44
M  V30 48 1 23 45
M  V30 49 1 23 46
M  V30 50 1 24 47
M  V30 51 1 24 48
M  V30 52 1 24 49
M  V30 53 1 25 50
M  V30 54 1 25 51
M  V30 55 1 28 52
M  V30 56 1 29 53
M  V30 END BOND
M  V30 END CTAB
M  END
>  <Dataset>  (956) 
ChEMBL_Kinases

>  <Ligand_Instance>  (956) 
nan

>  <PDB_ID>  (956) 
nan

>  <Standardized_SMILES>  (956) 
Cc1ccc(-c2nn(-c3ccccc3)cc2C=C2C(=O)CC(C)(C)CC2=O)cc1

>  <Name>  (956) 
nan

>  <Pocket>  (956) 
nan

>  <ATP_Site>  (956) 
nan

>  <Peripheral>  (956) 
nan

>  <Num_H_Atoms_ProtBoundConf>  (956) 
nan

>  <Num_Resolved_Atoms>  (956) 
nan

>  <Num_Not_Resolved_Atoms>  (956) 
nan

$$$$
CHEMBL1606671
     RDKit          3D

  0  0  0  0  0  0  0  0  0  0999 V3000
M  V30 BEGIN CTAB
M  V30 COUNTS 44 46 0 0 0
M  V30 BEGIN ATOM
M  V30 1 C -1.844272 -7.002243 -1.458679 0
M  V30 2 C -1.665293 -6.304236 -2.808586 0
M  V30 3 O -1.298758 -4.974723 -2.493875 0
M  V30 4 C -0.152223 -4.719111 -1.756192 0
M  V30 5 O 0.624347 -5.633153 -1.323904 0
M  V30 6 C 0.245543 -3.349931 -1.420383 0
M  V30 7 C 1.386288 -3.134025 -0.676530 0
M  V30 8 C 1.809484 -1.861546 -0.332225 0
M  V30 9 C 1.038365 -0.798220 -0.766064 0
M  V30 10 N 1.521161 0.487712 -0.380491 0
M  V30 11 N 2.392733 1.352248 -0.989390 0
M  V30 12 C 2.620872 2.444155 -0.371058 0
M  V30 13 C 3.527330 3.523232 -0.842580 0
M  V30 14 C 1.857191 2.505480 0.898190 0
M  V30 15 C 1.772592 3.449286 1.877022 0
M  V30 16 C 0.804484 2.901325 2.925238 0
M  V30 17 C 0.657217 3.775870 3.939864 0
M  V30 18 C -0.288202 3.210899 4.937735 0
M  V30 19 C -0.938530 1.970990 4.871432 0
M  V30 20 C -1.749161 1.768598 5.975489 0
M  V30 21 C -1.555645 2.915633 6.682820 0
M  V30 22 O -0.729052 3.707541 6.074406 0
M  V30 23 C 1.171230 1.190123 0.806926 0
M  V30 24 O 0.356184 0.691484 1.654897 0
M  V30 25 C -0.109683 -0.999648 -1.513952 0
M  V30 26 C -0.538506 -2.274173 -1.861842 0
M  V30 27 H -0.846841 -7.467943 -1.212885 0
M  V30 28 H -2.083398 -6.294473 -0.645565 0
M  V30 29 H -2.589028 -7.826991 -1.508848 0
M  V30 30 H -2.637088 -6.348377 -3.341415 0
M  V30 31 H -0.893258 -6.770679 -3.418001 0
M  V30 32 H 2.011794 -3.964423 -0.323214 0
M  V30 33 H 2.708864 -1.730496 0.251746 0
M  V30 34 H 2.991891 4.289835 -1.452097 0
M  V30 35 H 4.015451 4.002375 0.041172 0
M  V30 36 H 4.365951 3.060581 -1.428020 0
M  V30 37 H 2.488255 4.235395 1.443057 0
M  V30 38 H 1.327149 3.766684 2.868986 0
M  V30 39 H 0.986549 4.775496 4.309032 0
M  V30 40 H -0.870740 1.207692 4.089852 0
M  V30 41 H -2.361039 0.903687 6.180422 0
M  V30 42 H -2.024483 3.162773 7.643077 0
M  V30 43 H -0.669807 -0.100921 -1.821515 0
M  V30 44 H -1.438033 -2.414604 -2.446464 0
M  V30 END ATOM
M  V30 BEGIN BOND
M  V30 1 1 1 2
M  V30 2 1 2 3
M  V30 3 1 3 4
M  V30 4 2 4 5
M  V30 5 1 4 6
M  V30 6 2 6 7
M  V30 7 1 7 8
M  V30 8 2 8 9
M  V30 9 1 9 10
M  V30 10 1 10 11
M  V30 11 2 11 12
M  V30 12 1 12 13
M  V30 13 1 12 14
M  V30 14 2 14 15
M  V30 15 1 15 16
M  V30 16 2 16 17
M  V30 17 1 17 18
M  V30 18 2 18 19
M  V30 19 1 19 20
M  V30 20 2 20 21
M  V30 21 1 21 22
M  V30 22 1 14 23
M  V30 23 2 23 24
M  V30 24 1 9 25
M  V30 25 2 25 26
M  V30 26 1 26 6
M  V30 27 1 23 10
M  V30 28 1 22 18
M  V30 29 1 1 27
M  V30 30 1 1 28
M  V30 31 1 1 29
M  V30 32 1 2 30
M  V30 33 1 2 31
M  V30 34 1 7 32
M  V30 35 1 8 33
M  V30 36 1 13 34
M  V30 37 1 13 35
M  V30 38 1 13 36
M  V30 39 1 15 37
M  V30 40 1 16 38
M  V30 41 1 17 39
M  V30 42 1 19 40
M  V30 43 1 20 41
M  V30 44 1 21 42
M  V30 45 1 25 43
M  V30 46 1 26 44
M  V30 END BOND
M  V30 END CTAB
M  END
>  <Dataset>  (957) 
ChEMBL_Kinases

>  <Ligand_Instance>  (957) 
nan

>  <PDB_ID>  (957) 
nan

>  <Standardized_SMILES>  (957) 
CCOC(=O)c1ccc(N2N=C(C)/C(=C/C=C/c3ccco3)C2=O)cc1

>  <Name>  (957) 
nan

>  <Pocket>  (957) 
nan

>  <ATP_Site>  (957) 
nan

>  <Peripheral>  (957) 
nan

>  <Num_H_Atoms_ProtBoundConf>  (957) 
nan

>  <Num_Resolved_Atoms>  (957) 
nan

>  <Num_Not_Resolved_Atoms>  (957) 
nan

$$$$
CHEMBL1606667
     RDKit          3D

  0  0  0  0  0  0  0  0  0  0999 V3000
M  V30 BEGIN CTAB
M  V30 COUNTS 63 66 0 0 0
M  V30 BEGIN ATOM
M  V30 1 C 1.144962 -2.608464 3.536725 0
M  V30 2 C 1.007090 -3.266130 2.192519 0
M  V30 3 N 0.995137 -2.363681 1.117528 0
M  V30 4 C 2.124834 -1.667216 0.715618 0
M  V30 5 C 2.701734 -0.811752 1.768573 0
M  V30 6 C 3.711841 -1.134498 2.678585 0
M  V30 7 C 4.185633 -0.245383 3.614690 0
M  V30 8 C 3.675804 1.041577 3.705672 0
M  V30 9 C 2.678420 1.390329 2.821676 0
M  V30 10 C 2.209103 0.494493 1.887160 0
M  V30 11 C -0.280420 -2.042609 0.591326 0
M  V30 12 C -0.185517 -1.192403 -0.588628 0
M  V30 13 C -0.611264 0.141569 -0.631081 0
M  V30 14 C -0.542774 0.981333 -1.723467 0
M  V30 15 C -1.020324 2.287290 -1.573712 0
M  V30 16 C -0.948934 3.127661 -2.675972 0
M  V30 17 C -1.443634 4.521483 -2.559687 0
M  V30 18 C -0.413313 2.632597 -3.855285 0
M  V30 19 C 0.047846 1.325803 -3.952910 0
M  V30 20 C 0.619647 0.808913 -5.222883 0
M  V30 21 C -0.008079 0.469011 -2.882397 0
M  V30 22 N 0.417636 -0.805730 -2.902165 0
M  V30 23 C 0.328418 -1.586055 -1.806359 0
M  V30 24 O 0.800499 -2.886540 -1.945188 0
M  V30 25 C -1.214388 -3.182881 0.436427 0
M  V30 26 N -0.800293 -4.340268 -0.103077 0
M  V30 27 N -1.834979 -5.166486 -0.114293 0
M  V30 28 N -2.905686 -4.588519 0.398382 0
M  V30 29 N -2.525241 -3.365497 0.738464 0
M  V30 30 C -3.325406 -2.298294 1.354495 0
M  V30 31 C -3.282570 -2.346853 2.842798 0
M  V30 32 O -4.023245 -1.352801 3.468739 0
M  V30 33 C -5.367318 -1.374796 3.168093 0
M  V30 34 H 1.015499 -1.513360 3.526331 0
M  V30 35 H 0.318861 -2.956255 4.236556 0
M  V30 36 H 2.066692 -2.940961 4.100349 0
M  V30 37 H 1.804006 -4.051142 2.075316 0
M  V30 38 H 0.049782 -3.854546 2.220226 0
M  V30 39 H 2.982530 -2.344714 0.374026 0
M  V30 40 H 1.989534 -1.006285 -0.176439 0
M  V30 41 H 4.068406 -2.164314 2.552886 0
M  V30 42 H 4.979930 -0.635275 4.264373 0
M  V30 43 H 4.122729 1.648432 4.474840 0
M  V30 44 H 2.311696 2.396585 2.926136 0
M  V30 45 H 1.428171 0.906706 1.263434 0
M  V30 46 H -0.773345 -1.394627 1.387530 0
M  V30 47 H -1.038643 0.546314 0.301375 0
M  V30 48 H -1.427293 2.624348 -0.639617 0
M  V30 49 H -0.991195 5.021915 -1.669257 0
M  V30 50 H -2.556427 4.501527 -2.429218 0
M  V30 51 H -1.150240 5.070612 -3.468858 0
M  V30 52 H -0.365750 3.300023 -4.699907 0
M  V30 53 H 0.055961 -0.060319 -5.626337 0
M  V30 54 H 1.665639 0.484487 -4.956084 0
M  V30 55 H 0.679766 1.616534 -5.988095 0
M  V30 56 H 1.787699 -2.981733 -2.185058 0
M  V30 57 H -4.380822 -2.557735 1.040786 0
M  V30 58 H -2.972338 -1.342703 0.975189 0
M  V30 59 H -3.714907 -3.318336 3.229695 0
M  V30 60 H -2.268094 -2.296457 3.268469 0
M  V30 61 H -5.522242 -1.241498 2.071973 0
M  V30 62 H -5.924633 -0.591671 3.694278 0
M  V30 63 H -5.811656 -2.393324 3.375031 0
M  V30 END ATOM
M  V30 BEGIN BOND
M  V30 1 1 1 2
M  V30 2 1 2 3
M  V30 3 1 3 4
M  V30 4 1 4 5
M  V30 5 2 5 6
M  V30 6 1 6 7
M  V30 7 2 7 8
M  V30 8 1 8 9
M  V30 9 2 9 10
M  V30 10 1 3 11
M  V30 11 1 11 12
M  V30 12 2 12 13
M  V30 13 1 13 14
M  V30 14 2 14 15
M  V30 15 1 15 16
M  V30 16 1 16 17
M  V30 17 2 16 18
M  V30 18 1 18 19
M  V30 19 1 19 20
M  V30 20 2 19 21
M  V30 21 1 21 22
M  V30 22 2 22 23
M  V30 23 1 23 24
M  V30 24 1 11 25
M  V30 25 2 25 26
M  V30 26 1 26 27
M  V30 27 2 27 28
M  V30 28 1 28 29
M  V30 29 1 29 30
M  V30 30 1 30 31
M  V30 31 1 31 32
M  V30 32 1 32 33
M  V30 33 1 10 5
M  V30 34 1 23 12
M  V30 35 1 29 25
M  V30 36 1 21 14
M  V30 37 1 1 34
M  V30 38 1 1 35
M  V30 39 1 1 36
M  V30 40 1 2 37
M  V30 41 1 2 38
M  V30 42 1 4 39
M  V30 43 1 4 40
M  V30 44 1 6 41
M  V30 45 1 7 42
M  V30 46 1 8 43
M  V30 47 1 9 44
M  V30 48 1 10 45
M  V30 49 1 11 46
M  V30 50 1 13 47
M  V30 51 1 15 48
M  V30 52 1 17 49
M  V30 53 1 17 50
M  V30 54 1 17 51
M  V30 55 1 18 52
M  V30 56 1 20 53
M  V30 57 1 20 54
M  V30 58 1 20 55
M  V30 59 1 24 56
M  V30 60 1 30 57
M  V30 61 1 30 58
M  V30 62 1 31 59
M  V30 63 1 31 60
M  V30 64 1 33 61
M  V30 65 1 33 62
M  V30 66 1 33 63
M  V30 END BOND
M  V30 END CTAB
M  END
>  <Dataset>  (958) 
ChEMBL_Kinases

>  <Ligand_Instance>  (958) 
nan

>  <PDB_ID>  (958) 
nan

>  <Standardized_SMILES>  (958) 
CCN(Cc1ccccc1)C(c1cc2cc(C)cc(C)c2nc1O)c1nnnn1CCOC

>  <Name>  (958) 
nan

>  <Pocket>  (958) 
nan

>  <ATP_Site>  (958) 
nan

>  <Peripheral>  (958) 
nan

>  <Num_H_Atoms_ProtBoundConf>  (958) 
nan

>  <Num_Resolved_Atoms>  (958) 
nan

>  <Num_Not_Resolved_Atoms>  (958) 
nan

$$$$
CHEMBL1606602
     RDKit          3D

  0  0  0  0  0  0  0  0  0  0999 V3000
M  V30 BEGIN CTAB
M  V30 COUNTS 58 62 0 0 0
M  V30 BEGIN ATOM
M  V30 1 C 7.145784 2.130668 4.765603 0
M  V30 2 C 5.965549 1.494581 4.136746 0
M  V30 3 C 5.377982 0.353711 4.611647 0
M  V30 4 C 4.302737 -0.293144 4.101956 0
M  V30 5 C 3.752309 0.292452 2.964502 0
M  V30 6 C 2.609682 -0.464253 2.391375 0
M  V30 7 C 4.247065 1.448281 2.381755 0
M  V30 8 C 3.651260 2.111279 1.246879 0
M  V30 9 O 4.407865 3.094201 0.877892 0
M  V30 10 C 2.692984 2.373146 0.220540 0
M  V30 11 O 1.439370 1.694537 0.290111 0
M  V30 12 C 0.556234 1.946701 1.358429 0
M  V30 13 O 0.889050 2.773550 2.242393 0
M  V30 14 C -0.736082 1.282236 1.479170 0
M  V30 15 C -1.510783 1.616101 2.568928 0
M  V30 16 C -2.746861 1.000866 2.714766 0
M  V30 17 C -3.145532 0.084357 1.765410 0
M  V30 18 C -2.414778 -0.284198 0.663179 0
M  V30 19 N -2.863215 -1.233308 -0.290229 0
M  V30 20 C -4.093719 -1.931024 -0.262939 0
M  V30 21 O -5.044400 -1.898483 0.550196 0
M  V30 22 C -4.209444 -2.825433 -1.408843 0
M  V30 23 C -5.164725 -3.727943 -1.887591 0
M  V30 24 C -6.417478 -3.892903 -1.104528 0
M  V30 25 N -4.969360 -4.427990 -3.015431 0
M  V30 26 C -3.861757 -4.322968 -3.764709 0
M  V30 27 C -3.647204 -5.043360 -4.936146 0
M  V30 28 C -2.477825 -4.895883 -5.676462 0
M  V30 29 C -1.515506 -4.009048 -5.225074 0
M  V30 30 C -1.761373 -3.312389 -4.061213 0
M  V30 31 C -2.908834 -3.437322 -3.307473 0
M  V30 32 C -3.057402 -2.692585 -2.155603 0
M  V30 33 C -2.212331 -1.699552 -1.462327 0
M  V30 34 O -1.086267 -1.345851 -1.882028 0
M  V30 35 C -1.202283 0.358867 0.574957 0
M  V30 36 C 5.363384 2.004694 3.018815 0
M  V30 37 H 7.124163 1.879033 5.858865 0
M  V30 38 H 8.102009 1.739101 4.364361 0
M  V30 39 H 7.111538 3.239804 4.725914 0
M  V30 40 H 5.818524 -0.091167 5.501480 0
M  V30 41 H 3.909883 -1.191284 4.548337 0
M  V30 42 H 1.692136 -0.123512 2.891999 0
M  V30 43 H 2.715507 -1.569697 2.653675 0
M  V30 44 H 2.610542 -0.441489 1.296725 0
M  V30 45 H 3.074528 2.204476 -0.838974 0
M  V30 46 H 2.361787 3.460818 0.216559 0
M  V30 47 H -1.198992 2.330316 3.308056 0
M  V30 48 H -3.356039 1.262087 3.569365 0
M  V30 49 H -4.117238 -0.341986 1.959390 0
M  V30 50 H -6.188348 -3.941887 -0.000618 0
M  V30 51 H -7.180986 -3.136683 -1.342687 0
M  V30 52 H -6.891701 -4.893114 -1.319860 0
M  V30 53 H -4.463122 -5.722179 -5.217196 0
M  V30 54 H -2.461419 -5.528414 -6.565989 0
M  V30 55 H -0.649407 -3.946516 -5.838802 0
M  V30 56 H -0.957963 -2.645169 -3.785443 0
M  V30 57 H -0.519896 0.170926 -0.237571 0
M  V30 58 H 5.855001 2.926096 2.655027 0
M  V30 END ATOM
M  V30 BEGIN BOND
M  V30 1 1 1 2
M  V30 2 2 2 3
M  V30 3 1 3 4
M  V30 4 2 4 5
M  V30 5 1 5 6
M  V30 6 1 5 7
M  V30 7 1 7 8
M  V30 8 2 8 9
M  V30 9 1 8 10
M  V30 10 1 10 11
M  V30 11 1 11 12
M  V30 12 2 12 13
M  V30 13 1 12 14
M  V30 14 2 14 15
M  V30 15 1 15 16
M  V30 16 2 16 17
M  V30 17 1 17 18
M  V30 18 1 18 19
M  V30 19 1 19 20
M  V30 20 2 20 21
M  V30 21 1 20 22
M  V30 22 2 22 23
M  V30 23 1 23 24
M  V30 24 1 23 25
M  V30 25 2 25 26
M  V30 26 1 26 27
M  V30 27 2 27 28
M  V30 28 1 28 29
M  V30 29 2 29 30
M  V30 30 1 30 31
M  V30 31 2 31 32
M  V30 32 1 32 33
M  V30 33 2 33 34
M  V30 34 2 18 35
M  V30 35 2 7 36
M  V30 36 1 36 2
M  V30 37 1 35 14
M  V30 38 1 33 19
M  V30 39 1 32 22
M  V30 40 1 31 26
M  V30 41 1 1 37
M  V30 42 1 1 38
M  V30 43 1 1 39
M  V30 44 1 3 40
M  V30 45 1 4 41
M  V30 46 1 6 42
M  V30 47 1 6 43
M  V30 48 1 6 44
M  V30 49 1 10 45
M  V30 50 1 10 46
M  V30 51 1 15 47
M  V30 52 1 16 48
M  V30 53 1 17 49
M  V30 54 1 24 50
M  V30 55 1 24 51
M  V30 56 1 24 52
M  V30 57 1 27 53
M  V30 58 1 28 54
M  V30 59 1 29 55
M  V30 60 1 30 56
M  V30 61 1 35 57
M  V30 62 1 36 58
M  V30 END BOND
M  V30 END CTAB
M  END
>  <Dataset>  (959) 
ChEMBL_Kinases

>  <Ligand_Instance>  (959) 
nan

>  <PDB_ID>  (959) 
nan

>  <Standardized_SMILES>  (959) 
Cc1ccc(C)c(C(=O)COC(=O)c2cccc(N3C(=O)c4c(C)nc5ccccc5c4C3=O)c2)c1

>  <Name>  (959) 
nan

>  <Pocket>  (959) 
nan

>  <ATP_Site>  (959) 
nan

>  <Peripheral>  (959) 
nan

>  <Num_H_Atoms_ProtBoundConf>  (959) 
nan

>  <Num_Resolved_Atoms>  (959) 
nan

>  <Num_Not_Resolved_Atoms>  (959) 
nan

$$$$
CHEMBL1606570
     RDKit          3D

  0  0  0  0  0  0  0  0  0  0999 V3000
M  V30 BEGIN CTAB
M  V30 COUNTS 44 46 0 0 0
M  V30 BEGIN ATOM
M  V30 1 C -1.711703 -5.252121 1.121616 0
M  V30 2 C -1.672751 -3.772824 1.244053 0
M  V30 3 C -0.586734 -3.021117 0.866829 0
M  V30 4 C -0.510456 -1.627439 0.965743 0
M  V30 5 O 0.650531 -0.929355 0.540751 0
M  V30 6 C 1.683345 -1.784884 0.040888 0
M  V30 7 C 2.870980 -1.161831 -0.458242 0
M  V30 8 O 3.637069 -2.148450 -0.705683 0
M  V30 9 N 3.721205 -0.103897 -0.849504 0
M  V30 10 C 3.257014 1.253546 -0.792527 0
M  V30 11 C 5.073098 -0.055318 -1.331718 0
M  V30 12 C -1.641207 -1.072876 1.486886 0
M  V30 13 C -1.558054 0.288953 1.587476 0
M  V30 14 C -0.528903 1.266364 1.364101 0
M  V30 15 C -0.786191 2.292721 0.445520 0
M  V30 16 C 0.101080 3.352250 0.222177 0
M  V30 17 C 1.265806 3.362942 0.946179 0
M  V30 18 C 1.541236 2.346048 1.867277 0
M  V30 19 C 0.672530 1.300759 2.091387 0
M  V30 20 C -2.681406 0.954704 2.111339 0
M  V30 21 C -3.789424 0.181026 2.490351 0
M  V30 22 O -4.858593 0.650804 2.972436 0
M  V30 23 O -3.803759 -1.123213 2.371443 0
M  V30 24 C -2.763069 -1.746480 1.884692 0
M  V30 25 C -2.768616 -3.115931 1.757214 0
M  V30 26 H -2.755479 -5.578386 0.862322 0
M  V30 27 H -1.074079 -5.528116 0.269759 0
M  V30 28 H -1.438674 -5.771452 2.069448 0
M  V30 29 H 0.228321 -3.612603 0.479549 0
M  V30 30 H 1.934669 -2.519821 0.859432 0
M  V30 31 H 1.224347 -2.421681 -0.783417 0
M  V30 32 H 2.124076 1.243921 -0.749138 0
M  V30 33 H 3.447638 1.795253 -1.766583 0
M  V30 34 H 3.713169 1.816819 0.038718 0
M  V30 35 H 5.740145 0.499272 -0.640489 0
M  V30 36 H 5.117733 0.328262 -2.384062 0
M  V30 37 H 5.481272 -1.105772 -1.329085 0
M  V30 38 H -1.725622 2.270180 -0.128568 0
M  V30 39 H -0.203552 4.086828 -0.510627 0
M  V30 40 H 1.922070 4.191922 0.748753 0
M  V30 41 H 2.486256 2.395685 2.423692 0
M  V30 42 H 0.896305 0.526222 2.810447 0
M  V30 43 H -2.872592 2.004566 2.290650 0
M  V30 44 H -3.661146 -3.626299 2.076103 0
M  V30 END ATOM
M  V30 BEGIN BOND
M  V30 1 1 1 2
M  V30 2 2 2 3
M  V30 3 1 3 4
M  V30 4 1 4 5
M  V30 5 1 5 6
M  V30 6 1 6 7
M  V30 7 2 7 8
M  V30 8 1 7 9
M  V30 9 1 9 10
M  V30 10 1 9 11
M  V30 11 2 4 12
M  V30 12 1 12 13
M  V30 13 1 13 14
M  V30 14 2 14 15
M  V30 15 1 15 16
M  V30 16 2 16 17
M  V30 17 1 17 18
M  V30 18 2 18 19
M  V30 19 2 13 20
M  V30 20 1 20 21
M  V30 21 2 21 22
M  V30 22 1 21 23
M  V30 23 1 23 24
M  V30 24 2 24 25
M  V30 25 1 25 2
M  V30 26 1 24 12
M  V30 27 1 19 14
M  V30 28 1 1 26
M  V30 29 1 1 27
M  V30 30 1 1 28
M  V30 31 1 3 29
M  V30 32 1 6 30
M  V30 33 1 6 31
M  V30 34 1 10 32
M  V30 35 1 10 33
M  V30 36 1 10 34
M  V30 37 1 11 35
M  V30 38 1 11 36
M  V30 39 1 11 37
M  V30 40 1 15 38
M  V30 41 1 16 39
M  V30 42 1 17 40
M  V30 43 1 18 41
M  V30 44 1 19 42
M  V30 45 1 20 43
M  V30 46 1 25 44
M  V30 END BOND
M  V30 END CTAB
M  END
>  <Dataset>  (960) 
ChEMBL_Kinases

>  <Ligand_Instance>  (960) 
nan

>  <PDB_ID>  (960) 
nan

>  <Standardized_SMILES>  (960) 
Cc1cc(OCC(=O)N(C)C)c2c(-c3ccccc3)cc(=O)oc2c1

>  <Name>  (960) 
nan

>  <Pocket>  (960) 
nan

>  <ATP_Site>  (960) 
nan

>  <Peripheral>  (960) 
nan

>  <Num_H_Atoms_ProtBoundConf>  (960) 
nan

>  <Num_Resolved_Atoms>  (960) 
nan

>  <Num_Not_Resolved_Atoms>  (960) 
nan

$$$$
CHEMBL1606561
     RDKit          3D

  0  0  0  0  0  0  0  0  0  0999 V3000
M  V30 BEGIN CTAB
M  V30 COUNTS 37 39 0 0 0
M  V30 BEGIN ATOM
M  V30 1 C 0.484117 -5.283758 4.004643 0
M  V30 2 C 0.121120 -4.540408 2.727701 0
M  V30 3 O 1.055294 -4.717255 1.740517 0
M  V30 4 C 0.779646 -4.074500 0.543119 0
M  V30 5 C 0.665182 -2.589730 0.661934 0
M  V30 6 C 0.367539 -1.954625 -0.706323 0
M  V30 7 N 0.258126 -0.504622 -0.577076 0
M  V30 8 C 1.373936 0.264318 -0.722348 0
M  V30 9 O 2.493946 -0.255597 -0.965584 0
M  V30 10 C 1.222680 1.629044 -0.591871 0
M  V30 11 C 2.373589 2.386338 -0.744441 0
M  V30 12 C 2.218279 3.752000 -0.613168 0
M  V30 13 C 1.025505 4.401375 -0.346900 0
M  V30 14 C -0.095768 3.602803 -0.202845 0
M  V30 15 C 0.016003 2.239012 -0.326045 0
M  V30 16 N -1.044993 1.446452 -0.192538 0
M  V30 17 C -2.328178 1.721304 0.061943 0
M  V30 18 S -3.198661 3.245764 0.335451 0
M  V30 19 N -2.981524 0.548934 0.092536 0
M  V30 20 N -2.113848 -0.447968 -0.140714 0
M  V30 21 C -0.907479 0.117458 -0.317823 0
M  V30 22 H 0.893151 -6.255493 3.694451 0
M  V30 23 H -0.453160 -5.472566 4.546577 0
M  V30 24 H 1.185619 -4.648081 4.569277 0
M  V30 25 H -0.847271 -4.937189 2.388854 0
M  V30 26 H 0.084403 -3.443789 2.978282 0
M  V30 27 H -0.104176 -4.495847 0.026860 0
M  V30 28 H 1.670341 -4.281407 -0.119367 0
M  V30 29 H -0.207789 -2.337462 1.320701 0
M  V30 30 H 1.560510 -2.115415 1.105017 0
M  V30 31 H -0.541990 -2.387449 -1.140170 0
M  V30 32 H 1.226956 -2.161842 -1.360645 0
M  V30 33 H 3.344720 1.957836 -0.953687 0
M  V30 34 H 3.115703 4.351160 -0.731517 0
M  V30 35 H 1.035505 5.479200 -0.267434 0
M  V30 36 H -0.997096 4.142822 0.002078 0
M  V30 37 H -3.152290 3.662759 1.663527 0
M  V30 END ATOM
M  V30 BEGIN BOND
M  V30 1 1 1 2
M  V30 2 1 2 3
M  V30 3 1 3 4
M  V30 4 1 4 5
M  V30 5 1 5 6
M  V30 6 1 6 7
M  V30 7 1 7 8
M  V30 8 2 8 9
M  V30 9 1 8 10
M  V30 10 2 10 11
M  V30 11 1 11 12
M  V30 12 2 12 13
M  V30 13 1 13 14
M  V30 14 2 14 15
M  V30 15 1 15 16
M  V30 16 1 16 17
M  V30 17 1 17 18
M  V30 18 2 17 19
M  V30 19 1 19 20
M  V30 20 2 20 21
M  V30 21 1 21 7
M  V30 22 1 15 10
M  V30 23 1 21 16
M  V30 24 1 1 22
M  V30 25 1 1 23
M  V30 26 1 1 24
M  V30 27 1 2 25
M  V30 28 1 2 26
M  V30 29 1 4 27
M  V30 30 1 4 28
M  V30 31 1 5 29
M  V30 32 1 5 30
M  V30 33 1 6 31
M  V30 34 1 6 32
M  V30 35 1 11 33
M  V30 36 1 12 34
M  V30 37 1 13 35
M  V30 38 1 14 36
M  V30 39 1 18 37
M  V30 END BOND
M  V30 END CTAB
M  END
>  <Dataset>  (961) 
ChEMBL_Kinases

>  <Ligand_Instance>  (961) 
nan

>  <PDB_ID>  (961) 
nan

>  <Standardized_SMILES>  (961) 
CCOCCCn1c(=O)c2ccccc2n2c(S)nnc12

>  <Name>  (961) 
nan

>  <Pocket>  (961) 
nan

>  <ATP_Site>  (961) 
nan

>  <Peripheral>  (961) 
nan

>  <Num_H_Atoms_ProtBoundConf>  (961) 
nan

>  <Num_Resolved_Atoms>  (961) 
nan

>  <Num_Not_Resolved_Atoms>  (961) 
nan

$$$$
CHEMBL1606542
     RDKit          3D

  0  0  0  0  0  0  0  0  0  0999 V3000
M  V30 BEGIN CTAB
M  V30 COUNTS 38 39 0 0 0
M  V30 BEGIN ATOM
M  V30 1 C -1.528709 -4.172963 4.846777 0
M  V30 2 C -0.417999 -4.133029 3.826972 0
M  V30 3 C -0.168971 -5.172827 2.988182 0
M  V30 4 C 0.876589 -5.078089 2.078397 0
M  V30 5 O 1.170415 -6.103618 1.205638 0
M  V30 6 N 1.648110 -3.961723 2.020157 0
M  V30 7 C 1.397721 -2.930233 2.854567 0
M  V30 8 N 2.054178 -1.677196 3.001044 0
M  V30 9 C 1.715635 -0.604046 2.106229 0
M  V30 10 C 2.250100 0.677440 2.226581 0
M  V30 11 C 1.891399 1.656729 1.323824 0
M  V30 12 C 1.010848 1.414462 0.290198 0
M  V30 13 C 0.693231 2.520568 -0.610455 0
M  V30 14 O 1.224704 3.637644 -0.382946 0
M  V30 15 O -0.157527 2.346897 -1.670649 0
M  V30 16 C -0.559027 3.295758 -2.609265 0
M  V30 17 C -2.068516 3.398978 -2.570438 0
M  V30 18 C -0.188571 2.869426 -4.036973 0
M  V30 19 C 0.459261 0.154553 0.138406 0
M  V30 20 C 0.840193 -0.799256 1.058675 0
M  V30 21 N 0.374038 -3.053195 3.727392 0
M  V30 22 H -1.494511 -3.241770 5.471243 0
M  V30 23 H -2.521435 -4.271531 4.382814 0
M  V30 24 H -1.337592 -5.007338 5.575324 0
M  V30 25 H -0.778398 -6.069451 3.026874 0
M  V30 26 H 0.462063 -6.409021 0.540892 0
M  V30 27 H 2.773293 -1.441896 3.706846 0
M  V30 28 H 2.930423 0.843703 3.034882 0
M  V30 29 H 2.369689 2.613713 1.515114 0
M  V30 30 H -0.101047 4.294637 -2.398313 0
M  V30 31 H -2.500394 2.385849 -2.677028 0
M  V30 32 H -2.381120 3.876379 -1.616335 0
M  V30 33 H -2.429489 3.986271 -3.458932 0
M  V30 34 H 0.274387 1.860079 -3.952180 0
M  V30 35 H 0.599338 3.542543 -4.436888 0
M  V30 36 H -1.060696 2.777240 -4.693957 0
M  V30 37 H -0.231246 -0.054616 -0.664053 0
M  V30 38 H 0.384349 -1.792204 0.913562 0
M  V30 END ATOM
M  V30 BEGIN BOND
M  V30 1 1 1 2
M  V30 2 2 2 3
M  V30 3 1 3 4
M  V30 4 1 4 5
M  V30 5 2 4 6
M  V30 6 1 6 7
M  V30 7 1 7 8
M  V30 8 1 8 9
M  V30 9 2 9 10
M  V30 10 1 10 11
M  V30 11 2 11 12
M  V30 12 1 12 13
M  V30 13 2 13 14
M  V30 14 1 13 15
M  V30 15 1 15 16
M  V30 16 1 16 17
M  V30 17 1 16 18
M  V30 18 1 12 19
M  V30 19 2 19 20
M  V30 20 2 7 21
M  V30 21 1 21 2
M  V30 22 1 20 9
M  V30 23 1 1 22
M  V30 24 1 1 23
M  V30 25 1 1 24
M  V30 26 1 3 25
M  V30 27 1 5 26
M  V30 28 1 8 27
M  V30 29 1 10 28
M  V30 30 1 11 29
M  V30 31 1 16 30
M  V30 32 1 17 31
M  V30 33 1 17 32
M  V30 34 1 17 33
M  V30 35 1 18 34
M  V30 36 1 18 35
M  V30 37 1 18 36
M  V30 38 1 19 37
M  V30 39 1 20 38
M  V30 END BOND
M  V30 END CTAB
M  END
>  <Dataset>  (962) 
ChEMBL_Kinases

>  <Ligand_Instance>  (962) 
nan

>  <PDB_ID>  (962) 
nan

>  <Standardized_SMILES>  (962) 
Cc1cc(O)nc(Nc2ccc(C(=O)OC(C)C)cc2)n1

>  <Name>  (962) 
nan

>  <Pocket>  (962) 
nan

>  <ATP_Site>  (962) 
nan

>  <Peripheral>  (962) 
nan

>  <Num_H_Atoms_ProtBoundConf>  (962) 
nan

>  <Num_Resolved_Atoms>  (962) 
nan

>  <Num_Not_Resolved_Atoms>  (962) 
nan

$$$$
CHEMBL1606515
     RDKit          3D

  0  0  0  0  0  0  0  0  0  0999 V3000
M  V30 BEGIN CTAB
M  V30 COUNTS 55 57 0 0 0
M  V30 BEGIN ATOM
M  V30 1 C -1.012481 -4.791513 1.115713 0
M  V30 2 C 0.381269 -4.315204 0.769013 0
M  V30 3 C 1.327371 -5.257448 1.540217 0
M  V30 4 C 0.672874 -2.946046 1.253064 0
M  V30 5 C 0.307349 -1.811075 0.285098 0
M  V30 6 C -0.361709 -0.791971 1.073870 0
M  V30 7 C 0.615874 -0.311190 2.163428 0
M  V30 8 C 1.850392 0.290162 1.614247 0
M  V30 9 O 2.837242 -0.217423 1.024357 0
M  V30 10 N 2.005772 1.725713 1.754720 0
M  V30 11 C 1.161297 2.762699 2.364186 0
M  V30 12 C 0.990874 3.730712 1.219860 0
M  V30 13 C 2.330237 3.617272 0.477377 0
M  V30 14 C 3.105308 2.602026 1.309155 0
M  V30 15 C -0.965678 0.416459 0.528142 0
M  V30 16 C -2.044647 0.379337 -0.428481 0
M  V30 17 C -3.348201 0.296124 0.090963 0
M  V30 18 C -4.499485 0.271534 -0.677298 0
M  V30 19 C -4.382521 0.331543 -2.041006 0
M  V30 20 C -3.140667 0.415222 -2.648497 0
M  V30 21 C -2.074764 0.433224 -1.814693 0
M  V30 22 C -0.349748 -2.412981 -0.902974 0
M  V30 23 C 0.613787 -3.520665 -1.381657 0
M  V30 24 O 0.617619 -4.590865 -0.544515 0
M  V30 25 H -1.618319 -4.005154 1.611311 0
M  V30 26 H -1.574143 -5.105395 0.213819 0
M  V30 27 H -1.034517 -5.656070 1.802867 0
M  V30 28 H 2.370656 -4.992373 1.343649 0
M  V30 29 H 1.082455 -5.104720 2.610545 0
M  V30 30 H 1.096591 -6.311776 1.274439 0
M  V30 31 H 1.730716 -2.881404 1.559126 0
M  V30 32 H 0.076698 -2.856512 2.216396 0
M  V30 33 H 1.291948 -1.416228 -0.092939 0
M  V30 34 H -1.152037 -1.329396 1.703281 0
M  V30 35 H 0.128050 0.386509 2.845010 0
M  V30 36 H 0.985432 -1.172708 2.782438 0
M  V30 37 H 0.222722 2.394588 2.764215 0
M  V30 38 H 1.803396 3.278463 3.120840 0
M  V30 39 H 0.879708 4.758666 1.605446 0
M  V30 40 H 0.166862 3.428441 0.558576 0
M  V30 41 H 2.805166 4.597479 0.431557 0
M  V30 42 H 2.150620 3.243609 -0.548607 0
M  V30 43 H 3.647443 3.058862 2.134565 0
M  V30 44 H 3.734090 2.036851 0.580247 0
M  V30 45 H -0.134821 1.097923 0.137367 0
M  V30 46 H -1.324528 1.030730 1.411907 0
M  V30 47 H -3.545866 0.244110 1.171477 0
M  V30 48 H -5.475322 0.208494 -0.240431 0
M  V30 49 H -5.268494 0.313234 -2.658198 0
M  V30 50 H -2.985475 0.465524 -3.718852 0
M  V30 51 H -1.056716 0.498546 -2.235704 0
M  V30 52 H -0.310334 -1.738738 -1.810615 0
M  V30 53 H -1.315356 -2.884145 -0.756320 0
M  V30 54 H 0.320444 -3.797428 -2.406910 0
M  V30 55 H 1.610650 -3.036566 -1.447542 0
M  V30 END ATOM
M  V30 BEGIN BOND
M  V30 1 1 1 2
M  V30 2 1 2 3
M  V30 3 1 2 4
M  V30 4 1 4 5
M  V30 5 1 5 6
M  V30 6 1 6 7
M  V30 7 1 7 8
M  V30 8 2 8 9
M  V30 9 1 8 10
M  V30 10 1 10 11
M  V30 11 1 11 12
M  V30 12 1 12 13
M  V30 13 1 13 14
M  V30 14 1 6 15
M  V30 15 1 15 16
M  V30 16 2 16 17
M  V30 17 1 17 18
M  V30 18 2 18 19
M  V30 19 1 19 20
M  V30 20 2 20 21
M  V30 21 1 5 22
M  V30 22 1 22 23
M  V30 23 1 23 24
M  V30 24 1 24 2
M  V30 25 1 14 10
M  V30 26 1 21 16
M  V30 27 1 1 25
M  V30 28 1 1 26
M  V30 29 1 1 27
M  V30 30 1 3 28
M  V30 31 1 3 29
M  V30 32 1 3 30
M  V30 33 1 4 31
M  V30 34 1 4 32
M  V30 35 1 5 33
M  V30 36 1 6 34
M  V30 37 1 7 35
M  V30 38 1 7 36
M  V30 39 1 11 37
M  V30 40 1 11 38
M  V30 41 1 12 39
M  V30 42 1 12 40
M  V30 43 1 13 41
M  V30 44 1 13 42
M  V30 45 1 14 43
M  V30 46 1 14 44
M  V30 47 1 15 45
M  V30 48 1 15 46
M  V30 49 1 17 47
M  V30 50 1 18 48
M  V30 51 1 19 49
M  V30 52 1 20 50
M  V30 53 1 21 51
M  V30 54 1 22 52
M  V30 55 1 22 53
M  V30 56 1 23 54
M  V30 57 1 23 55
M  V30 END BOND
M  V30 END CTAB
M  END
>  <Dataset>  (963) 
ChEMBL_Kinases

>  <Ligand_Instance>  (963) 
nan

>  <PDB_ID>  (963) 
nan

>  <Standardized_SMILES>  (963) 
CC1(C)CC(C(CC(=O)N2CCCC2)Cc2ccccc2)CCO1

>  <Name>  (963) 
nan

>  <Pocket>  (963) 
nan

>  <ATP_Site>  (963) 
nan

>  <Peripheral>  (963) 
nan

>  <Num_H_Atoms_ProtBoundConf>  (963) 
nan

>  <Num_Resolved_Atoms>  (963) 
nan

>  <Num_Not_Resolved_Atoms>  (963) 
nan

$$$$
CHEMBL1606472
     RDKit          3D

  0  0  0  0  0  0  0  0  0  0999 V3000
M  V30 BEGIN CTAB
M  V30 COUNTS 61 63 0 0 0
M  V30 BEGIN ATOM
M  V30 1 C 6.377613 0.386767 4.090940 0
M  V30 2 O 5.616105 1.528630 4.016521 0
M  V30 3 C 4.263885 1.285871 3.889435 0
M  V30 4 C 3.849620 0.517317 2.682508 0
M  V30 5 N 2.402001 0.347531 2.691208 0
M  V30 6 C 1.824530 -0.380633 1.586980 0
M  V30 7 O 2.820498 -0.701311 0.852501 0
M  V30 8 C 0.353447 -0.497371 1.685437 0
M  V30 9 C -0.303757 0.835135 1.824915 0
M  V30 10 C 0.139356 2.135927 1.906101 0
M  V30 11 C -0.976714 2.951416 2.028676 0
M  V30 12 C -2.034292 2.057188 2.011454 0
M  V30 13 C -3.429992 2.609837 2.127393 0
M  V30 14 O -1.614458 0.834785 1.892137 0
M  V30 15 N -0.257724 -1.298980 0.672030 0
M  V30 16 C -0.936891 -2.486507 1.137820 0
M  V30 17 O -0.982435 -2.806416 2.370850 0
M  V30 18 C -1.590162 -3.339466 0.141208 0
M  V30 19 S -1.653476 -3.103015 -1.514450 0
M  V30 20 N -2.647353 -4.618231 -1.953950 0
M  V30 21 C -2.757732 -5.078143 -0.576623 0
M  V30 22 C -3.522935 -6.307594 -0.605070 0
M  V30 23 N -4.134820 -7.093270 -1.580798 0
M  V30 24 O -3.828668 -7.006958 0.390727 0
M  V30 25 C -2.263343 -4.508406 0.541633 0
M  V30 26 N -2.439873 -5.057312 1.828465 0
M  V30 27 C -0.216533 -0.966268 -0.718545 0
M  V30 28 C 0.777557 -1.398594 -1.571976 0
M  V30 29 C 0.833964 -1.085347 -2.914601 0
M  V30 30 C -0.161512 -0.288205 -3.456257 0
M  V30 31 C -0.166712 0.092958 -4.900317 0
M  V30 32 C -1.195336 0.181710 -2.647035 0
M  V30 33 C -2.249933 1.031216 -3.241532 0
M  V30 34 C -1.183241 -0.173857 -1.315002 0
M  V30 35 H 6.274291 -0.228592 3.193487 0
M  V30 36 H 7.460069 0.623335 4.204450 0
M  V30 37 H 6.117261 -0.197494 5.021851 0
M  V30 38 H 3.769493 2.301584 3.915603 0
M  V30 39 H 3.939883 0.792815 4.844767 0
M  V30 40 H 4.375486 -0.431319 2.585025 0
M  V30 41 H 4.119168 1.148243 1.788990 0
M  V30 42 H 1.833616 0.754640 3.495857 0
M  V30 43 H 0.147456 -1.013774 2.665203 0
M  V30 44 H 1.176251 2.362236 1.868861 0
M  V30 45 H -0.845623 4.012328 2.106570 0
M  V30 46 H -4.133286 1.794011 2.342574 0
M  V30 47 H -3.652587 3.057263 1.136875 0
M  V30 48 H -3.466405 3.371210 2.938622 0
M  V30 49 H -3.767615 -7.993116 -1.998325 0
M  V30 50 H -5.004168 -7.104817 -2.159408 0
M  V30 51 H -1.761133 -5.804162 2.157361 0
M  V30 52 H -3.232766 -4.711142 2.417322 0
M  V30 53 H 1.574903 -2.024375 -1.195115 0
M  V30 54 H 1.612155 -1.426984 -3.569567 0
M  V30 55 H -0.438135 1.140165 -5.073560 0
M  V30 56 H -0.990291 -0.510117 -5.383617 0
M  V30 57 H 0.753553 -0.238749 -5.388988 0
M  V30 58 H -1.881138 2.036228 -3.552660 0
M  V30 59 H -2.997272 1.237825 -2.423410 0
M  V30 60 H -2.723944 0.576447 -4.123313 0
M  V30 61 H -1.997719 0.215292 -0.752808 0
M  V30 END ATOM
M  V30 BEGIN BOND
M  V30 1 1 1 2
M  V30 2 1 2 3
M  V30 3 1 3 4
M  V30 4 1 4 5
M  V30 5 1 5 6
M  V30 6 2 6 7
M  V30 7 1 6 8
M  V30 8 1 8 9
M  V30 9 2 9 10
M  V30 10 1 10 11
M  V30 11 2 11 12
M  V30 12 1 12 13
M  V30 13 1 12 14
M  V30 14 1 8 15
M  V30 15 1 15 16
M  V30 16 2 16 17
M  V30 17 1 16 18
M  V30 18 1 18 19
M  V30 19 1 19 20
M  V30 20 2 20 21
M  V30 21 1 21 22
M  V30 22 1 22 23
M  V30 23 2 22 24
M  V30 24 1 21 25
M  V30 25 1 25 26
M  V30 26 1 15 27
M  V30 27 2 27 28
M  V30 28 1 28 29
M  V30 29 2 29 30
M  V30 30 1 30 31
M  V30 31 1 30 32
M  V30 32 1 32 33
M  V30 33 2 32 34
M  V30 34 1 14 9
M  V30 35 2 25 18
M  V30 36 1 34 27
M  V30 37 1 1 35
M  V30 38 1 1 36
M  V30 39 1 1 37
M  V30 40 1 3 38
M  V30 41 1 3 39
M  V30 42 1 4 40
M  V30 43 1 4 41
M  V30 44 1 5 42
M  V30 45 1 8 43
M  V30 46 1 10 44
M  V30 47 1 11 45
M  V30 48 1 13 46
M  V30 49 1 13 47
M  V30 50 1 13 48
M  V30 51 1 23 49
M  V30 52 1 23 50
M  V30 53 1 26 51
M  V30 54 1 26 52
M  V30 55 1 28 53
M  V30 56 1 29 54
M  V30 57 1 31 55
M  V30 58 1 31 56
M  V30 59 1 31 57
M  V30 60 1 33 58
M  V30 61 1 33 59
M  V30 62 1 33 60
M  V30 63 1 34 61
M  V30 END BOND
M  V30 END CTAB
M  END
>  <Dataset>  (964) 
ChEMBL_Kinases

>  <Ligand_Instance>  (964) 
nan

>  <PDB_ID>  (964) 
nan

>  <Standardized_SMILES>  (964) 
COCCNC(=O)C(c1ccc(C)o1)N(C(=O)c1snc(C(N)=O)c1N)c1ccc(C)c(C)c1

>  <Name>  (964) 
nan

>  <Pocket>  (964) 
nan

>  <ATP_Site>  (964) 
nan

>  <Peripheral>  (964) 
nan

>  <Num_H_Atoms_ProtBoundConf>  (964) 
nan

>  <Num_Resolved_Atoms>  (964) 
nan

>  <Num_Not_Resolved_Atoms>  (964) 
nan

$$$$
CHEMBL1606445
     RDKit          3D

  0  0  0  0  0  0  0  0  0  0999 V3000
M  V30 BEGIN CTAB
M  V30 COUNTS 40 41 0 0 0
M  V30 BEGIN ATOM
M  V30 1 C -0.542243 1.120227 2.817333 0
M  V30 2 C 0.655918 0.576880 2.563842 0
M  V30 3 C 0.992264 -0.830290 2.768327 0
M  V30 4 N 1.406760 -1.544943 1.581741 0
M  V30 5 C 0.532604 -1.627574 0.464715 0
M  V30 6 N -0.577743 -2.392447 0.602365 0
M  V30 7 C -1.260055 -2.353748 -0.547505 0
M  V30 8 C -0.522200 -1.539935 -1.382933 0
M  V30 9 C -0.951319 -1.287093 -2.649360 0
M  V30 10 O -0.272035 -0.537539 -3.419270 0
M  V30 11 N -2.099113 -1.833820 -3.088105 0
M  V30 12 C -2.553748 -1.561044 -4.438582 0
M  V30 13 C -2.781332 -2.620370 -2.231901 0
M  V30 14 O -3.847544 -3.129083 -2.633184 0
M  V30 15 N -2.411422 -2.907444 -0.971948 0
M  V30 16 C -3.173460 -3.754608 -0.074453 0
M  V30 17 N 0.594420 -1.083736 -0.762859 0
M  V30 18 C 1.621989 -0.244713 -1.288075 0
M  V30 19 C 1.391398 1.193099 -1.141511 0
M  V30 20 C 0.333830 1.733561 -0.584454 0
M  V30 21 C 2.497184 2.036651 -1.700114 0
M  V30 22 H -1.110579 2.034236 2.792748 0
M  V30 23 H -1.560620 0.989714 3.162051 0
M  V30 24 H 1.308709 1.354413 2.189800 0
M  V30 25 H 0.150422 -1.349667 3.274118 0
M  V30 26 H 1.825995 -0.864220 3.522473 0
M  V30 27 H 2.364469 -2.009362 1.541427 0
M  V30 28 H -3.003312 -2.425746 -4.922406 0
M  V30 29 H -3.356927 -0.772828 -4.318733 0
M  V30 30 H -1.754526 -1.062133 -4.997115 0
M  V30 31 H -4.262714 -3.615836 -0.174785 0
M  V30 32 H -2.942673 -4.829352 -0.228877 0
M  V30 33 H -2.831773 -3.528356 0.981339 0
M  V30 34 H 2.561287 -0.471600 -0.706848 0
M  V30 35 H 1.900202 -0.489952 -2.339459 0
M  V30 36 H -0.258435 0.868683 -0.294087 0
M  V30 37 H 0.267273 2.813007 -0.525758 0
M  V30 38 H 2.121609 3.069815 -1.792237 0
M  V30 39 H 2.702432 1.677858 -2.727850 0
M  V30 40 H 3.412943 2.019191 -1.061885 0
M  V30 END ATOM
M  V30 BEGIN BOND
M  V30 1 2 1 2
M  V30 2 1 2 3
M  V30 3 1 3 4
M  V30 4 1 4 5
M  V30 5 2 5 6
M  V30 6 1 6 7
M  V30 7 2 7 8
M  V30 8 1 8 9
M  V30 9 2 9 10
M  V30 10 1 9 11
M  V30 11 1 11 12
M  V30 12 1 11 13
M  V30 13 2 13 14
M  V30 14 1 13 15
M  V30 15 1 15 16
M  V30 16 1 8 17
M  V30 17 1 17 18
M  V30 18 1 18 19
M  V30 19 2 19 20
M  V30 20 1 19 21
M  V30 21 1 17 5
M  V30 22 1 15 7
M  V30 23 1 1 22
M  V30 24 1 1 23
M  V30 25 1 2 24
M  V30 26 1 3 25
M  V30 27 1 3 26
M  V30 28 1 4 27
M  V30 29 1 12 28
M  V30 30 1 12 29
M  V30 31 1 12 30
M  V30 32 1 16 31
M  V30 33 1 16 32
M  V30 34 1 16 33
M  V30 35 1 18 34
M  V30 36 1 18 35
M  V30 37 1 20 36
M  V30 38 1 20 37
M  V30 39 1 21 38
M  V30 40 1 21 39
M  V30 41 1 21 40
M  V30 END BOND
M  V30 END CTAB
M  END
>  <Dataset>  (965) 
ChEMBL_Kinases

>  <Ligand_Instance>  (965) 
nan

>  <PDB_ID>  (965) 
nan

>  <Standardized_SMILES>  (965) 
C=CCNc1nc2c(c(=O)n(C)c(=O)n2C)n1CC(=C)C

>  <Name>  (965) 
nan

>  <Pocket>  (965) 
nan

>  <ATP_Site>  (965) 
nan

>  <Peripheral>  (965) 
nan

>  <Num_H_Atoms_ProtBoundConf>  (965) 
nan

>  <Num_Resolved_Atoms>  (965) 
nan

>  <Num_Not_Resolved_Atoms>  (965) 
nan

$$$$
CHEMBL1609980
     RDKit          3D

  0  0  0  0  0  0  0  0  0  0999 V3000
M  V30 BEGIN CTAB
M  V30 COUNTS 35 37 0 0 0
M  V30 BEGIN ATOM
M  V30 1 N -0.401657 -1.954589 4.088390 0
M  V30 2 C 0.119591 -0.857458 3.346881 0
M  V30 3 N 1.122270 -1.411715 2.716120 0
M  V30 4 C 1.782556 -0.416598 1.894373 0
M  V30 5 C 2.149254 -0.967506 0.588128 0
M  V30 6 C 1.312698 -1.765720 -0.201186 0
M  V30 7 C 1.687708 -2.272139 -1.432432 0
M  V30 8 C 2.946590 -1.990644 -1.931436 0
M  V30 9 Cl 3.292037 -2.692664 -3.497631 0
M  V30 10 C 3.795582 -1.207780 -1.180314 0
M  V30 11 C 3.405224 -0.713908 0.040313 0
M  V30 12 C 0.799691 0.732321 1.834414 0
M  V30 13 C 0.058065 0.788179 0.581416 0
M  V30 14 O 0.989656 0.967345 -0.279926 0
M  V30 15 C -1.345616 0.689886 0.202286 0
M  V30 16 C -2.427293 0.492537 1.031811 0
M  V30 17 C -3.714381 0.412953 0.603342 0
M  V30 18 C -3.953245 0.536973 -0.742251 0
M  V30 19 C -2.908657 0.732534 -1.589345 0
M  V30 20 C -1.606967 0.812025 -1.146627 0
M  V30 21 N 0.002927 0.543415 3.022412 0
M  V30 22 H -0.092204 -2.257912 5.036419 0
M  V30 23 H -1.173365 -2.583461 3.738743 0
M  V30 24 H 2.717163 -0.147490 2.428757 0
M  V30 25 H 0.337711 -1.930717 0.282561 0
M  V30 26 H 0.897541 -2.871994 -1.895368 0
M  V30 27 H 4.770516 -1.020064 -1.622360 0
M  V30 28 H 4.132733 -0.096918 0.585206 0
M  V30 29 H 1.394394 1.674073 2.028916 0
M  V30 30 H -2.200022 0.399153 2.076136 0
M  V30 31 H -4.504147 0.254933 1.336342 0
M  V30 32 H -4.965681 0.479441 -1.125573 0
M  V30 33 H -3.081057 0.834299 -2.672322 0
M  V30 34 H -0.817589 0.970481 -1.883847 0
M  V30 35 H -0.627863 0.967277 3.766943 0
M  V30 END ATOM
M  V30 BEGIN BOND
M  V30 1 1 1 2
M  V30 2 2 2 3
M  V30 3 1 3 4
M  V30 4 1 4 5
M  V30 5 2 5 6
M  V30 6 1 6 7
M  V30 7 2 7 8
M  V30 8 1 8 9
M  V30 9 1 8 10
M  V30 10 2 10 11
M  V30 11 1 4 12
M  V30 12 1 12 13
M  V30 13 2 13 14
M  V30 14 1 13 15
M  V30 15 2 15 16
M  V30 16 1 16 17
M  V30 17 2 17 18
M  V30 18 1 18 19
M  V30 19 2 19 20
M  V30 20 1 12 21
M  V30 21 1 21 2
M  V30 22 1 11 5
M  V30 23 1 20 15
M  V30 24 1 1 22
M  V30 25 1 1 23
M  V30 26 1 4 24
M  V30 27 1 6 25
M  V30 28 1 7 26
M  V30 29 1 10 27
M  V30 30 1 11 28
M  V30 31 1 12 29
M  V30 32 1 16 30
M  V30 33 1 17 31
M  V30 34 1 18 32
M  V30 35 1 19 33
M  V30 36 1 20 34
M  V30 37 1 21 35
M  V30 END BOND
M  V30 END CTAB
M  END
>  <Dataset>  (966) 
ChEMBL_Kinases

>  <Ligand_Instance>  (966) 
nan

>  <PDB_ID>  (966) 
nan

>  <Standardized_SMILES>  (966) 
NC1=NC(c2ccc(Cl)cc2)C(C(=O)c2ccccc2)N1

>  <Name>  (966) 
nan

>  <Pocket>  (966) 
nan

>  <ATP_Site>  (966) 
nan

>  <Peripheral>  (966) 
nan

>  <Num_H_Atoms_ProtBoundConf>  (966) 
nan

>  <Num_Resolved_Atoms>  (966) 
nan

>  <Num_Not_Resolved_Atoms>  (966) 
nan

$$$$
CHEMBL1605399
     RDKit          3D

  0  0  0  0  0  0  0  0  0  0999 V3000
M  V30 BEGIN CTAB
M  V30 COUNTS 31 32 0 0 0
M  V30 BEGIN ATOM
M  V30 1 C -0.471606 -1.403843 3.734355 0
M  V30 2 N -0.234509 -2.551626 2.880907 0
M  V30 3 C -0.602678 -3.946252 3.111492 0
M  V30 4 C 0.445085 -2.181943 1.670144 0
M  V30 5 C 1.483254 -2.996657 1.304520 0
M  V30 6 C 2.196976 -2.713520 0.131190 0
M  V30 7 N 1.856700 -1.638801 -0.632037 0
M  V30 8 C 0.835801 -0.849286 -0.260428 0
M  V30 9 C 0.186954 0.363655 -0.802171 0
M  V30 10 C -0.860589 -0.029503 -1.639887 0
M  V30 11 C -1.632871 0.968940 -2.251469 0
M  V30 12 C -1.361457 2.322436 -2.026507 0
M  V30 13 C -0.318283 2.635602 -1.193269 0
M  V30 14 C 0.459580 1.700363 -0.578617 0
M  V30 15 C 1.613236 1.889267 0.331770 0
M  V30 16 F 2.716147 1.297856 -0.275725 0
M  V30 17 F 1.872672 3.193231 0.619098 0
M  V30 18 F 1.400387 1.244916 1.552893 0
M  V30 19 N 0.169403 -1.153088 0.877533 0
M  V30 20 H -1.171400 -0.726355 3.211616 0
M  V30 21 H 0.466660 -0.799721 3.860109 0
M  V30 22 H -0.905617 -1.669715 4.719245 0
M  V30 23 H -1.168412 -4.229997 2.175366 0
M  V30 24 H 0.281761 -4.594567 3.264086 0
M  V30 25 H -1.354614 -4.053351 3.925850 0
M  V30 26 H 1.865323 -3.880703 1.806618 0
M  V30 27 H 3.037181 -3.229172 -0.313250 0
M  V30 28 H -1.194860 -1.004758 -1.911151 0
M  V30 29 H -2.478652 0.754791 -2.926198 0
M  V30 30 H -1.945270 3.087817 -2.489842 0
M  V30 31 H -0.031665 3.669669 -0.960777 0
M  V30 END ATOM
M  V30 BEGIN BOND
M  V30 1 1 1 2
M  V30 2 1 2 3
M  V30 3 1 2 4
M  V30 4 2 4 5
M  V30 5 1 5 6
M  V30 6 2 6 7
M  V30 7 1 7 8
M  V30 8 1 8 9
M  V30 9 2 9 10
M  V30 10 1 10 11
M  V30 11 2 11 12
M  V30 12 1 12 13
M  V30 13 2 13 14
M  V30 14 1 14 15
M  V30 15 1 15 16
M  V30 16 1 15 17
M  V30 17 1 15 18
M  V30 18 2 8 19
M  V30 19 1 19 4
M  V30 20 1 14 9
M  V30 21 1 1 20
M  V30 22 1 1 21
M  V30 23 1 1 22
M  V30 24 1 3 23
M  V30 25 1 3 24
M  V30 26 1 3 25
M  V30 27 1 5 26
M  V30 28 1 6 27
M  V30 29 1 10 28
M  V30 30 1 11 29
M  V30 31 1 12 30
M  V30 32 1 13 31
M  V30 END BOND
M  V30 END CTAB
M  END
>  <Dataset>  (967) 
ChEMBL_Kinases

>  <Ligand_Instance>  (967) 
nan

>  <PDB_ID>  (967) 
nan

>  <Standardized_SMILES>  (967) 
CN(C)c1ccnc(-c2ccccc2C(F)(F)F)n1

>  <Name>  (967) 
nan

>  <Pocket>  (967) 
nan

>  <ATP_Site>  (967) 
nan

>  <Peripheral>  (967) 
nan

>  <Num_H_Atoms_ProtBoundConf>  (967) 
nan

>  <Num_Resolved_Atoms>  (967) 
nan

>  <Num_Not_Resolved_Atoms>  (967) 
nan

$$$$
CHEMBL1605483
     RDKit          3D

  0  0  0  0  0  0  0  0  0  0999 V3000
M  V30 BEGIN CTAB
M  V30 COUNTS 49 51 0 0 0
M  V30 BEGIN ATOM
M  V30 1 C -1.540353 -7.226299 -0.921189 0
M  V30 2 O -2.297700 -6.057393 -1.023797 0
M  V30 3 C -1.806559 -4.773699 -1.079595 0
M  V30 4 C -0.437354 -4.565128 -1.032818 0
M  V30 5 C 0.101972 -3.297092 -1.085525 0
M  V30 6 N 1.408406 -2.978414 -1.045970 0
M  V30 7 C 1.822492 -1.694313 -1.102785 0
M  V30 8 O 3.091403 -1.589691 -1.052123 0
M  V30 9 N 0.977857 -0.633965 -1.202519 0
M  V30 10 C 1.661366 0.612668 -1.259683 0
M  V30 11 C 2.016534 1.251798 0.033468 0
M  V30 12 C 0.866611 1.552253 0.878817 0
M  V30 13 O -0.365219 1.566163 1.153014 0
M  V30 14 N 1.375739 2.188847 2.081272 0
M  V30 15 C 0.668820 2.686236 3.243434 0
M  V30 16 C 0.898275 4.183377 3.354241 0
M  V30 17 C 1.999745 4.365691 4.346299 0
M  V30 18 C 2.128200 3.071288 5.107033 0
M  V30 19 C 1.149859 2.092712 4.536927 0
M  V30 20 C -0.326810 -0.940430 -1.243668 0
M  V30 21 O -1.094106 0.028349 -1.338068 0
M  V30 22 C -0.777910 -2.239430 -1.187237 0
M  V30 23 C -2.128203 -2.466179 -1.232247 0
M  V30 24 C -2.693917 -3.719786 -1.181360 0
M  V30 25 O -4.041775 -4.005811 -1.222381 0
M  V30 26 C -5.092765 -3.099504 -1.324928 0
M  V30 27 H -0.988121 -7.440122 -1.878625 0
M  V30 28 H -2.246146 -8.059932 -0.722813 0
M  V30 29 H -0.816225 -7.196994 -0.082726 0
M  V30 30 H 0.290979 -5.386509 -0.951696 0
M  V30 31 H 2.057685 -3.791569 -0.969599 0
M  V30 32 H 0.992230 1.349852 -1.798947 0
M  V30 33 H 2.561815 0.538754 -1.913791 0
M  V30 34 H 2.520945 2.222212 -0.215932 0
M  V30 35 H 2.753139 0.632990 0.620461 0
M  V30 36 H 2.382596 2.422924 2.362054 0
M  V30 37 H -0.418787 2.486547 3.127164 0
M  V30 38 H -0.023139 4.667799 3.762158 0
M  V30 39 H 1.109481 4.602320 2.361305 0
M  V30 40 H 2.959485 4.659746 3.841464 0
M  V30 41 H 1.806389 5.174137 5.077560 0
M  V30 42 H 3.150076 2.683112 4.926437 0
M  V30 43 H 1.970855 3.207846 6.198307 0
M  V30 44 H 1.651016 1.105313 4.319209 0
M  V30 45 H 0.322724 1.874809 5.253052 0
M  V30 46 H -2.784356 -1.623874 -1.311556 0
M  V30 47 H -5.819708 -3.318961 -0.514817 0
M  V30 48 H -4.751600 -2.064054 -1.157634 0
M  V30 49 H -5.653039 -3.166045 -2.284050 0
M  V30 END ATOM
M  V30 BEGIN BOND
M  V30 1 1 1 2
M  V30 2 1 2 3
M  V30 3 2 3 4
M  V30 4 1 4 5
M  V30 5 1 5 6
M  V30 6 1 6 7
M  V30 7 2 7 8
M  V30 8 1 7 9
M  V30 9 1 9 10
M  V30 10 1 10 11
M  V30 11 1 11 12
M  V30 12 2 12 13
M  V30 13 1 12 14
M  V30 14 1 14 15
M  V30 15 1 15 16
M  V30 16 1 16 17
M  V30 17 1 17 18
M  V30 18 1 18 19
M  V30 19 1 9 20
M  V30 20 2 20 21
M  V30 21 1 20 22
M  V30 22 1 22 23
M  V30 23 2 23 24
M  V30 24 1 24 25
M  V30 25 1 25 26
M  V30 26 1 24 3
M  V30 27 2 22 5
M  V30 28 1 19 15
M  V30 29 1 1 27
M  V30 30 1 1 28
M  V30 31 1 1 29
M  V30 32 1 4 30
M  V30 33 1 6 31
M  V30 34 1 10 32
M  V30 35 1 10 33
M  V30 36 1 11 34
M  V30 37 1 11 35
M  V30 38 1 14 36
M  V30 39 1 15 37
M  V30 40 1 16 38
M  V30 41 1 16 39
M  V30 42 1 17 40
M  V30 43 1 17 41
M  V30 44 1 18 42
M  V30 45 1 18 43
M  V30 46 1 19 44
M  V30 47 1 19 45
M  V30 48 1 23 46
M  V30 49 1 26 47
M  V30 50 1 26 48
M  V30 51 1 26 49
M  V30 END BOND
M  V30 END CTAB
M  END
>  <Dataset>  (968) 
ChEMBL_Kinases

>  <Ligand_Instance>  (968) 
nan

>  <PDB_ID>  (968) 
nan

>  <Standardized_SMILES>  (968) 
COc1cc2[nH]c(=O)n(CCC(=O)NC3CCCC3)c(=O)c2cc1OC

>  <Name>  (968) 
nan

>  <Pocket>  (968) 
nan

>  <ATP_Site>  (968) 
nan

>  <Peripheral>  (968) 
nan

>  <Num_H_Atoms_ProtBoundConf>  (968) 
nan

>  <Num_Resolved_Atoms>  (968) 
nan

>  <Num_Not_Resolved_Atoms>  (968) 
nan

$$$$
CHEMBL1605497
     RDKit          3D

  0  0  0  0  0  0  0  0  0  0999 V3000
M  V30 BEGIN CTAB
M  V30 COUNTS 42 45 0 0 0
M  V30 BEGIN ATOM
M  V30 1 C -0.054797 -1.520612 3.591282 0
M  V30 2 N 0.309760 -1.419770 2.196584 0
M  V30 3 C 0.825542 -2.588966 1.596138 0
M  V30 4 O 0.844800 -3.466644 2.525131 0
M  V30 5 C 1.330389 -3.204907 0.396309 0
M  V30 6 C 0.290112 -3.997864 -0.116388 0
M  V30 7 C 0.422505 -4.750397 -1.295142 0
M  V30 8 C 1.665011 -4.640100 -1.902801 0
M  V30 9 N 2.683416 -3.873232 -1.412270 0
M  V30 10 C 2.530066 -3.163699 -0.283263 0
M  V30 11 C 0.169708 -0.184394 1.446213 0
M  V30 12 C -0.520557 0.869056 2.283081 0
M  V30 13 C -0.565714 2.185700 1.544996 0
M  V30 14 C -1.305907 2.022346 0.255262 0
M  V30 15 C -0.594070 0.962073 -0.559360 0
M  V30 16 C 0.808285 1.469258 -0.830931 0
M  V30 17 C 1.554553 1.605505 0.500515 0
M  V30 18 C 0.865409 2.628919 1.366871 0
M  V30 19 C 1.581330 0.234478 1.089103 0
M  V30 20 C -0.619060 -0.352574 0.177247 0
M  V30 21 H 0.602841 -0.840091 4.208397 0
M  V30 22 H -1.122386 -1.248513 3.742945 0
M  V30 23 H 0.091656 -2.521060 4.003905 0
M  V30 24 H -0.721780 -4.162486 0.274088 0
M  V30 25 H -0.309286 -5.378338 -1.754873 0
M  V30 26 H 1.929060 -5.151757 -2.810321 0
M  V30 27 H 3.208870 -2.515437 0.240587 0
M  V30 28 H -0.108090 0.979225 3.303066 0
M  V30 29 H -1.567488 0.526074 2.396253 0
M  V30 30 H -1.140070 2.908581 2.174588 0
M  V30 31 H -1.218461 2.966994 -0.308683 0
M  V30 32 H -2.349850 1.738745 0.477929 0
M  V30 33 H -1.046530 0.799396 -1.563487 0
M  V30 34 H 0.718899 2.455789 -1.310145 0
M  V30 35 H 1.381209 0.720660 -1.419974 0
M  V30 36 H 2.593726 1.932744 0.304129 0
M  V30 37 H 1.330959 2.593254 2.376580 0
M  V30 38 H 0.969386 3.621218 0.941020 0
M  V30 39 H 1.921650 -0.446735 0.281026 0
M  V30 40 H 2.299073 0.123575 1.926718 0
M  V30 41 H -1.662506 -0.568896 0.433440 0
M  V30 42 H -0.156770 -1.139666 -0.454054 0
M  V30 END ATOM
M  V30 BEGIN BOND
M  V30 1 1 1 2
M  V30 2 1 2 3
M  V30 3 2 3 4
M  V30 4 1 3 5
M  V30 5 2 5 6
M  V30 6 1 6 7
M  V30 7 2 7 8
M  V30 8 1 8 9
M  V30 9 2 9 10
M  V30 10 1 2 11
M  V30 11 1 11 12
M  V30 12 1 12 13
M  V30 13 1 13 14
M  V30 14 1 14 15
M  V30 15 1 15 16
M  V30 16 1 16 17
M  V30 17 1 17 18
M  V30 18 1 17 19
M  V30 19 1 15 20
M  V30 20 1 10 5
M  V30 21 1 19 11
M  V30 22 1 20 11
M  V30 23 1 18 13
M  V30 24 1 1 21
M  V30 25 1 1 22
M  V30 26 1 1 23
M  V30 27 1 6 24
M  V30 28 1 7 25
M  V30 29 1 8 26
M  V30 30 1 10 27
M  V30 31 1 12 28
M  V30 32 1 12 29
M  V30 33 1 13 30
M  V30 34 1 14 31
M  V30 35 1 14 32
M  V30 36 1 15 33
M  V30 37 1 16 34
M  V30 38 1 16 35
M  V30 39 1 17 36
M  V30 40 1 18 37
M  V30 41 1 18 38
M  V30 42 1 19 39
M  V30 43 1 19 40
M  V30 44 1 20 41
M  V30 45 1 20 42
M  V30 END BOND
M  V30 END CTAB
M  END
>  <Dataset>  (969) 
ChEMBL_Kinases

>  <Ligand_Instance>  (969) 
nan

>  <PDB_ID>  (969) 
nan

>  <Standardized_SMILES>  (969) 
CN(C(=O)c1cccnc1)C12CC3CC(CC(C3)C1)C2

>  <Name>  (969) 
nan

>  <Pocket>  (969) 
nan

>  <ATP_Site>  (969) 
nan

>  <Peripheral>  (969) 
nan

>  <Num_H_Atoms_ProtBoundConf>  (969) 
nan

>  <Num_Resolved_Atoms>  (969) 
nan

>  <Num_Not_Resolved_Atoms>  (969) 
nan

$$$$
CHEMBL1605507
     RDKit          3D

  0  0  0  0  0  0  0  0  0  0999 V3000
M  V30 BEGIN CTAB
M  V30 COUNTS 38 40 0 0 0
M  V30 BEGIN ATOM
M  V30 1 C -1.522908 -4.762932 3.510185 0
M  V30 2 C -0.456701 -5.353487 2.621017 0
M  V30 3 C 0.672265 -4.321765 2.525007 0
M  V30 4 C 0.075239 -3.095493 1.938038 0
M  V30 5 C 0.832233 -1.945791 1.672363 0
M  V30 6 C 0.214607 -0.826344 1.098144 0
M  V30 7 N 1.035672 0.335986 0.862986 0
M  V30 8 C 1.053999 1.174168 -0.282305 0
M  V30 9 C 0.546386 0.714992 -1.499284 0
M  V30 10 C 0.601844 1.604107 -2.577329 0
M  V30 11 C 1.138481 2.881890 -2.435609 0
M  V30 12 C 1.638128 3.301752 -1.192433 0
M  V30 13 O 2.107824 4.589567 -1.308409 0
M  V30 14 C 2.669999 5.279542 -0.221626 0
M  V30 15 C 1.573536 2.410977 -0.145839 0
M  V30 16 N -1.111344 -0.810949 0.784622 0
M  V30 17 N -1.904359 0.107563 0.254715 0
M  V30 18 C -3.136927 -0.435295 0.182250 0
M  V30 19 N -3.091388 -1.667073 0.662135 0
M  V30 20 C -1.841981 -1.951745 1.054659 0
M  V30 21 N -1.182050 -2.939801 1.585793 0
M  V30 22 H -1.254439 -3.729381 3.867163 0
M  V30 23 H -2.490685 -4.600295 2.956978 0
M  V30 24 H -1.722627 -5.367530 4.394801 0
M  V30 25 H -0.097188 -6.337451 2.916468 0
M  V30 26 H -0.884007 -5.391924 1.572075 0
M  V30 27 H 1.502509 -4.714893 1.902375 0
M  V30 28 H 1.036727 -4.160169 3.553798 0
M  V30 29 H 1.893766 -1.930532 1.912752 0
M  V30 30 H 1.675442 0.534001 1.678692 0
M  V30 31 H 0.127100 -0.280068 -1.620685 0
M  V30 32 H 0.200518 1.230967 -3.526360 0
M  V30 33 H 1.103927 3.446012 -3.377478 0
M  V30 34 H 2.352791 4.779280 0.713710 0
M  V30 35 H 3.776883 5.169379 -0.282815 0
M  V30 36 H 2.373042 6.357010 -0.221652 0
M  V30 37 H 1.975073 2.814309 0.759389 0
M  V30 38 H -4.006665 0.070282 -0.206111 0
M  V30 END ATOM
M  V30 BEGIN BOND
M  V30 1 1 1 2
M  V30 2 1 2 3
M  V30 3 1 3 4
M  V30 4 1 4 5
M  V30 5 2 5 6
M  V30 6 1 6 7
M  V30 7 1 7 8
M  V30 8 2 8 9
M  V30 9 1 9 10
M  V30 10 2 10 11
M  V30 11 1 11 12
M  V30 12 1 12 13
M  V30 13 1 13 14
M  V30 14 2 12 15
M  V30 15 1 6 16
M  V30 16 1 16 17
M  V30 17 2 17 18
M  V30 18 1 18 19
M  V30 19 2 19 20
M  V30 20 1 20 21
M  V30 21 2 21 4
M  V30 22 1 15 8
M  V30 23 1 20 16
M  V30 24 1 1 22
M  V30 25 1 1 23
M  V30 26 1 1 24
M  V30 27 1 2 25
M  V30 28 1 2 26
M  V30 29 1 3 27
M  V30 30 1 3 28
M  V30 31 1 5 29
M  V30 32 1 7 30
M  V30 33 1 9 31
M  V30 34 1 10 32
M  V30 35 1 11 33
M  V30 36 1 14 34
M  V30 37 1 14 35
M  V30 38 1 14 36
M  V30 39 1 15 37
M  V30 40 1 18 38
M  V30 END BOND
M  V30 END CTAB
M  END
>  <Dataset>  (970) 
ChEMBL_Kinases

>  <Ligand_Instance>  (970) 
nan

>  <PDB_ID>  (970) 
nan

>  <Standardized_SMILES>  (970) 
CCCc1cc(Nc2cccc(OC)c2)n2ncnc2n1

>  <Name>  (970) 
nan

>  <Pocket>  (970) 
nan

>  <ATP_Site>  (970) 
nan

>  <Peripheral>  (970) 
nan

>  <Num_H_Atoms_ProtBoundConf>  (970) 
nan

>  <Num_Resolved_Atoms>  (970) 
nan

>  <Num_Not_Resolved_Atoms>  (970) 
nan

$$$$
CHEMBL1605749
     RDKit          3D

  0  0  0  0  0  0  0  0  0  0999 V3000
M  V30 BEGIN CTAB
M  V30 COUNTS 33 34 0 0 0
M  V30 BEGIN ATOM
M  V30 1 C -1.319480 -2.904364 3.545197 0
M  V30 2 O -0.534434 -3.612774 2.623377 0
M  V30 3 C -0.981241 -4.771704 2.010944 0
M  V30 4 O -2.051114 -4.664657 2.642423 0
M  V30 5 C -0.026679 -5.398858 1.060781 0
M  V30 6 S -0.239838 -4.736011 -0.613443 0
M  V30 7 C 0.222905 -3.013469 -0.610990 0
M  V30 8 C 1.494279 -2.543486 -0.860095 0
M  V30 9 C 1.883278 -1.224447 -0.865535 0
M  V30 10 C 0.927053 -0.238435 -0.597490 0
M  V30 11 C 1.206073 1.085810 -0.578317 0
M  V30 12 N 2.451357 1.766871 -0.809183 0
M  V30 13 C 0.116988 1.912324 -0.290606 0
M  V30 14 C 0.032895 3.402622 -0.181630 0
M  V30 15 O 1.055967 4.067381 -0.364743 0
M  V30 16 O -1.184986 3.935582 0.116739 0
M  V30 17 C -1.458117 5.305099 0.260175 0
M  V30 18 S -1.203340 0.798189 -0.069785 0
M  V30 19 C -0.313836 -0.667871 -0.352628 0
M  V30 20 C -0.687312 -2.010386 -0.351989 0
M  V30 21 H -0.718246 -2.044365 3.921289 0
M  V30 22 H -1.626412 -3.526622 4.418718 0
M  V30 23 H -2.233006 -2.476295 3.046109 0
M  V30 24 H -0.149441 -6.507060 1.077132 0
M  V30 25 H 1.018530 -5.209936 1.367727 0
M  V30 26 H 2.246336 -3.323696 -1.070918 0
M  V30 27 H 2.938458 -1.033918 -1.084755 0
M  V30 28 H 2.619019 1.684912 -1.841750 0
M  V30 29 H 2.877994 2.162755 0.048565 0
M  V30 30 H -0.593106 5.884283 0.642773 0
M  V30 31 H -2.297019 5.370055 1.011540 0
M  V30 32 H -1.813572 5.791641 -0.673402 0
M  V30 33 H -1.718973 -2.241241 -0.141123 0
M  V30 END ATOM
M  V30 BEGIN BOND
M  V30 1 1 1 2
M  V30 2 1 2 3
M  V30 3 2 3 4
M  V30 4 1 3 5
M  V30 5 1 5 6
M  V30 6 1 6 7
M  V30 7 2 7 8
M  V30 8 1 8 9
M  V30 9 2 9 10
M  V30 10 1 10 11
M  V30 11 1 11 12
M  V30 12 2 11 13
M  V30 13 1 13 14
M  V30 14 2 14 15
M  V30 15 1 14 16
M  V30 16 1 16 17
M  V30 17 1 13 18
M  V30 18 1 18 19
M  V30 19 2 19 20
M  V30 20 1 20 7
M  V30 21 1 19 10
M  V30 22 1 1 21
M  V30 23 1 1 22
M  V30 24 1 1 23
M  V30 25 1 5 24
M  V30 26 1 5 25
M  V30 27 1 8 26
M  V30 28 1 9 27
M  V30 29 1 12 28
M  V30 30 1 12 29
M  V30 31 1 17 30
M  V30 32 1 17 31
M  V30 33 1 17 32
M  V30 34 1 20 33
M  V30 END BOND
M  V30 END CTAB
M  END
>  <Dataset>  (971) 
ChEMBL_Kinases

>  <Ligand_Instance>  (971) 
nan

>  <PDB_ID>  (971) 
nan

>  <Standardized_SMILES>  (971) 
COC(=O)CSc1ccc2c(N)c(C(=O)OC)sc2c1

>  <Name>  (971) 
nan

>  <Pocket>  (971) 
nan

>  <ATP_Site>  (971) 
nan

>  <Peripheral>  (971) 
nan

>  <Num_H_Atoms_ProtBoundConf>  (971) 
nan

>  <Num_Resolved_Atoms>  (971) 
nan

>  <Num_Not_Resolved_Atoms>  (971) 
nan

$$$$
CHEMBL1605823
     RDKit          3D

  0  0  0  0  0  0  0  0  0  0999 V3000
M  V30 BEGIN CTAB
M  V30 COUNTS 56 60 0 0 0
M  V30 BEGIN ATOM
M  V30 1 O 1.557628 -1.511204 0.348037 0
M  V30 2 C 1.173240 -0.483382 1.007761 0
M  V30 3 N 2.274046 0.055205 1.710739 0
M  V30 4 C 3.610046 -0.484814 1.675192 0
M  V30 5 C 4.637957 0.573682 1.742461 0
M  V30 6 C 5.195347 0.548003 3.161879 0
M  V30 7 C 4.911697 -0.842657 3.710465 0
M  V30 8 C 3.853431 -1.436747 2.834299 0
M  V30 9 C -0.165698 0.136250 1.109129 0
M  V30 10 C -0.271449 1.480344 0.504191 0
M  V30 11 C -0.752040 2.073171 -0.572761 0
M  V30 12 C -0.641415 3.399992 -0.839765 0
M  V30 13 C 0.035996 4.147334 0.118320 0
M  V30 14 S 0.478343 2.924893 1.350828 0
M  V30 15 N -1.273371 -0.735022 0.869106 0
M  V30 16 C -1.941768 -0.759214 2.150483 0
M  V30 17 O -1.642623 -0.244362 3.257597 0
M  V30 18 C -3.204934 -1.397661 2.586510 0
M  V30 19 C -4.351520 -0.667958 2.192725 0
M  V30 20 C -5.488239 -1.356501 2.653006 0
M  V30 21 C -4.955749 -2.444762 3.290370 0
M  V30 22 O -3.645552 -2.443548 3.236312 0
M  V30 23 C -1.632040 -1.431339 -0.282543 0
M  V30 24 C -2.667359 -2.333149 -0.318690 0
M  V30 25 C -3.057435 -3.039306 -1.440132 0
M  V30 26 C -2.378682 -2.848568 -2.620089 0
M  V30 27 C -1.323978 -1.937015 -2.595744 0
M  V30 28 C -0.976068 -1.259922 -1.462007 0
M  V30 29 O -0.655140 -1.762327 -3.785498 0
M  V30 30 C -0.727981 -2.675426 -4.861727 0
M  V30 31 C -2.051307 -3.346856 -5.025981 0
M  V30 32 O -2.716872 -3.520038 -3.780552 0
M  V30 33 H 2.212785 0.909390 2.338515 0
M  V30 34 H 3.724833 -1.096285 0.759821 0
M  V30 35 H 4.273979 1.610634 1.525228 0
M  V30 36 H 5.510058 0.420383 1.036954 0
M  V30 37 H 6.274982 0.756070 3.153566 0
M  V30 38 H 4.722803 1.324648 3.803232 0
M  V30 39 H 5.855490 -1.421970 3.710503 0
M  V30 40 H 4.624436 -0.720271 4.775691 0
M  V30 41 H 4.274896 -2.411792 2.463700 0
M  V30 42 H 2.923623 -1.742946 3.356303 0
M  V30 43 H -0.231236 0.385798 2.234362 0
M  V30 44 H -1.285134 1.500512 -1.311592 0
M  V30 45 H -0.997025 3.968680 -1.684487 0
M  V30 46 H 0.279989 5.198135 0.178365 0
M  V30 47 H -4.526435 0.253987 1.644359 0
M  V30 48 H -6.554457 -1.212806 2.605528 0
M  V30 49 H -5.313980 -3.311016 3.829060 0
M  V30 50 H -3.281499 -2.609076 0.519555 0
M  V30 51 H -3.871502 -3.748608 -1.470724 0
M  V30 52 H -0.145263 -0.583903 -1.565848 0
M  V30 53 H -0.498600 -2.057671 -5.776789 0
M  V30 54 H 0.070845 -3.452089 -4.772323 0
M  V30 55 H -2.750261 -2.767422 -5.695717 0
M  V30 56 H -1.876335 -4.375341 -5.458338 0
M  V30 END ATOM
M  V30 BEGIN BOND
M  V30 1 2 1 2
M  V30 2 1 2 3
M  V30 3 1 3 4
M  V30 4 1 4 5
M  V30 5 1 5 6
M  V30 6 1 6 7
M  V30 7 1 7 8
M  V30 8 1 2 9
M  V30 9 1 9 10
M  V30 10 2 10 11
M  V30 11 1 11 12
M  V30 12 2 12 13
M  V30 13 1 13 14
M  V30 14 1 9 15
M  V30 15 1 15 16
M  V30 16 2 16 17
M  V30 17 1 16 18
M  V30 18 2 18 19
M  V30 19 1 19 20
M  V30 20 2 20 21
M  V30 21 1 21 22
M  V30 22 1 15 23
M  V30 23 2 23 24
M  V30 24 1 24 25
M  V30 25 2 25 26
M  V30 26 1 26 27
M  V30 27 2 27 28
M  V30 28 1 27 29
M  V30 29 1 29 30
M  V30 30 1 30 31
M  V30 31 1 31 32
M  V30 32 1 8 4
M  V30 33 1 14 10
M  V30 34 1 22 18
M  V30 35 1 28 23
M  V30 36 1 32 26
M  V30 37 1 3 33
M  V30 38 1 4 34
M  V30 39 1 5 35
M  V30 40 1 5 36
M  V30 41 1 6 37
M  V30 42 1 6 38
M  V30 43 1 7 39
M  V30 44 1 7 40
M  V30 45 1 8 41
M  V30 46 1 8 42
M  V30 47 1 9 43
M  V30 48 1 11 44
M  V30 49 1 12 45
M  V30 50 1 13 46
M  V30 51 1 19 47
M  V30 52 1 20 48
M  V30 53 1 21 49
M  V30 54 1 24 50
M  V30 55 1 25 51
M  V30 56 1 28 52
M  V30 57 1 30 53
M  V30 58 1 30 54
M  V30 59 1 31 55
M  V30 60 1 31 56
M  V30 END BOND
M  V30 END CTAB
M  END
>  <Dataset>  (972) 
ChEMBL_Kinases

>  <Ligand_Instance>  (972) 
nan

>  <PDB_ID>  (972) 
nan

>  <Standardized_SMILES>  (972) 
O=C(NC1CCCC1)C(c1cccs1)N(C(=O)c1ccco1)c1ccc2c(c1)OCCO2

>  <Name>  (972) 
nan

>  <Pocket>  (972) 
nan

>  <ATP_Site>  (972) 
nan

>  <Peripheral>  (972) 
nan

>  <Num_H_Atoms_ProtBoundConf>  (972) 
nan

>  <Num_Resolved_Atoms>  (972) 
nan

>  <Num_Not_Resolved_Atoms>  (972) 
nan

$$$$
CHEMBL160585
     RDKit          3D

  0  0  0  0  0  0  0  0  0  0999 V3000
M  V30 BEGIN CTAB
M  V30 COUNTS 40 43 0 0 0
M  V30 BEGIN ATOM
M  V30 1 C -1.209121 -4.642924 1.478872 0
M  V30 2 O -0.792155 -3.493869 0.784426 0
M  V30 3 C 0.413790 -2.922294 1.036784 0
M  V30 4 C 1.424395 -3.255872 1.911260 0
M  V30 5 C 2.593959 -2.545799 2.031336 0
M  V30 6 C 2.801402 -1.429941 1.247779 0
M  V30 7 C 1.812613 -1.045244 0.344623 0
M  V30 8 C 0.644674 -1.784686 0.247792 0
M  V30 9 C -0.249926 -1.228042 -0.775957 0
M  V30 10 C -0.635003 0.029488 -1.032799 0
M  V30 11 N -0.270307 1.213428 -0.356531 0
M  V30 12 C -0.041744 2.569781 -0.858832 0
M  V30 13 C 1.164322 2.969713 -0.034840 0
M  V30 14 C 0.835447 2.414989 1.325652 0
M  V30 15 C 1.187058 2.718561 2.624948 0
M  V30 16 C 0.675740 1.971240 3.662982 0
M  V30 17 C -0.181342 0.927602 3.410942 0
M  V30 18 C -0.559584 0.591493 2.110967 0
M  V30 19 C -0.034418 1.356488 1.061037 0
M  V30 20 C -1.529219 -0.015081 -2.182865 0
M  V30 21 O -2.108537 0.963238 -2.741575 0
M  V30 22 N -1.691729 -1.373455 -2.643940 0
M  V30 23 C -0.867825 -2.119030 -1.730774 0
M  V30 24 O -0.796982 -3.374223 -1.874025 0
M  V30 25 H -0.683627 -4.734366 2.447802 0
M  V30 26 H -2.311067 -4.564002 1.732537 0
M  V30 27 H -1.038658 -5.572813 0.869434 0
M  V30 28 H 1.229447 -4.120001 2.495371 0
M  V30 29 H 3.321068 -2.894135 2.744828 0
M  V30 30 H 3.730532 -0.930137 1.394445 0
M  V30 31 H 2.055702 -0.172835 -0.221353 0
M  V30 32 H -0.907876 3.157303 -0.465200 0
M  V30 33 H 0.091441 2.631569 -1.934041 0
M  V30 34 H 1.234049 4.056973 -0.040095 0
M  V30 35 H 2.103271 2.519999 -0.425742 0
M  V30 36 H 1.876095 3.573616 2.679384 0
M  V30 37 H 1.002024 2.277581 4.647875 0
M  V30 38 H -0.566717 0.359791 4.230381 0
M  V30 39 H -1.241309 -0.242531 1.951220 0
M  V30 40 H -2.276402 -1.690021 -3.448281 0
M  V30 END ATOM
M  V30 BEGIN BOND
M  V30 1 1 1 2
M  V30 2 1 2 3
M  V30 3 2 3 4
M  V30 4 1 4 5
M  V30 5 2 5 6
M  V30 6 1 6 7
M  V30 7 2 7 8
M  V30 8 1 8 9
M  V30 9 2 9 10
M  V30 10 1 10 11
M  V30 11 1 11 12
M  V30 12 1 12 13
M  V30 13 1 13 14
M  V30 14 2 14 15
M  V30 15 1 15 16
M  V30 16 2 16 17
M  V30 17 1 17 18
M  V30 18 2 18 19
M  V30 19 1 10 20
M  V30 20 2 20 21
M  V30 21 1 20 22
M  V30 22 1 22 23
M  V30 23 2 23 24
M  V30 24 1 8 3
M  V30 25 1 23 9
M  V30 26 1 19 11
M  V30 27 1 19 14
M  V30 28 1 1 25
M  V30 29 1 1 26
M  V30 30 1 1 27
M  V30 31 1 4 28
M  V30 32 1 5 29
M  V30 33 1 6 30
M  V30 34 1 7 31
M  V30 35 1 12 32
M  V30 36 1 12 33
M  V30 37 1 13 34
M  V30 38 1 13 35
M  V30 39 1 15 36
M  V30 40 1 16 37
M  V30 41 1 17 38
M  V30 42 1 18 39
M  V30 43 1 22 40
M  V30 END BOND
M  V30 END CTAB
M  END
>  <Dataset>  (973) 
ChEMBL_Kinases

>  <Ligand_Instance>  (973) 
nan

>  <PDB_ID>  (973) 
nan

>  <Standardized_SMILES>  (973) 
COc1ccccc1C1=C(N2CCc3ccccc32)C(=O)NC1=O

>  <Name>  (973) 
nan

>  <Pocket>  (973) 
nan

>  <ATP_Site>  (973) 
nan

>  <Peripheral>  (973) 
nan

>  <Num_H_Atoms_ProtBoundConf>  (973) 
nan

>  <Num_Resolved_Atoms>  (973) 
nan

>  <Num_Not_Resolved_Atoms>  (973) 
nan

$$$$
CHEMBL1606400
     RDKit          3D

  0  0  0  0  0  0  0  0  0  0999 V3000
M  V30 BEGIN CTAB
M  V30 COUNTS 33 36 0 0 0
M  V30 BEGIN ATOM
M  V30 1 O -1.565026 -2.612393 1.386146 0
M  V30 2 C -0.506387 -2.047115 1.004822 0
M  V30 3 C 0.611998 -2.861040 0.850371 0
M  V30 4 C 0.547501 -4.220745 1.106881 0
M  V30 5 C 1.683336 -5.002764 0.942157 0
M  V30 6 C 2.832791 -4.364972 0.523893 0
M  V30 7 C 2.957087 -3.017612 0.253638 0
M  V30 8 C 1.798337 -2.263810 0.429427 0
M  V30 9 N 1.830031 -0.929680 0.186146 0
M  V30 10 C 0.735568 -0.162095 0.342389 0
M  V30 11 C 0.773466 1.267853 0.080590 0
M  V30 12 C 1.604654 1.787018 -0.919304 0
M  V30 13 C 1.463196 3.159304 -0.973682 0
M  V30 14 C 0.535280 3.410107 0.014913 0
M  V30 15 O 0.163379 2.299718 0.597292 0
M  V30 16 N -0.414035 -0.731946 0.748733 0
M  V30 17 C -1.614909 -0.014129 0.942073 0
M  V30 18 C -2.580307 -0.274319 -0.032991 0
M  V30 19 C -3.816670 0.371980 0.040802 0
M  V30 20 N -4.042092 1.240665 1.068045 0
M  V30 21 C -3.117521 1.496215 2.010470 0
M  V30 22 C -1.869740 0.869242 1.970147 0
M  V30 23 H -0.382327 -4.662827 1.432227 0
M  V30 24 H 1.630016 -6.045923 1.139963 0
M  V30 25 H 3.725782 -4.970170 0.392678 0
M  V30 26 H 3.892897 -2.592725 -0.070271 0
M  V30 27 H 2.285589 1.238084 -1.588671 0
M  V30 28 H 1.984551 3.822595 -1.652743 0
M  V30 29 H 0.166507 4.408520 0.269635 0
M  V30 30 H -2.454762 -0.956089 -0.872386 0
M  V30 31 H -4.585862 0.177543 -0.718719 0
M  V30 32 H -3.259286 2.172170 2.831514 0
M  V30 33 H -1.072067 1.027268 2.698922 0
M  V30 END ATOM
M  V30 BEGIN BOND
M  V30 1 2 1 2
M  V30 2 1 2 3
M  V30 3 2 3 4
M  V30 4 1 4 5
M  V30 5 2 5 6
M  V30 6 1 6 7
M  V30 7 2 7 8
M  V30 8 1 8 9
M  V30 9 2 9 10
M  V30 10 1 10 11
M  V30 11 2 11 12
M  V30 12 1 12 13
M  V30 13 2 13 14
M  V30 14 1 14 15
M  V30 15 1 10 16
M  V30 16 1 16 17
M  V30 17 2 17 18
M  V30 18 1 18 19
M  V30 19 2 19 20
M  V30 20 1 20 21
M  V30 21 2 21 22
M  V30 22 1 16 2
M  V30 23 1 22 17
M  V30 24 1 8 3
M  V30 25 1 15 11
M  V30 26 1 4 23
M  V30 27 1 5 24
M  V30 28 1 6 25
M  V30 29 1 7 26
M  V30 30 1 12 27
M  V30 31 1 13 28
M  V30 32 1 14 29
M  V30 33 1 18 30
M  V30 34 1 19 31
M  V30 35 1 21 32
M  V30 36 1 22 33
M  V30 END BOND
M  V30 END CTAB
M  END
>  <Dataset>  (974) 
ChEMBL_Kinases

>  <Ligand_Instance>  (974) 
nan

>  <PDB_ID>  (974) 
nan

>  <Standardized_SMILES>  (974) 
O=c1c2ccccc2nc(-c2ccco2)n1-c1ccncc1

>  <Name>  (974) 
nan

>  <Pocket>  (974) 
nan

>  <ATP_Site>  (974) 
nan

>  <Peripheral>  (974) 
nan

>  <Num_H_Atoms_ProtBoundConf>  (974) 
nan

>  <Num_Resolved_Atoms>  (974) 
nan

>  <Num_Not_Resolved_Atoms>  (974) 
nan

$$$$
CHEMBL1605976
     RDKit          3D

  0  0  0  0  0  0  0  0  0  0999 V3000
M  V30 BEGIN CTAB
M  V30 COUNTS 29 30 0 0 0
M  V30 BEGIN ATOM
M  V30 1 C 0.769793 -2.075114 3.684784 0
M  V30 2 C 1.280936 -1.797240 2.327168 0
M  V30 3 N 2.313167 -2.475651 1.794572 0
M  V30 4 C 2.704032 -2.133939 0.531287 0
M  V30 5 C 2.109017 -1.143895 -0.224808 0
M  V30 6 C 2.569204 -0.806594 -1.598575 0
M  V30 7 Cl 1.468146 -1.457607 -2.823614 0
M  V30 8 C 1.037745 -0.439537 0.327349 0
M  V30 9 C 0.644032 -0.788196 1.607806 0
M  V30 10 O -0.427760 -0.034787 2.071642 0
M  V30 11 C -1.317176 0.420806 1.054871 0
M  V30 12 C -2.452931 1.185001 1.684312 0
M  V30 13 C -1.867913 -0.737305 0.235344 0
M  V30 14 O -0.627078 1.229408 0.184463 0
M  V30 15 C 0.402468 0.620671 -0.483622 0
M  V30 16 H -0.050079 -1.427707 3.984731 0
M  V30 17 H 0.517462 -3.143124 3.860434 0
M  V30 18 H 1.629714 -1.861742 4.377812 0
M  V30 19 H 3.543108 -2.672658 0.075102 0
M  V30 20 H 3.541948 -1.344792 -1.742816 0
M  V30 21 H 2.780306 0.268600 -1.704542 0
M  V30 22 H -3.233660 0.446771 2.031883 0
M  V30 23 H -2.932008 1.831448 0.924267 0
M  V30 24 H -2.106050 1.763071 2.537554 0
M  V30 25 H -2.957458 -0.740734 0.154969 0
M  V30 26 H -1.517273 -1.709682 0.688268 0
M  V30 27 H -1.454983 -0.756961 -0.794643 0
M  V30 28 H 0.157075 0.317048 -1.517944 0
M  V30 29 H 1.199113 1.412042 -0.599362 0
M  V30 END ATOM
M  V30 BEGIN BOND
M  V30 1 1 1 2
M  V30 2 2 2 3
M  V30 3 1 3 4
M  V30 4 2 4 5
M  V30 5 1 5 6
M  V30 6 1 6 7
M  V30 7 1 5 8
M  V30 8 2 8 9
M  V30 9 1 9 10
M  V30 10 1 10 11
M  V30 11 1 11 12
M  V30 12 1 11 13
M  V30 13 1 11 14
M  V30 14 1 14 15
M  V30 15 1 9 2
M  V30 16 1 15 8
M  V30 17 1 1 16
M  V30 18 1 1 17
M  V30 19 1 1 18
M  V30 20 1 4 19
M  V30 21 1 6 20
M  V30 22 1 6 21
M  V30 23 1 12 22
M  V30 24 1 12 23
M  V30 25 1 12 24
M  V30 26 1 13 25
M  V30 27 1 13 26
M  V30 28 1 13 27
M  V30 29 1 15 28
M  V30 30 1 15 29
M  V30 END BOND
M  V30 END CTAB
M  END
>  <Dataset>  (975) 
ChEMBL_Kinases

>  <Ligand_Instance>  (975) 
nan

>  <PDB_ID>  (975) 
nan

>  <Standardized_SMILES>  (975) 
Cc1ncc(CCl)c2c1OC(C)(C)OC2

>  <Name>  (975) 
nan

>  <Pocket>  (975) 
nan

>  <ATP_Site>  (975) 
nan

>  <Peripheral>  (975) 
nan

>  <Num_H_Atoms_ProtBoundConf>  (975) 
nan

>  <Num_Resolved_Atoms>  (975) 
nan

>  <Num_Not_Resolved_Atoms>  (975) 
nan

$$$$
CHEMBL1605977
     RDKit          3D

  0  0  0  0  0  0  0  0  0  0999 V3000
M  V30 BEGIN CTAB
M  V30 COUNTS 34 36 0 0 0
M  V30 BEGIN ATOM
M  V30 1 C -1.542017 -4.613596 2.122932 0
M  V30 2 O -0.720280 -3.634410 1.568280 0
M  V30 3 C 0.566637 -3.927327 1.139555 0
M  V30 4 C 1.024456 -5.219625 1.273046 0
M  V30 5 C 2.265886 -5.691328 0.904999 0
M  V30 6 C 3.131150 -4.773920 0.348475 0
M  V30 7 C 2.668053 -3.487745 0.218502 0
M  V30 8 S 3.459110 -1.940805 -0.460775 0
M  V30 9 C 1.943649 -0.915630 -0.119659 0
M  V30 10 N 2.127678 0.458804 -0.521903 0
M  V30 11 C 1.044926 1.461007 -0.343231 0
M  V30 12 N 0.815401 2.543184 -0.514638 0
M  V30 13 C -0.263618 3.242179 -0.264493 0
M  V30 14 C -0.522506 4.682332 -0.514130 0
M  V30 15 C -1.337868 2.557212 0.316935 0
M  V30 16 C -2.702461 2.735852 0.806254 0
M  V30 17 C -3.300211 4.063559 0.726437 0
M  V30 18 O -3.370074 1.769683 1.293939 0
M  V30 19 S -0.568716 0.828783 0.434515 0
M  V30 20 N 1.188322 -1.698172 0.361744 0
M  V30 21 C 1.440473 -2.984989 0.573701 0
M  V30 22 H -0.973245 -5.056579 2.975536 0
M  V30 23 H -1.674558 -5.416759 1.343320 0
M  V30 24 H -2.499292 -4.244339 2.491395 0
M  V30 25 H 0.345982 -5.969287 1.716637 0
M  V30 26 H 2.635188 -6.696896 1.003811 0
M  V30 27 H 4.136057 -4.958950 0.003172 0
M  V30 28 H 2.947565 0.906154 -0.947580 0
M  V30 29 H -0.958198 5.155346 0.385298 0
M  V30 30 H 0.413756 5.243711 -0.721613 0
M  V30 31 H -1.157140 4.833236 -1.421628 0
M  V30 32 H -3.204190 4.581585 -0.231403 0
M  V30 33 H -2.950651 4.654920 1.607069 0
M  V30 34 H -4.410873 3.969323 0.903746 0
M  V30 END ATOM
M  V30 BEGIN BOND
M  V30 1 1 1 2
M  V30 2 1 2 3
M  V30 3 2 3 4
M  V30 4 1 4 5
M  V30 5 2 5 6
M  V30 6 1 6 7
M  V30 7 1 7 8
M  V30 8 1 8 9
M  V30 9 1 9 10
M  V30 10 1 10 11
M  V30 11 2 11 12
M  V30 12 1 12 13
M  V30 13 1 13 14
M  V30 14 2 13 15
M  V30 15 1 15 16
M  V30 16 1 16 17
M  V30 17 2 16 18
M  V30 18 1 15 19
M  V30 19 2 9 20
M  V30 20 1 20 21
M  V30 21 1 21 3
M  V30 22 2 21 7
M  V30 23 1 19 11
M  V30 24 1 1 22
M  V30 25 1 1 23
M  V30 26 1 1 24
M  V30 27 1 4 25
M  V30 28 1 5 26
M  V30 29 1 6 27
M  V30 30 1 10 28
M  V30 31 1 14 29
M  V30 32 1 14 30
M  V30 33 1 14 31
M  V30 34 1 17 32
M  V30 35 1 17 33
M  V30 36 1 17 34
M  V30 END BOND
M  V30 END CTAB
M  END
>  <Dataset>  (976) 
ChEMBL_Kinases

>  <Ligand_Instance>  (976) 
nan

>  <PDB_ID>  (976) 
nan

>  <Standardized_SMILES>  (976) 
COc1cccc2sc(Nc3nc(C)c(C(C)=O)s3)nc12

>  <Name>  (976) 
nan

>  <Pocket>  (976) 
nan

>  <ATP_Site>  (976) 
nan

>  <Peripheral>  (976) 
nan

>  <Num_H_Atoms_ProtBoundConf>  (976) 
nan

>  <Num_Resolved_Atoms>  (976) 
nan

>  <Num_Not_Resolved_Atoms>  (976) 
nan

$$$$
CHEMBL1606020
     RDKit          3D

  0  0  0  0  0  0  0  0  0  0999 V3000
M  V30 BEGIN CTAB
M  V30 COUNTS 41 45 0 0 0
M  V30 BEGIN ATOM
M  V30 1 N -0.864831 -2.510022 6.106934 0
M  V30 2 C -0.425299 -2.191075 5.028378 0
M  V30 3 C 0.111386 -1.762998 3.672734 0
M  V30 4 C 1.288287 -2.137284 3.232992 0
M  V30 5 C 1.768460 -1.582960 2.073257 0
M  V30 6 C 0.904466 -0.692590 1.475799 0
M  V30 7 N 1.575613 -0.242508 0.213242 0
M  V30 8 C 2.221014 0.188081 -0.938832 0
M  V30 9 C 1.221995 0.537774 -2.061298 0
M  V30 10 C 0.479570 -0.229541 -2.865790 0
M  V30 11 C -0.240578 0.624512 -3.631165 0
M  V30 12 C 0.129411 1.937865 -3.253580 0
M  V30 13 O 0.987455 1.831695 -2.326001 0
M  V30 14 N -0.305004 -0.319118 1.916026 0
M  V30 15 C -0.697443 -0.869325 3.049596 0
M  V30 16 N -2.006087 -0.485373 3.199970 0
M  V30 17 C -2.285990 0.219591 2.198841 0
M  V30 18 C -3.479847 0.840018 1.653911 0
M  V30 19 C -3.595105 1.532249 0.457954 0
M  V30 20 C -2.476213 1.686310 -0.357175 0
M  V30 21 C -1.267226 1.112392 0.095950 0
M  V30 22 C -1.276551 0.444638 1.271182 0
M  V30 23 C 3.097939 -2.222640 1.745581 0
M  V30 24 C 3.477562 -2.905876 3.047042 0
M  V30 25 C 2.172942 -3.281685 3.684529 0
M  V30 26 H 0.804200 -0.791252 -0.307202 0
M  V30 27 H 2.808183 -0.703276 -1.390383 0
M  V30 28 H 2.906109 1.017344 -0.789251 0
M  V30 29 H 0.479843 -1.299783 -2.916201 0
M  V30 30 H -0.997379 0.439297 -4.439314 0
M  V30 31 H -0.202400 2.946454 -3.617671 0
M  V30 32 H -4.403686 0.759021 2.256974 0
M  V30 33 H -4.468915 1.959269 0.045403 0
M  V30 34 H -2.315777 2.235021 -1.323017 0
M  V30 35 H -0.370411 1.124716 -0.282416 0
M  V30 36 H 3.861129 -1.546595 1.390741 0
M  V30 37 H 2.923718 -3.047352 0.977487 0
M  V30 38 H 4.084917 -3.794428 2.854729 0
M  V30 39 H 4.044467 -2.216304 3.705106 0
M  V30 40 H 2.142653 -3.550833 4.702610 0
M  V30 41 H 1.740256 -4.149482 2.997412 0
M  V30 END ATOM
M  V30 BEGIN BOND
M  V30 1 3 1 2
M  V30 2 1 2 3
M  V30 3 2 3 4
M  V30 4 1 4 5
M  V30 5 2 5 6
M  V30 6 1 6 7
M  V30 7 1 7 8
M  V30 8 1 8 9
M  V30 9 2 9 10
M  V30 10 1 10 11
M  V30 11 2 11 12
M  V30 12 1 12 13
M  V30 13 1 6 14
M  V30 14 1 14 15
M  V30 15 2 15 16
M  V30 16 1 16 17
M  V30 17 2 17 18
M  V30 18 1 18 19
M  V30 19 2 19 20
M  V30 20 1 20 21
M  V30 21 2 21 22
M  V30 22 1 5 23
M  V30 23 1 23 24
M  V30 24 1 24 25
M  V30 25 1 15 3
M  V30 26 1 22 17
M  V30 27 1 25 4
M  V30 28 1 13 9
M  V30 29 1 22 14
M  V30 30 1 7 26
M  V30 31 1 8 27
M  V30 32 1 8 28
M  V30 33 1 10 29
M  V30 34 1 11 30
M  V30 35 1 12 31
M  V30 36 1 18 32
M  V30 37 1 19 33
M  V30 38 1 20 34
M  V30 39 1 21 35
M  V30 40 1 23 36
M  V30 41 1 23 37
M  V30 42 1 24 38
M  V30 43 1 24 39
M  V30 44 1 25 40
M  V30 45 1 25 41
M  V30 END BOND
M  V30 END CTAB
M  END
>  <Dataset>  (977) 
ChEMBL_Kinases

>  <Ligand_Instance>  (977) 
nan

>  <PDB_ID>  (977) 
nan

>  <Standardized_SMILES>  (977) 
N#Cc1c2c(c(NCc3ccco3)n3c1nc1ccccc13)CCC2

>  <Name>  (977) 
nan

>  <Pocket>  (977) 
nan

>  <ATP_Site>  (977) 
nan

>  <Peripheral>  (977) 
nan

>  <Num_H_Atoms_ProtBoundConf>  (977) 
nan

>  <Num_Resolved_Atoms>  (977) 
nan

>  <Num_Not_Resolved_Atoms>  (977) 
nan

$$$$
CHEMBL1606045
     RDKit          3D

  0  0  0  0  0  0  0  0  0  0999 V3000
M  V30 BEGIN CTAB
M  V30 COUNTS 30 31 0 0 0
M  V30 BEGIN ATOM
M  V30 1 C 0.319652 -4.923115 1.867761 0
M  V30 2 N 0.556821 -4.428697 0.503155 0
M  V30 3 C 0.211516 -3.078214 0.301619 0
M  V30 4 O -0.257760 -2.380899 1.230547 0
M  V30 5 C 0.387297 -2.444695 -0.991982 0
M  V30 6 C 0.880761 -3.047297 -2.107797 0
M  V30 7 C 0.996235 -2.293566 -3.313828 0
M  V30 8 S 0.341947 -0.589476 -2.790217 0
M  V30 9 C 0.008644 -1.034370 -1.136914 0
M  V30 10 N -0.526535 -0.105235 -0.217360 0
M  V30 11 C 0.478754 0.607678 0.474513 0
M  V30 12 O 1.686225 0.362268 0.221301 0
M  V30 13 C 0.188454 1.626588 1.480117 0
M  V30 14 C 1.254337 2.255449 2.088514 0
M  V30 15 C 1.006565 3.224163 3.044404 0
M  V30 16 C -0.277632 3.598248 3.425298 0
M  V30 17 C -1.310351 2.940675 2.788307 0
M  V30 18 C -1.099115 1.969638 1.830495 0
M  V30 19 H 0.642319 -5.990371 1.863105 0
M  V30 20 H -0.757134 -4.918430 2.129144 0
M  V30 21 H 0.963362 -4.414414 2.611375 0
M  V30 22 H 0.946844 -4.990137 -0.287914 0
M  V30 23 H 1.185540 -4.078508 -2.100914 0
M  V30 24 H 1.396009 -2.742368 -4.259456 0
M  V30 25 H -1.514740 0.073026 -0.032347 0
M  V30 26 H 2.268553 2.014800 1.841657 0
M  V30 27 H 1.856116 3.700948 3.505283 0
M  V30 28 H -0.390506 4.364580 4.180647 0
M  V30 29 H -2.303583 3.211308 3.064464 0
M  V30 30 H -1.935720 1.493283 1.369929 0
M  V30 END ATOM
M  V30 BEGIN BOND
M  V30 1 1 1 2
M  V30 2 1 2 3
M  V30 3 2 3 4
M  V30 4 1 3 5
M  V30 5 1 5 6
M  V30 6 2 6 7
M  V30 7 1 7 8
M  V30 8 1 8 9
M  V30 9 1 9 10
M  V30 10 1 10 11
M  V30 11 2 11 12
M  V30 12 1 11 13
M  V30 13 2 13 14
M  V30 14 1 14 15
M  V30 15 2 15 16
M  V30 16 1 16 17
M  V30 17 2 17 18
M  V30 18 2 9 5
M  V30 19 1 18 13
M  V30 20 1 1 19
M  V30 21 1 1 20
M  V30 22 1 1 21
M  V30 23 1 2 22
M  V30 24 1 6 23
M  V30 25 1 7 24
M  V30 26 1 10 25
M  V30 27 1 14 26
M  V30 28 1 15 27
M  V30 29 1 16 28
M  V30 30 1 17 29
M  V30 31 1 18 30
M  V30 END BOND
M  V30 END CTAB
M  END
>  <Dataset>  (978) 
ChEMBL_Kinases

>  <Ligand_Instance>  (978) 
nan

>  <PDB_ID>  (978) 
nan

>  <Standardized_SMILES>  (978) 
CNC(=O)c1ccsc1NC(=O)c1ccccc1

>  <Name>  (978) 
nan

>  <Pocket>  (978) 
nan

>  <ATP_Site>  (978) 
nan

>  <Peripheral>  (978) 
nan

>  <Num_H_Atoms_ProtBoundConf>  (978) 
nan

>  <Num_Resolved_Atoms>  (978) 
nan

>  <Num_Not_Resolved_Atoms>  (978) 
nan

$$$$
CHEMBL1606199
     RDKit          3D

  0  0  0  0  0  0  0  0  0  0999 V3000
M  V30 BEGIN CTAB
M  V30 COUNTS 35 37 0 0 0
M  V30 BEGIN ATOM
M  V30 1 C -1.173130 -2.482339 4.091929 0
M  V30 2 N -0.785836 -3.026906 2.796830 0
M  V30 3 C -0.987864 -4.398726 2.453854 0
M  V30 4 C -0.185967 -2.145715 1.851737 0
M  V30 5 C 0.206206 -2.605426 0.596781 0
M  V30 6 C 0.789927 -1.720018 -0.305691 0
M  V30 7 C 1.000724 -0.375443 -0.001254 0
M  V30 8 C 1.623111 0.417440 -1.056175 0
M  V30 9 C 2.712488 0.029663 -1.810021 0
M  V30 10 N 3.207929 0.851438 -2.766883 0
M  V30 11 C 2.641656 2.055378 -2.991641 0
M  V30 12 N 1.570076 2.470136 -2.270604 0
M  V30 13 C 1.060526 1.653842 -1.304270 0
M  V30 14 N -0.058645 2.225980 -0.636851 0
M  V30 15 C -1.247222 1.556971 -0.571923 0
M  V30 16 C -2.142932 2.348229 0.130306 0
M  V30 17 N -1.493355 3.471497 0.476917 0
M  V30 18 C -0.229916 3.411720 0.019112 0
M  V30 19 C 0.608443 0.068226 1.244100 0
M  V30 20 C 0.029191 -0.811931 2.138723 0
M  V30 21 H -0.271643 -1.921727 4.472490 0
M  V30 22 H -1.513161 -3.248125 4.785333 0
M  V30 23 H -1.922214 -1.683638 3.885200 0
M  V30 24 H -0.146780 -4.900491 1.957403 0
M  V30 25 H -1.854370 -4.498774 1.756694 0
M  V30 26 H -1.291744 -4.996268 3.349473 0
M  V30 27 H 0.042289 -3.628672 0.373710 0
M  V30 28 H 1.058670 -2.188156 -1.259838 0
M  V30 29 H 3.129699 -0.927189 -1.601485 0
M  V30 30 H 3.052179 2.686108 -3.753627 0
M  V30 31 H -1.472176 0.573866 -0.991592 0
M  V30 32 H -3.172552 2.046088 0.326431 0
M  V30 33 H 0.581978 4.116375 0.099666 0
M  V30 34 H 0.782145 1.100664 1.448631 0
M  V30 35 H -0.253571 -0.395531 3.095826 0
M  V30 END ATOM
M  V30 BEGIN BOND
M  V30 1 1 1 2
M  V30 2 1 2 3
M  V30 3 1 2 4
M  V30 4 2 4 5
M  V30 5 1 5 6
M  V30 6 2 6 7
M  V30 7 1 7 8
M  V30 8 2 8 9
M  V30 9 1 9 10
M  V30 10 2 10 11
M  V30 11 1 11 12
M  V30 12 2 12 13
M  V30 13 1 13 14
M  V30 14 1 14 15
M  V30 15 2 15 16
M  V30 16 1 16 17
M  V30 17 2 17 18
M  V30 18 1 7 19
M  V30 19 2 19 20
M  V30 20 1 20 4
M  V30 21 1 13 8
M  V30 22 1 18 14
M  V30 23 1 1 21
M  V30 24 1 1 22
M  V30 25 1 1 23
M  V30 26 1 3 24
M  V30 27 1 3 25
M  V30 28 1 3 26
M  V30 29 1 5 27
M  V30 30 1 6 28
M  V30 31 1 9 29
M  V30 32 1 11 30
M  V30 33 1 15 31
M  V30 34 1 16 32
M  V30 35 1 18 33
M  V30 36 1 19 34
M  V30 37 1 20 35
M  V30 END BOND
M  V30 END CTAB
M  END
>  <Dataset>  (979) 
ChEMBL_Kinases

>  <Ligand_Instance>  (979) 
nan

>  <PDB_ID>  (979) 
nan

>  <Standardized_SMILES>  (979) 
CN(C)c1ccc(-c2cncnc2-n2ccnc2)cc1

>  <Name>  (979) 
nan

>  <Pocket>  (979) 
nan

>  <ATP_Site>  (979) 
nan

>  <Peripheral>  (979) 
nan

>  <Num_H_Atoms_ProtBoundConf>  (979) 
nan

>  <Num_Resolved_Atoms>  (979) 
nan

>  <Num_Not_Resolved_Atoms>  (979) 
nan

$$$$
CHEMBL1606230
     RDKit          3D

  0  0  0  0  0  0  0  0  0  0999 V3000
M  V30 BEGIN CTAB
M  V30 COUNTS 27 30 0 0 0
M  V30 BEGIN ATOM
M  V30 1 O -0.630081 -3.447938 0.177492 0
M  V30 2 C 0.029550 -2.390021 0.788146 0
M  V30 3 N 0.857386 -2.529783 1.839156 0
M  V30 4 C 1.487551 -1.492659 2.417401 0
M  V30 5 C 2.341475 -1.662317 3.506476 0
M  V30 6 C 2.990536 -0.574927 4.098351 0
M  V30 7 C 2.751951 0.681330 3.559593 0
M  V30 8 C 1.922846 0.929423 2.485996 0
M  V30 9 C 1.330915 -0.196882 1.972333 0
M  V30 10 C 0.471668 -0.051090 0.881304 0
M  V30 11 N 0.090470 1.062412 0.193843 0
M  V30 12 C -0.761245 0.690892 -0.787532 0
M  V30 13 C -1.418269 1.451201 -1.747650 0
M  V30 14 C -2.253657 0.847304 -2.663768 0
M  V30 15 C -2.358561 -0.521398 -2.528031 0
M  V30 16 C -1.731771 -1.312926 -1.599250 0
M  V30 17 N -0.925192 -0.643885 -0.731408 0
M  V30 18 C -0.181178 -1.123620 0.281874 0
M  V30 19 H -0.398043 -4.404573 0.378237 0
M  V30 20 H 2.497745 -2.671344 3.895490 0
M  V30 21 H 3.652201 -0.709784 4.942873 0
M  V30 22 H 3.272285 1.523633 4.039798 0
M  V30 23 H 1.749478 1.902562 2.082813 0
M  V30 24 H -1.295124 2.529805 -1.804535 0
M  V30 25 H -2.791350 1.384055 -3.432956 0
M  V30 26 H -3.009263 -1.048018 -3.230704 0
M  V30 27 H -1.846665 -2.365817 -1.537107 0
M  V30 END ATOM
M  V30 BEGIN BOND
M  V30 1 1 1 2
M  V30 2 2 2 3
M  V30 3 1 3 4
M  V30 4 2 4 5
M  V30 5 1 5 6
M  V30 6 2 6 7
M  V30 7 1 7 8
M  V30 8 2 8 9
M  V30 9 1 9 10
M  V30 10 1 10 11
M  V30 11 2 11 12
M  V30 12 1 12 13
M  V30 13 2 13 14
M  V30 14 1 14 15
M  V30 15 2 15 16
M  V30 16 1 16 17
M  V30 17 1 17 18
M  V30 18 1 18 2
M  V30 19 1 9 4
M  V30 20 2 18 10
M  V30 21 1 17 12
M  V30 22 1 1 19
M  V30 23 1 5 20
M  V30 24 1 6 21
M  V30 25 1 7 22
M  V30 26 1 8 23
M  V30 27 1 13 24
M  V30 28 1 14 25
M  V30 29 1 15 26
M  V30 30 1 16 27
M  V30 END BOND
M  V30 END CTAB
M  END
>  <Dataset>  (980) 
ChEMBL_Kinases

>  <Ligand_Instance>  (980) 
nan

>  <PDB_ID>  (980) 
nan

>  <Standardized_SMILES>  (980) 
Oc1nc2ccccc2c2nc3ccccn3c12

>  <Name>  (980) 
nan

>  <Pocket>  (980) 
nan

>  <ATP_Site>  (980) 
nan

>  <Peripheral>  (980) 
nan

>  <Num_H_Atoms_ProtBoundConf>  (980) 
nan

>  <Num_Resolved_Atoms>  (980) 
nan

>  <Num_Not_Resolved_Atoms>  (980) 
nan

$$$$
CHEMBL1606364
     RDKit          3D

  0  0  0  0  0  0  0  0  0  0999 V3000
M  V30 BEGIN CTAB
M  V30 COUNTS 46 48 0 0 0
M  V30 BEGIN ATOM
M  V30 1 O -1.124531 -3.361575 2.849454 0
M  V30 2 C -0.740385 -2.811760 1.760102 0
M  V30 3 C 0.650212 -2.414358 1.902571 0
M  V30 4 N 1.274284 -1.760954 0.814412 0
M  V30 5 C 0.862570 -0.441424 0.498393 0
M  V30 6 C 1.415095 -0.135101 -0.893381 0
M  V30 7 N 2.818013 0.086562 -0.756869 0
M  V30 8 S 3.248063 1.733633 -0.808985 0
M  V30 9 O 2.724018 2.309611 -2.090637 0
M  V30 10 O 4.727029 1.912028 -0.765485 0
M  V30 11 C 2.481226 2.572079 0.524900 0
M  V30 12 C 1.228382 3.144182 0.454485 0
M  V30 13 C 0.673955 3.798291 1.545982 0
M  V30 14 C 1.450914 3.843673 2.709838 0
M  V30 15 F 0.961083 4.472291 3.812663 0
M  V30 16 C 2.706643 3.286016 2.825098 0
M  V30 17 C 3.196423 2.651044 1.700965 0
M  V30 18 C 3.399318 -0.641498 0.319004 0
M  V30 19 C 2.685608 -1.919630 0.683293 0
M  V30 20 N -1.621814 -2.671566 0.661912 0
M  V30 21 C -2.973451 -3.029861 0.462026 0
M  V30 22 C -3.874334 -2.043901 0.832412 0
M  V30 23 C -5.226715 -2.290945 0.673749 0
M  V30 24 C -5.717262 -3.466421 0.166887 0
M  V30 25 C -4.805085 -4.451094 -0.202592 0
M  V30 26 C -3.440424 -4.226233 -0.052440 0
M  V30 27 F -2.491717 -5.137314 -0.389613 0
M  V30 28 H 1.287604 -3.299147 2.182819 0
M  V30 29 H 0.717150 -1.699006 2.780033 0
M  V30 30 H -0.199315 -0.227904 0.457400 0
M  V30 31 H 1.385768 0.245693 1.206443 0
M  V30 32 H 0.926715 0.765421 -1.323797 0
M  V30 33 H 1.177913 -0.988452 -1.551769 0
M  V30 34 H 0.691213 3.069574 -0.472159 0
M  V30 35 H -0.295046 4.237711 1.483047 0
M  V30 36 H 3.264471 3.348002 3.744810 0
M  V30 37 H 4.188470 2.207409 1.780074 0
M  V30 38 H 3.397432 0.010256 1.236091 0
M  V30 39 H 4.462702 -0.910641 0.115695 0
M  V30 40 H 2.938858 -2.680245 -0.090368 0
M  V30 41 H 3.116272 -2.283617 1.636115 0
M  V30 42 H -1.224994 -2.225879 -0.189872 0
M  V30 43 H -3.592927 -1.069171 1.248175 0
M  V30 44 H -5.949505 -1.517649 0.963358 0
M  V30 45 H -6.760964 -3.625867 0.056876 0
M  V30 46 H -5.130638 -5.408734 -0.613211 0
M  V30 END ATOM
M  V30 BEGIN BOND
M  V30 1 2 1 2
M  V30 2 1 2 3
M  V30 3 1 3 4
M  V30 4 1 4 5
M  V30 5 1 5 6
M  V30 6 1 6 7
M  V30 7 1 7 8
M  V30 8 2 8 9
M  V30 9 2 8 10
M  V30 10 1 8 11
M  V30 11 2 11 12
M  V30 12 1 12 13
M  V30 13 2 13 14
M  V30 14 1 14 15
M  V30 15 1 14 16
M  V30 16 2 16 17
M  V30 17 1 7 18
M  V30 18 1 18 19
M  V30 19 1 2 20
M  V30 20 1 20 21
M  V30 21 2 21 22
M  V30 22 1 22 23
M  V30 23 2 23 24
M  V30 24 1 24 25
M  V30 25 2 25 26
M  V30 26 1 26 27
M  V30 27 1 19 4
M  V30 28 1 26 21
M  V30 29 1 17 11
M  V30 30 1 3 28
M  V30 31 1 3 29
M  V30 32 1 5 30
M  V30 33 1 5 31
M  V30 34 1 6 32
M  V30 35 1 6 33
M  V30 36 1 12 34
M  V30 37 1 13 35
M  V30 38 1 16 36
M  V30 39 1 17 37
M  V30 40 1 18 38
M  V30 41 1 18 39
M  V30 42 1 19 40
M  V30 43 1 19 41
M  V30 44 1 20 42
M  V30 45 1 22 43
M  V30 46 1 23 44
M  V30 47 1 24 45
M  V30 48 1 25 46
M  V30 END BOND
M  V30 END CTAB
M  END
>  <Dataset>  (981) 
ChEMBL_Kinases

>  <Ligand_Instance>  (981) 
nan

>  <PDB_ID>  (981) 
nan

>  <Standardized_SMILES>  (981) 
O=C(CN1CCN(S(=O)(=O)c2ccc(F)cc2)CC1)Nc1ccccc1F

>  <Name>  (981) 
nan

>  <Pocket>  (981) 
nan

>  <ATP_Site>  (981) 
nan

>  <Peripheral>  (981) 
nan

>  <Num_H_Atoms_ProtBoundConf>  (981) 
nan

>  <Num_Resolved_Atoms>  (981) 
nan

>  <Num_Not_Resolved_Atoms>  (981) 
nan

$$$$
CHEMBL1606382
     RDKit          3D

  0  0  0  0  0  0  0  0  0  0999 V3000
M  V30 BEGIN CTAB
M  V30 COUNTS 43 47 0 0 0
M  V30 BEGIN ATOM
M  V30 1 C 0.194221 -8.204441 1.751192 0
M  V30 2 O 0.972815 -7.077323 2.057565 0
M  V30 3 C 0.764836 -5.840894 1.460927 0
M  V30 4 C -0.219960 -5.618059 0.521449 0
M  V30 5 C -0.412163 -4.384079 -0.060466 0
M  V30 6 C 0.373268 -3.301715 0.267992 0
M  V30 7 C 0.327822 -1.927126 -0.198795 0
M  V30 8 N 1.529396 -1.455279 -0.618570 0
M  V30 9 N 1.686299 -0.225571 -1.075631 0
M  V30 10 C 0.692343 0.674586 -1.172583 0
M  V30 11 S 0.901933 2.337180 -1.791015 0
M  V30 12 C 1.322188 3.465368 -0.453589 0
M  V30 13 N 1.557378 4.802452 -0.529440 0
M  V30 14 C 1.834708 5.230890 0.722030 0
M  V30 15 C 2.152338 6.437015 1.319855 0
M  V30 16 C 2.386656 6.541303 2.678140 0
M  V30 17 C 2.305690 5.409242 3.488790 0
M  V30 18 C 1.987635 4.174523 2.921733 0
M  V30 19 C 1.764279 4.133864 1.558351 0
M  V30 20 O 1.455704 3.101804 0.814482 0
M  V30 21 C -0.546929 0.238756 -0.756140 0
M  V30 22 C -1.662036 1.055317 -0.787717 0
M  V30 23 C -2.885719 0.549640 -0.339822 0
M  V30 24 C -3.041914 -0.753332 0.143927 0
M  V30 25 C -1.919822 -1.554233 0.168207 0
M  V30 26 C -0.721732 -1.038628 -0.278502 0
M  V30 27 C 1.362410 -3.564161 1.223997 0
M  V30 28 C 1.578205 -4.787275 1.822489 0
M  V30 29 H -0.857784 -8.135754 2.068061 0
M  V30 30 H 0.619863 -9.069682 2.319450 0
M  V30 31 H 0.240804 -8.495683 0.691139 0
M  V30 32 H -0.873507 -6.423429 0.217062 0
M  V30 33 H -1.166132 -4.195158 -0.807521 0
M  V30 34 H 2.213478 7.307507 0.689473 0
M  V30 35 H 2.636040 7.477298 3.160148 0
M  V30 36 H 2.481285 5.434428 4.568535 0
M  V30 37 H 1.920527 3.281301 3.541044 0
M  V30 38 H -1.572228 2.055451 -1.152119 0
M  V30 39 H -3.719618 1.262081 -0.398682 0
M  V30 40 H -4.039580 -1.028146 0.462220 0
M  V30 41 H -2.049631 -2.552941 0.554583 0
M  V30 42 H 2.047843 -2.777997 1.562706 0
M  V30 43 H 2.353761 -4.938486 2.553833 0
M  V30 END ATOM
M  V30 BEGIN BOND
M  V30 1 1 1 2
M  V30 2 1 2 3
M  V30 3 2 3 4
M  V30 4 1 4 5
M  V30 5 2 5 6
M  V30 6 1 6 7
M  V30 7 2 7 8
M  V30 8 1 8 9
M  V30 9 2 9 10
M  V30 10 1 10 11
M  V30 11 1 11 12
M  V30 12 2 12 13
M  V30 13 1 13 14
M  V30 14 2 14 15
M  V30 15 1 15 16
M  V30 16 2 16 17
M  V30 17 1 17 18
M  V30 18 2 18 19
M  V30 19 1 19 20
M  V30 20 1 10 21
M  V30 21 2 21 22
M  V30 22 1 22 23
M  V30 23 2 23 24
M  V30 24 1 24 25
M  V30 25 2 25 26
M  V30 26 1 6 27
M  V30 27 2 27 28
M  V30 28 1 28 3
M  V30 29 1 26 7
M  V30 30 1 20 12
M  V30 31 1 26 21
M  V30 32 1 19 14
M  V30 33 1 1 29
M  V30 34 1 1 30
M  V30 35 1 1 31
M  V30 36 1 4 32
M  V30 37 1 5 33
M  V30 38 1 15 34
M  V30 39 1 16 35
M  V30 40 1 17 36
M  V30 41 1 18 37
M  V30 42 1 22 38
M  V30 43 1 23 39
M  V30 44 1 24 40
M  V30 45 1 25 41
M  V30 46 1 27 42
M  V30 47 1 28 43
M  V30 END BOND
M  V30 END CTAB
M  END
>  <Dataset>  (982) 
ChEMBL_Kinases

>  <Ligand_Instance>  (982) 
nan

>  <PDB_ID>  (982) 
nan

>  <Standardized_SMILES>  (982) 
COc1ccc(-c2nnc(Sc3nc4ccccc4o3)c3ccccc23)cc1

>  <Name>  (982) 
nan

>  <Pocket>  (982) 
nan

>  <ATP_Site>  (982) 
nan

>  <Peripheral>  (982) 
nan

>  <Num_H_Atoms_ProtBoundConf>  (982) 
nan

>  <Num_Resolved_Atoms>  (982) 
nan

>  <Num_Not_Resolved_Atoms>  (982) 
nan

$$$$
CHEMBL160586
     RDKit          3D

  0  0  0  0  0  0  0  0  0  0999 V3000
M  V30 BEGIN CTAB
M  V30 COUNTS 37 39 0 0 0
M  V30 BEGIN ATOM
M  V30 1 O 1.643802 -1.936155 4.671178 0
M  V30 2 C 2.023456 -1.222760 3.707164 0
M  V30 3 N 3.310007 -0.654109 3.508099 0
M  V30 4 C 3.342299 0.097423 2.278893 0
M  V30 5 O 4.427778 0.662216 1.965840 0
M  V30 6 C 1.992669 -0.039172 1.725077 0
M  V30 7 C 1.692914 0.574781 0.441261 0
M  V30 8 C 1.160288 -0.105652 -0.639456 0
M  V30 9 C 0.843680 0.440856 -1.853635 0
M  V30 10 C 1.066999 1.789111 -2.042999 0
M  V30 11 C 1.597932 2.538113 -1.009148 0
M  V30 12 C 1.883738 1.899389 0.178878 0
M  V30 13 N 2.398600 2.786144 1.155351 0 CHG=1 VAL=4
M  V30 14 O 3.045638 3.841285 1.039679 0
M  V30 15 O 2.422720 2.883580 2.546158 0 CHG=-1 VAL=1
M  V30 16 C 1.268806 -0.783920 2.542766 0
M  V30 17 N -0.095153 -1.138810 2.377254 0
M  V30 18 C -1.060956 -1.389830 1.401325 0
M  V30 19 C -1.870218 -0.393588 0.866586 0
M  V30 20 C -2.786769 -0.759447 -0.096534 0
M  V30 21 C -2.904842 -2.062016 -0.520550 0
M  V30 22 Cl -4.076370 -2.527602 -1.751159 0
M  V30 23 C -2.119906 -3.075472 -0.012789 0
M  V30 24 C -2.212358 -4.464269 -0.435942 0
M  V30 25 O -1.550013 -5.428244 -0.026362 0
M  V30 26 O -3.159536 -4.773716 -1.426980 0
M  V30 27 C -1.208490 -2.693811 0.948793 0
M  V30 28 H 4.085138 -0.811303 4.217440 0
M  V30 29 H 0.967647 -1.167264 -0.572550 0
M  V30 30 H 0.427426 -0.130841 -2.670800 0
M  V30 31 H 0.823642 2.240102 -2.995128 0
M  V30 32 H 1.748052 3.579263 -1.219402 0
M  V30 33 H -0.727276 -1.301305 3.211514 0
M  V30 34 H -1.775095 0.627400 1.201489 0
M  V30 35 H -3.447791 -0.049168 -0.558628 0
M  V30 36 H -2.999994 -5.540696 -2.072808 0
M  V30 37 H -0.580816 -3.466936 1.363095 0
M  V30 END ATOM
M  V30 BEGIN BOND
M  V30 1 2 1 2
M  V30 2 1 2 3
M  V30 3 1 3 4
M  V30 4 2 4 5
M  V30 5 1 4 6
M  V30 6 1 6 7
M  V30 7 2 7 8
M  V30 8 1 8 9
M  V30 9 2 9 10
M  V30 10 1 10 11
M  V30 11 2 11 12
M  V30 12 1 12 13
M  V30 13 2 13 14
M  V30 14 1 13 15
M  V30 15 2 6 16
M  V30 16 1 16 17
M  V30 17 1 17 18
M  V30 18 2 18 19
M  V30 19 1 19 20
M  V30 20 2 20 21
M  V30 21 1 21 22
M  V30 22 1 21 23
M  V30 23 1 23 24
M  V30 24 2 24 25
M  V30 25 1 24 26
M  V30 26 2 23 27
M  V30 27 1 16 2
M  V30 28 1 27 18
M  V30 29 1 12 7
M  V30 30 1 3 28
M  V30 31 1 8 29
M  V30 32 1 9 30
M  V30 33 1 10 31
M  V30 34 1 11 32
M  V30 35 1 17 33
M  V30 36 1 19 34
M  V30 37 1 20 35
M  V30 38 1 26 36
M  V30 39 1 27 37
M  V30 END BOND
M  V30 END CTAB
M  END
>  <Dataset>  (983) 
ChEMBL_Kinases

>  <Ligand_Instance>  (983) 
nan

>  <PDB_ID>  (983) 
nan

>  <Standardized_SMILES>  (983) 
O=C1NC(=O)C(c2ccccc2[N+](=O)[O-])=C1Nc1ccc(Cl)c(C(=O)O)c1

>  <Name>  (983) 
nan

>  <Pocket>  (983) 
nan

>  <ATP_Site>  (983) 
nan

>  <Peripheral>  (983) 
nan

>  <Num_H_Atoms_ProtBoundConf>  (983) 
nan

>  <Num_Resolved_Atoms>  (983) 
nan

>  <Num_Not_Resolved_Atoms>  (983) 
nan

$$$$
CHEMBL1609952
     RDKit          3D

  0  0  0  0  0  0  0  0  0  0999 V3000
M  V30 BEGIN CTAB
M  V30 COUNTS 47 49 0 0 0
M  V30 BEGIN ATOM
M  V30 1 C 4.967247 -4.649269 5.002598 0
M  V30 2 C 4.427414 -4.095696 3.751492 0
M  V30 3 C 5.112784 -3.360289 2.818718 0
M  V30 4 C 4.483003 -2.887445 1.663647 0
M  V30 5 C 5.426444 -2.107113 0.784644 0
M  V30 6 C 3.126457 -3.147293 1.415251 0
M  V30 7 O 2.781254 -2.567408 0.219557 0
M  V30 8 C 2.354974 -1.269265 -0.033949 0
M  V30 9 C 1.135364 -0.837014 0.640502 0
M  V30 10 O 0.121466 -0.927518 1.394076 0
M  V30 11 N 0.892384 0.524124 0.226565 0
M  V30 12 C -0.213962 1.324296 0.662077 0
M  V30 13 C -0.088701 2.103814 1.797885 0
M  V30 14 C -1.174853 2.858377 2.183495 0
M  V30 15 C -2.347257 2.840087 1.465383 0
M  V30 16 C -2.511657 2.078661 0.331041 0
M  V30 17 N -3.747005 2.113789 -0.351664 0
M  V30 18 C -4.168264 1.438626 -1.521490 0
M  V30 19 O -3.348110 0.672501 -2.081085 0
M  V30 20 C -5.499851 1.601101 -2.087581 0
M  V30 21 C -6.500280 2.402954 -1.586188 0
M  V30 22 C -7.601987 2.276091 -2.410741 0
M  V30 23 C -7.196328 1.378484 -3.394451 0
M  V30 24 O -5.958789 1.011305 -3.163046 0
M  V30 25 C -1.396967 1.348161 -0.004909 0
M  V30 26 C 2.465787 -3.887768 2.367421 0
M  V30 27 Br 0.645344 -4.217461 1.918632 0
M  V30 28 C 3.098730 -4.346458 3.500346 0
M  V30 29 H 6.081345 -4.742324 5.000772 0
M  V30 30 H 4.696748 -4.028929 5.877083 0
M  V30 31 H 4.539360 -5.669733 5.174345 0
M  V30 32 H 6.153952 -3.186633 3.054704 0
M  V30 33 H 6.360081 -2.690721 0.706311 0
M  V30 34 H 5.533260 -1.108444 1.226330 0
M  V30 35 H 4.983376 -2.066378 -0.250621 0
M  V30 36 H 2.198003 -1.199030 -1.153433 0
M  V30 37 H 3.190534 -0.531670 0.173568 0
M  V30 38 H 1.334451 1.271277 -0.406386 0
M  V30 39 H 0.832597 2.119277 2.363729 0
M  V30 40 H -1.130403 3.485240 3.063738 0
M  V30 41 H -3.180202 3.464650 1.823714 0
M  V30 42 H -4.504281 2.728010 0.038172 0
M  V30 43 H -6.489019 3.035825 -0.716915 0
M  V30 44 H -8.586627 2.720546 -2.387231 0
M  V30 45 H -7.725503 0.978208 -4.253112 0
M  V30 46 H -1.431334 0.719744 -0.881284 0
M  V30 47 H 2.449112 -4.915556 4.159885 0
M  V30 END ATOM
M  V30 BEGIN BOND
M  V30 1 1 1 2
M  V30 2 2 2 3
M  V30 3 1 3 4
M  V30 4 1 4 5
M  V30 5 2 4 6
M  V30 6 1 6 7
M  V30 7 1 7 8
M  V30 8 1 8 9
M  V30 9 2 9 10
M  V30 10 1 9 11
M  V30 11 1 11 12
M  V30 12 2 12 13
M  V30 13 1 13 14
M  V30 14 2 14 15
M  V30 15 1 15 16
M  V30 16 1 16 17
M  V30 17 1 17 18
M  V30 18 2 18 19
M  V30 19 1 18 20
M  V30 20 2 20 21
M  V30 21 1 21 22
M  V30 22 2 22 23
M  V30 23 1 23 24
M  V30 24 2 16 25
M  V30 25 1 6 26
M  V30 26 1 26 27
M  V30 27 2 26 28
M  V30 28 1 28 2
M  V30 29 1 25 12
M  V30 30 1 24 20
M  V30 31 1 1 29
M  V30 32 1 1 30
M  V30 33 1 1 31
M  V30 34 1 3 32
M  V30 35 1 5 33
M  V30 36 1 5 34
M  V30 37 1 5 35
M  V30 38 1 8 36
M  V30 39 1 8 37
M  V30 40 1 11 38
M  V30 41 1 13 39
M  V30 42 1 14 40
M  V30 43 1 15 41
M  V30 44 1 17 42
M  V30 45 1 21 43
M  V30 46 1 22 44
M  V30 47 1 23 45
M  V30 48 1 25 46
M  V30 49 1 28 47
M  V30 END BOND
M  V30 END CTAB
M  END
>  <Dataset>  (984) 
ChEMBL_Kinases

>  <Ligand_Instance>  (984) 
nan

>  <PDB_ID>  (984) 
nan

>  <Standardized_SMILES>  (984) 
Cc1cc(C)c(OCC(=O)Nc2cccc(NC(=O)c3ccco3)c2)c(Br)c1

>  <Name>  (984) 
nan

>  <Pocket>  (984) 
nan

>  <ATP_Site>  (984) 
nan

>  <Peripheral>  (984) 
nan

>  <Num_H_Atoms_ProtBoundConf>  (984) 
nan

>  <Num_Resolved_Atoms>  (984) 
nan

>  <Num_Not_Resolved_Atoms>  (984) 
nan

$$$$
CHEMBL1609896
     RDKit          3D

  0  0  0  0  0  0  0  0  0  0999 V3000
M  V30 BEGIN CTAB
M  V30 COUNTS 53 57 0 0 0
M  V30 BEGIN ATOM
M  V30 1 C -0.272384 -2.950275 3.132394 0
M  V30 2 O 0.646863 -3.765579 2.556740 0
M  V30 3 C 1.610759 -3.291632 1.774490 0
M  V30 4 C 1.346287 -2.655146 0.457581 0
M  V30 5 N 0.531613 -1.496672 0.380733 0
M  V30 6 C 1.078665 -0.277425 0.612818 0
M  V30 7 O 2.304196 -0.255650 0.944175 0
M  V30 8 C 0.428581 0.933464 0.522133 0
M  V30 9 C 1.040856 2.226702 0.777047 0
M  V30 10 C 2.320105 2.581513 1.146137 0
M  V30 11 N 2.461524 3.912993 1.276942 0
M  V30 12 C 3.700499 4.598630 1.658225 0
M  V30 13 C 1.261691 4.450734 0.991394 0
M  V30 14 C 0.953134 5.795596 1.001997 0
M  V30 15 C -0.342424 6.141408 0.677312 0
M  V30 16 C -1.287727 5.189338 0.356522 0
M  V30 17 C -0.890692 3.868906 0.371442 0
M  V30 18 C 0.379511 3.432155 0.682966 0
M  V30 19 N -0.867613 0.903501 0.171071 0
M  V30 20 C -1.522864 -0.241577 -0.085327 0
M  V30 21 C -2.841570 -0.298105 -0.450611 0
M  V30 22 N -3.409885 -1.494078 -0.693641 0
M  V30 23 C -2.685773 -2.635704 -0.578745 0
M  V30 24 O -3.382523 -3.804451 -0.855222 0
M  V30 25 C -2.690091 -5.003272 -0.753151 0
M  V30 26 C -2.568301 -5.795902 0.369824 0
M  V30 27 C -1.857995 -6.963593 0.356628 0
M  V30 28 C -1.226397 -7.392184 -0.813196 0
M  V30 29 C -1.335181 -6.607775 -1.961407 0
M  V30 30 C -2.063652 -5.418771 -1.931632 0
M  V30 31 N -1.390165 -2.587710 -0.220169 0
M  V30 32 C -0.780551 -1.390234 0.034532 0
M  V30 33 H 0.254352 -2.177493 3.765319 0
M  V30 34 H -1.032786 -2.482447 2.513657 0
M  V30 35 H -0.813603 -3.554377 3.946498 0
M  V30 36 H 2.335366 -4.171581 1.562780 0
M  V30 37 H 2.321500 -2.631255 2.391384 0
M  V30 38 H 1.055795 -3.428354 -0.315796 0
M  V30 39 H 2.372912 -2.322366 0.070257 0
M  V30 40 H 3.125990 1.882534 1.314397 0
M  V30 41 H 4.383653 3.855282 2.114392 0
M  V30 42 H 3.506023 5.351408 2.454005 0
M  V30 43 H 4.209354 5.054506 0.788189 0
M  V30 44 H 1.677838 6.558634 1.250236 0
M  V30 45 H -0.683312 7.180586 0.657915 0
M  V30 46 H -2.317924 5.438679 0.096561 0
M  V30 47 H -1.642879 3.134824 0.117828 0
M  V30 48 H -3.325143 0.655316 -0.513387 0
M  V30 49 H -3.086467 -5.398744 1.243036 0
M  V30 50 H -1.793304 -7.548428 1.264270 0
M  V30 51 H -0.660994 -8.318958 -0.828858 0
M  V30 52 H -0.841955 -6.935941 -2.887314 0
M  V30 53 H -2.106847 -4.865012 -2.847769 0
M  V30 END ATOM
M  V30 BEGIN BOND
M  V30 1 1 1 2
M  V30 2 1 2 3
M  V30 3 1 3 4
M  V30 4 1 4 5
M  V30 5 1 5 6
M  V30 6 2 6 7
M  V30 7 1 6 8
M  V30 8 1 8 9
M  V30 9 2 9 10
M  V30 10 1 10 11
M  V30 11 1 11 12
M  V30 12 1 11 13
M  V30 13 2 13 14
M  V30 14 1 14 15
M  V30 15 2 15 16
M  V30 16 1 16 17
M  V30 17 2 17 18
M  V30 18 2 8 19
M  V30 19 1 19 20
M  V30 20 2 20 21
M  V30 21 1 21 22
M  V30 22 2 22 23
M  V30 23 1 23 24
M  V30 24 1 24 25
M  V30 25 2 25 26
M  V30 26 1 26 27
M  V30 27 2 27 28
M  V30 28 1 28 29
M  V30 29 2 29 30
M  V30 30 1 23 31
M  V30 31 2 31 32
M  V30 32 1 32 5
M  V30 33 1 18 9
M  V30 34 1 32 20
M  V30 35 1 18 13
M  V30 36 1 30 25
M  V30 37 1 1 33
M  V30 38 1 1 34
M  V30 39 1 1 35
M  V30 40 1 3 36
M  V30 41 1 3 37
M  V30 42 1 4 38
M  V30 43 1 4 39
M  V30 44 1 10 40
M  V30 45 1 12 41
M  V30 46 1 12 42
M  V30 47 1 12 43
M  V30 48 1 14 44
M  V30 49 1 15 45
M  V30 50 1 16 46
M  V30 51 1 17 47
M  V30 52 1 21 48
M  V30 53 1 26 49
M  V30 54 1 27 50
M  V30 55 1 28 51
M  V30 56 1 29 52
M  V30 57 1 30 53
M  V30 END BOND
M  V30 END CTAB
M  END
>  <Dataset>  (985) 
ChEMBL_Kinases

>  <Ligand_Instance>  (985) 
nan

>  <PDB_ID>  (985) 
nan

>  <Standardized_SMILES>  (985) 
COCCn1c(=O)c(-c2cn(C)c3ccccc23)nc2cnc(Oc3ccccc3)nc21

>  <Name>  (985) 
nan

>  <Pocket>  (985) 
nan

>  <ATP_Site>  (985) 
nan

>  <Peripheral>  (985) 
nan

>  <Num_H_Atoms_ProtBoundConf>  (985) 
nan

>  <Num_Resolved_Atoms>  (985) 
nan

>  <Num_Not_Resolved_Atoms>  (985) 
nan

$$$$
CHEMBL1609851
     RDKit          3D

  0  0  0  0  0  0  0  0  0  0999 V3000
M  V30 BEGIN CTAB
M  V30 COUNTS 57 61 0 0 0
M  V30 BEGIN ATOM
M  V30 1 C 5.284125 -6.650088 3.040277 0
M  V30 2 O 5.603876 -5.302090 3.381852 0
M  V30 3 C 5.042055 -4.283364 2.629219 0
M  V30 4 C 5.351384 -2.968698 2.962036 0
M  V30 5 C 4.770226 -1.995765 2.187024 0
M  V30 6 C 3.917036 -2.164747 1.118995 0
M  V30 7 N 3.364011 -1.088076 0.377642 0
M  V30 8 C 3.731525 0.271259 0.812458 0
M  V30 9 C 2.910695 1.321835 0.158439 0
M  V30 10 N 1.750734 0.790893 -0.566500 0
M  V30 11 C 0.440654 1.255107 -0.290115 0
M  V30 12 N 0.401996 2.427673 0.402117 0
M  V30 13 C -0.759569 3.016961 0.713892 0
M  V30 14 N -1.933133 2.471803 0.354398 0
M  V30 15 C -1.980083 1.315812 -0.329625 0
M  V30 16 C -0.774852 0.728178 -0.638798 0
M  V30 17 C -1.025713 -0.419500 -1.311476 0
M  V30 18 N -2.363897 -0.517473 -1.405721 0
M  V30 19 N -2.949779 0.518697 -0.819980 0
M  V30 20 C -4.346003 0.798487 -0.695533 0
M  V30 21 C -4.892369 2.057400 -0.852060 0
M  V30 22 C -6.270084 2.245624 -0.713042 0
M  V30 23 C -7.071903 1.151920 -0.417024 0
M  V30 24 C -8.553781 1.390969 -0.272288 0
M  V30 25 C -6.560009 -0.118037 -0.254335 0
M  V30 26 C -5.197505 -0.264183 -0.398997 0
M  V30 27 C -4.612972 -1.619839 -0.229861 0
M  V30 28 C 2.351266 -0.154563 -1.478374 0
M  V30 29 C 2.482389 -1.454724 -0.746369 0
M  V30 30 C 3.648926 -3.494020 0.838007 0
M  V30 31 C 4.193363 -4.529722 1.569550 0
M  V30 32 H 5.653362 -7.357433 3.812705 0
M  V30 33 H 5.668216 -6.962870 2.071478 0
M  V30 34 H 4.156641 -6.657821 2.992921 0
M  V30 35 H 6.008398 -2.760061 3.780249 0
M  V30 36 H 5.048414 -0.976660 2.495131 0
M  V30 37 H 4.802663 0.433869 0.576840 0
M  V30 38 H 3.632232 0.362385 1.912692 0
M  V30 39 H 2.509312 2.014313 0.919761 0
M  V30 40 H 3.540198 1.910436 -0.535345 0
M  V30 41 H -0.829828 3.935661 1.254982 0
M  V30 42 H -0.336892 -1.139203 -1.700757 0
M  V30 43 H -4.199157 2.855413 -1.080970 0
M  V30 44 H -6.680898 3.247423 -0.840469 0
M  V30 45 H -9.026441 0.461046 -0.680404 0
M  V30 46 H -8.869973 2.264302 -0.850274 0
M  V30 47 H -8.845857 1.443219 0.796886 0
M  V30 48 H -7.223436 -0.941388 -0.024077 0
M  V30 49 H -4.347155 -2.080542 -1.208240 0
M  V30 50 H -5.329105 -2.300778 0.272405 0
M  V30 51 H -3.708616 -1.563143 0.424233 0
M  V30 52 H 3.298286 0.176920 -1.944297 0
M  V30 53 H 1.649454 -0.214287 -2.364403 0
M  V30 54 H 1.554116 -1.914613 -0.448119 0
M  V30 55 H 3.056663 -2.183234 -1.375686 0
M  V30 56 H 2.992006 -3.742339 0.019044 0
M  V30 57 H 3.936806 -5.562099 1.288998 0
M  V30 END ATOM
M  V30 BEGIN BOND
M  V30 1 1 1 2
M  V30 2 1 2 3
M  V30 3 2 3 4
M  V30 4 1 4 5
M  V30 5 2 5 6
M  V30 6 1 6 7
M  V30 7 1 7 8
M  V30 8 1 8 9
M  V30 9 1 9 10
M  V30 10 1 10 11
M  V30 11 2 11 12
M  V30 12 1 12 13
M  V30 13 2 13 14
M  V30 14 1 14 15
M  V30 15 2 15 16
M  V30 16 1 16 17
M  V30 17 2 17 18
M  V30 18 1 18 19
M  V30 19 1 19 20
M  V30 20 2 20 21
M  V30 21 1 21 22
M  V30 22 2 22 23
M  V30 23 1 23 24
M  V30 24 1 23 25
M  V30 25 2 25 26
M  V30 26 1 26 27
M  V30 27 1 10 28
M  V30 28 1 28 29
M  V30 29 1 6 30
M  V30 30 2 30 31
M  V30 31 1 31 3
M  V30 32 1 29 7
M  V30 33 1 16 11
M  V30 34 1 26 20
M  V30 35 1 19 15
M  V30 36 1 1 32
M  V30 37 1 1 33
M  V30 38 1 1 34
M  V30 39 1 4 35
M  V30 40 1 5 36
M  V30 41 1 8 37
M  V30 42 1 8 38
M  V30 43 1 9 39
M  V30 44 1 9 40
M  V30 45 1 13 41
M  V30 46 1 17 42
M  V30 47 1 21 43
M  V30 48 1 22 44
M  V30 49 1 24 45
M  V30 50 1 24 46
M  V30 51 1 24 47
M  V30 52 1 25 48
M  V30 53 1 27 49
M  V30 54 1 27 50
M  V30 55 1 27 51
M  V30 56 1 28 52
M  V30 57 1 28 53
M  V30 58 1 29 54
M  V30 59 1 29 55
M  V30 60 1 30 56
M  V30 61 1 31 57
M  V30 END BOND
M  V30 END CTAB
M  END
>  <Dataset>  (986) 
ChEMBL_Kinases

>  <Ligand_Instance>  (986) 
nan

>  <PDB_ID>  (986) 
nan

>  <Standardized_SMILES>  (986) 
COc1ccc(N2CCN(c3ncnc4c3cnn4-c3ccc(C)cc3C)CC2)cc1

>  <Name>  (986) 
nan

>  <Pocket>  (986) 
nan

>  <ATP_Site>  (986) 
nan

>  <Peripheral>  (986) 
nan

>  <Num_H_Atoms_ProtBoundConf>  (986) 
nan

>  <Num_Resolved_Atoms>  (986) 
nan

>  <Num_Not_Resolved_Atoms>  (986) 
nan

$$$$
CHEMBL1609849
     RDKit          3D

  0  0  0  0  0  0  0  0  0  0999 V3000
M  V30 BEGIN CTAB
M  V30 COUNTS 49 51 0 0 0
M  V30 BEGIN ATOM
M  V30 1 C 3.201470 -2.858012 -0.878505 0
M  V30 2 O 2.014071 -2.226538 -1.358616 0
M  V30 3 C 2.118031 -1.012246 -2.019246 0
M  V30 4 C 2.339878 -1.142960 -3.370235 0
M  V30 5 Cl 2.474237 -2.669178 -4.185447 0
M  V30 6 C 2.463959 -0.000984 -4.129712 0
M  V30 7 C 2.357502 1.206369 -3.485296 0
M  V30 8 Cl 2.514007 2.664192 -4.437816 0
M  V30 9 C 2.136152 1.277067 -2.142183 0
M  V30 10 C 2.004048 0.164714 -1.339298 0
M  V30 11 C 1.728701 0.354342 0.043657 0
M  V30 12 O 1.683103 1.537226 0.517666 0
M  V30 13 N 1.472499 -0.524050 1.115495 0
M  V30 14 C 1.227897 -0.108056 2.436754 0
M  V30 15 C 2.356514 -0.071738 3.214691 0
M  V30 16 C 2.256799 0.326491 4.535652 0
M  V30 17 C 0.998530 0.674433 5.012767 0
M  V30 18 C -0.103408 0.620292 4.188203 0
M  V30 19 C -0.031816 0.228270 2.871712 0
M  V30 20 N -1.215658 0.207909 2.109492 0
M  V30 21 C -2.492131 0.663709 2.598297 0
M  V30 22 C -3.500401 -0.477140 2.679544 0
M  V30 23 N -3.358180 -1.353967 1.534534 0
M  V30 24 C -3.683612 -2.714074 1.483489 0
M  V30 25 C -3.465710 -3.437969 0.206921 0
M  V30 26 O -4.135333 -3.143736 2.580722 0
M  V30 27 C -2.819218 -0.632822 0.406530 0
M  V30 28 C -1.391787 -0.254916 0.751174 0
M  V30 29 H 3.916927 -2.094707 -0.558159 0
M  V30 30 H 3.586283 -3.622498 -1.567849 0
M  V30 31 H 2.876451 -3.405296 0.051722 0
M  V30 32 H 2.637659 -0.051983 -5.189931 0
M  V30 33 H 2.065208 2.276322 -1.713395 0
M  V30 34 H 1.484733 -1.532645 0.854566 0
M  V30 35 H 3.347637 -0.339015 2.862090 0
M  V30 36 H 3.143089 0.358577 5.159900 0
M  V30 37 H 1.006961 0.972843 6.052203 0
M  V30 38 H -0.975847 0.923997 4.744381 0
M  V30 39 H -2.512198 1.164106 3.554472 0
M  V30 40 H -2.931352 1.413565 1.867994 0
M  V30 41 H -3.439086 -0.999698 3.634801 0
M  V30 42 H -4.504892 -0.011775 2.607032 0
M  V30 43 H -4.000208 -2.915668 -0.617745 0
M  V30 44 H -3.807978 -4.489742 0.291846 0
M  V30 45 H -2.389380 -3.471985 -0.096994 0
M  V30 46 H -3.397634 0.296521 0.227696 0
M  V30 47 H -2.754400 -1.259476 -0.499304 0
M  V30 48 H -0.766960 -1.159553 0.624042 0
M  V30 49 H -1.142256 0.544032 0.015286 0
M  V30 END ATOM
M  V30 BEGIN BOND
M  V30 1 1 1 2
M  V30 2 1 2 3
M  V30 3 2 3 4
M  V30 4 1 4 5
M  V30 5 1 4 6
M  V30 6 2 6 7
M  V30 7 1 7 8
M  V30 8 1 7 9
M  V30 9 2 9 10
M  V30 10 1 10 11
M  V30 11 2 11 12
M  V30 12 1 11 13
M  V30 13 1 13 14
M  V30 14 2 14 15
M  V30 15 1 15 16
M  V30 16 2 16 17
M  V30 17 1 17 18
M  V30 18 2 18 19
M  V30 19 1 19 20
M  V30 20 1 20 21
M  V30 21 1 21 22
M  V30 22 1 22 23
M  V30 23 1 23 24
M  V30 24 1 24 25
M  V30 25 2 24 26
M  V30 26 1 23 27
M  V30 27 1 27 28
M  V30 28 1 10 3
M  V30 29 1 19 14
M  V30 30 1 28 20
M  V30 31 1 1 29
M  V30 32 1 1 30
M  V30 33 1 1 31
M  V30 34 1 6 32
M  V30 35 1 9 33
M  V30 36 1 13 34
M  V30 37 1 15 35
M  V30 38 1 16 36
M  V30 39 1 17 37
M  V30 40 1 18 38
M  V30 41 1 21 39
M  V30 42 1 21 40
M  V30 43 1 22 41
M  V30 44 1 22 42
M  V30 45 1 25 43
M  V30 46 1 25 44
M  V30 47 1 25 45
M  V30 48 1 27 46
M  V30 49 1 27 47
M  V30 50 1 28 48
M  V30 51 1 28 49
M  V30 END BOND
M  V30 END CTAB
M  END
>  <Dataset>  (987) 
ChEMBL_Kinases

>  <Ligand_Instance>  (987) 
nan

>  <PDB_ID>  (987) 
nan

>  <Standardized_SMILES>  (987) 
COc1c(Cl)cc(Cl)cc1C(=O)Nc1ccccc1N1CCN(C(C)=O)CC1

>  <Name>  (987) 
nan

>  <Pocket>  (987) 
nan

>  <ATP_Site>  (987) 
nan

>  <Peripheral>  (987) 
nan

>  <Num_H_Atoms_ProtBoundConf>  (987) 
nan

>  <Num_Resolved_Atoms>  (987) 
nan

>  <Num_Not_Resolved_Atoms>  (987) 
nan

$$$$
CHEMBL1609579
     RDKit          3D

  0  0  0  0  0  0  0  0  0  0999 V3000
M  V30 BEGIN CTAB
M  V30 COUNTS 37 40 0 0 0
M  V30 BEGIN ATOM
M  V30 1 C 1.077344 -3.841010 4.491619 0
M  V30 2 C 1.660724 -5.077444 4.201423 0
M  V30 3 N 2.330392 -5.241877 3.047727 0
M  V30 4 C 2.477949 -4.266526 2.132156 0
M  V30 5 C 1.917482 -3.023608 2.374993 0
M  V30 6 C 2.073036 -1.960179 1.386825 0
M  V30 7 C 3.232103 -1.935690 0.627297 0
M  V30 8 C 3.389690 -0.942053 -0.304683 0
M  V30 9 C 2.405054 0.014483 -0.477399 0
M  V30 10 N 2.561303 0.992176 -1.395236 0
M  V30 11 C 1.613070 1.940954 -1.584624 0
M  V30 12 N 0.508470 1.876071 -0.826097 0
M  V30 13 C 0.248856 0.963142 0.103392 0
M  V30 14 N -0.939907 0.966021 0.865364 0
M  V30 15 C -1.970474 1.963636 0.682796 0
M  V30 16 C -2.508933 1.865709 -0.665650 0
M  V30 17 C -3.537611 1.104136 -1.127450 0
M  V30 18 C -3.933030 1.131223 -2.433655 0
M  V30 19 C -3.096015 2.091763 -3.260345 0
M  V30 20 S -1.918543 2.768838 -2.044946 0
M  V30 21 C 1.240936 0.026613 0.254652 0
M  V30 22 C 1.121599 -0.986739 1.178851 0
M  V30 23 C 1.231152 -2.835918 3.544794 0
M  V30 24 H 0.534917 -3.702233 5.422683 0
M  V30 25 H 1.563290 -5.893085 4.918374 0
M  V30 26 H 3.033097 -4.500577 1.239523 0
M  V30 27 H 4.009471 -2.673563 0.748982 0
M  V30 28 H 4.266872 -0.841596 -0.947933 0
M  V30 29 H 1.669290 2.752646 -2.299594 0
M  V30 30 H -1.182606 0.282745 1.599861 0
M  V30 31 H -2.808516 1.896860 1.382623 0
M  V30 32 H -1.461867 2.962874 0.809758 0
M  V30 33 H -4.055390 0.457901 -0.431764 0
M  V30 34 H -4.737909 0.552952 -2.857650 0
M  V30 35 H -3.480059 2.089625 -4.429076 0
M  V30 36 H 0.260098 -1.069480 1.797463 0
M  V30 37 H 0.802312 -1.865215 3.717918 0
M  V30 END ATOM
M  V30 BEGIN BOND
M  V30 1 2 1 2
M  V30 2 1 2 3
M  V30 3 2 3 4
M  V30 4 1 4 5
M  V30 5 1 5 6
M  V30 6 2 6 7
M  V30 7 1 7 8
M  V30 8 2 8 9
M  V30 9 1 9 10
M  V30 10 2 10 11
M  V30 11 1 11 12
M  V30 12 2 12 13
M  V30 13 1 13 14
M  V30 14 1 14 15
M  V30 15 1 15 16
M  V30 16 2 16 17
M  V30 17 1 17 18
M  V30 18 2 18 19
M  V30 19 1 19 20
M  V30 20 1 13 21
M  V30 21 2 21 22
M  V30 22 2 5 23
M  V30 23 1 23 1
M  V30 24 1 22 6
M  V30 25 1 21 9
M  V30 26 1 20 16
M  V30 27 1 1 24
M  V30 28 1 2 25
M  V30 29 1 4 26
M  V30 30 1 7 27
M  V30 31 1 8 28
M  V30 32 1 11 29
M  V30 33 1 14 30
M  V30 34 1 15 31
M  V30 35 1 15 32
M  V30 36 1 17 33
M  V30 37 1 18 34
M  V30 38 1 19 35
M  V30 39 1 22 36
M  V30 40 1 23 37
M  V30 END BOND
M  V30 END CTAB
M  END
>  <Dataset>  (988) 
ChEMBL_Kinases

>  <Ligand_Instance>  (988) 
nan

>  <PDB_ID>  (988) 
nan

>  <Standardized_SMILES>  (988) 
c1cncc(-c2ccc3ncnc(NCc4cccs4)c3c2)c1

>  <Name>  (988) 
nan

>  <Pocket>  (988) 
nan

>  <ATP_Site>  (988) 
nan

>  <Peripheral>  (988) 
nan

>  <Num_H_Atoms_ProtBoundConf>  (988) 
nan

>  <Num_Resolved_Atoms>  (988) 
nan

>  <Num_Not_Resolved_Atoms>  (988) 
nan

$$$$
CHEMBL1609453
     RDKit          3D

  0  0  0  0  0  0  0  0  0  0999 V3000
M  V30 BEGIN CTAB
M  V30 COUNTS 37 39 0 0 0
M  V30 BEGIN ATOM
M  V30 1 C -0.505676 -3.136113 3.582387 0
M  V30 2 O 0.312508 -2.583209 2.565923 0
M  V30 3 C 1.134290 -3.358423 1.769773 0
M  V30 4 C 1.214375 -4.747244 1.914057 0
M  V30 5 C 2.047287 -5.486448 1.099284 0
M  V30 6 C 2.808590 -4.828706 0.129291 0
M  V30 7 C 2.753979 -3.446339 -0.042643 0
M  V30 8 C 1.909977 -2.734575 0.789275 0
M  V30 9 N 1.818580 -1.343905 0.657449 0
M  V30 10 C 0.626839 -0.596201 0.347246 0
M  V30 11 N 0.318991 0.556104 0.189434 0
M  V30 12 C -0.918675 0.921957 -0.099442 0
M  V30 13 C -1.169855 2.398783 -0.270658 0
M  V30 14 C -2.611197 2.639528 -0.584365 0
M  V30 15 C -0.231909 2.996309 -1.286836 0
M  V30 16 C 1.057643 3.092644 -0.497035 0
M  V30 17 C 0.578728 3.082190 0.926548 0
M  V30 18 O 1.514740 3.043501 1.763749 0
M  V30 19 O -0.814692 3.119916 0.896704 0
M  V30 20 C -1.960732 -0.072729 -0.237205 0
M  V30 21 S -0.923454 -1.600615 0.103820 0
M  V30 22 H 0.053731 -3.716175 4.326957 0
M  V30 23 H -1.261840 -3.841854 3.145337 0
M  V30 24 H -1.083300 -2.352716 4.108516 0
M  V30 25 H 0.604193 -5.233593 2.684608 0
M  V30 26 H 2.119749 -6.568284 1.200306 0
M  V30 27 H 3.435902 -5.439923 -0.475169 0
M  V30 28 H 3.364087 -3.002001 -0.806022 0
M  V30 29 H 2.649728 -0.747086 0.783180 0
M  V30 30 H -3.193863 2.146898 0.238226 0
M  V30 31 H -2.804301 3.729829 -0.433602 0
M  V30 32 H -2.937911 2.242358 -1.540797 0
M  V30 33 H -0.094747 2.380069 -2.187953 0
M  V30 34 H -0.578252 4.023298 -1.483034 0
M  V30 35 H 1.559466 4.070293 -0.642085 0
M  V30 36 H 1.727308 2.263672 -0.733685 0
M  V30 37 H -2.922638 0.172365 -0.458568 0
M  V30 END ATOM
M  V30 BEGIN BOND
M  V30 1 1 1 2
M  V30 2 1 2 3
M  V30 3 2 3 4
M  V30 4 1 4 5
M  V30 5 2 5 6
M  V30 6 1 6 7
M  V30 7 2 7 8
M  V30 8 1 8 9
M  V30 9 1 9 10
M  V30 10 2 10 11
M  V30 11 1 11 12
M  V30 12 1 12 13
M  V30 13 1 13 14
M  V30 14 1 13 15
M  V30 15 1 15 16
M  V30 16 1 16 17
M  V30 17 2 17 18
M  V30 18 1 17 19
M  V30 19 2 12 20
M  V30 20 1 20 21
M  V30 21 1 8 3
M  V30 22 1 21 10
M  V30 23 1 19 13
M  V30 24 1 1 22
M  V30 25 1 1 23
M  V30 26 1 1 24
M  V30 27 1 4 25
M  V30 28 1 5 26
M  V30 29 1 6 27
M  V30 30 1 7 28
M  V30 31 1 9 29
M  V30 32 1 14 30
M  V30 33 1 14 31
M  V30 34 1 14 32
M  V30 35 1 15 33
M  V30 36 1 15 34
M  V30 37 1 16 35
M  V30 38 1 16 36
M  V30 39 1 20 37
M  V30 END BOND
M  V30 END CTAB
M  END
>  <Dataset>  (989) 
ChEMBL_Kinases

>  <Ligand_Instance>  (989) 
nan

>  <PDB_ID>  (989) 
nan

>  <Standardized_SMILES>  (989) 
COc1ccccc1Nc1nc(C2(C)CCC(=O)O2)cs1

>  <Name>  (989) 
nan

>  <Pocket>  (989) 
nan

>  <ATP_Site>  (989) 
nan

>  <Peripheral>  (989) 
nan

>  <Num_H_Atoms_ProtBoundConf>  (989) 
nan

>  <Num_Resolved_Atoms>  (989) 
nan

>  <Num_Not_Resolved_Atoms>  (989) 
nan

$$$$
CHEMBL1609052
     RDKit          3D

  0  0  0  0  0  0  0  0  0  0999 V3000
M  V30 BEGIN CTAB
M  V30 COUNTS 24 25 0 0 0
M  V30 BEGIN ATOM
M  V30 1 C 2.240935 0.876022 2.797345 0
M  V30 2 C 1.741979 -0.496157 2.525198 0
M  V30 3 N 1.982343 -1.662123 3.156300 0
M  V30 4 N 1.314447 -2.633038 2.555044 0
M  V30 5 C 0.631452 -2.101608 1.523036 0
M  V30 6 N -0.165344 -2.929540 0.715329 0
M  V30 7 C 0.871586 -0.733250 1.460261 0
M  V30 8 C 0.281448 0.144638 0.453971 0
M  V30 9 C -0.922520 0.805325 0.592631 0
M  V30 10 C -1.462399 1.624208 -0.358528 0
M  V30 11 C -0.703991 1.759640 -1.515429 0
M  V30 12 C 0.503934 1.122355 -1.704132 0
M  V30 13 C 1.025145 0.293174 -0.710992 0
M  V30 14 H 3.092936 0.837920 3.510028 0
M  V30 15 H 1.448018 1.488973 3.308615 0
M  V30 16 H 2.540515 1.351583 1.841994 0
M  V30 17 H 1.399010 -3.606092 2.931112 0
M  V30 18 H 0.119547 -3.700361 0.050236 0
M  V30 19 H -1.188648 -3.066679 0.506101 0
M  V30 20 H -1.458304 0.641968 1.541165 0
M  V30 21 H -2.395768 2.123274 -0.225571 0
M  V30 22 H -1.084708 2.406799 -2.321297 0
M  V30 23 H 1.080241 1.241218 -2.614172 0
M  V30 24 H 1.960285 -0.196503 -0.864236 0
M  V30 END ATOM
M  V30 BEGIN BOND
M  V30 1 1 1 2
M  V30 2 2 2 3
M  V30 3 1 3 4
M  V30 4 1 4 5
M  V30 5 1 5 6
M  V30 6 2 5 7
M  V30 7 1 7 8
M  V30 8 2 8 9
M  V30 9 1 9 10
M  V30 10 2 10 11
M  V30 11 1 11 12
M  V30 12 2 12 13
M  V30 13 1 7 2
M  V30 14 1 13 8
M  V30 15 1 1 14
M  V30 16 1 1 15
M  V30 17 1 1 16
M  V30 18 1 4 17
M  V30 19 1 6 18
M  V30 20 1 6 19
M  V30 21 1 9 20
M  V30 22 1 10 21
M  V30 23 1 11 22
M  V30 24 1 12 23
M  V30 25 1 13 24
M  V30 END BOND
M  V30 END CTAB
M  END
>  <Dataset>  (990) 
ChEMBL_Kinases

>  <Ligand_Instance>  (990) 
nan

>  <PDB_ID>  (990) 
nan

>  <Standardized_SMILES>  (990) 
Cc1n[nH]c(N)c1-c1ccccc1

>  <Name>  (990) 
nan

>  <Pocket>  (990) 
nan

>  <ATP_Site>  (990) 
nan

>  <Peripheral>  (990) 
nan

>  <Num_H_Atoms_ProtBoundConf>  (990) 
nan

>  <Num_Resolved_Atoms>  (990) 
nan

>  <Num_Not_Resolved_Atoms>  (990) 
nan

$$$$
CHEMBL1608983
     RDKit          3D

  0  0  0  0  0  0  0  0  0  0999 V3000
M  V30 BEGIN CTAB
M  V30 COUNTS 40 42 0 0 0
M  V30 BEGIN ATOM
M  V30 1 C -1.199274 -1.070725 2.385819 0
M  V30 2 C -1.557619 -1.449206 0.954471 0
M  V30 3 O -0.927492 -2.478199 0.439765 0
M  V30 4 C -0.345580 -3.516167 -0.004387 0
M  V30 5 C -0.468681 -4.765347 0.615669 0
M  V30 6 C 0.147749 -5.883029 0.152130 0
M  V30 7 C 0.922596 -5.750990 -0.980950 0
M  V30 8 C 1.105433 -4.556070 -1.665216 0
M  V30 9 C 0.451423 -3.430996 -1.151884 0
M  V30 10 C 0.603713 -2.121447 -1.836486 0
M  V30 11 N -0.589207 -1.771068 -2.616930 0
M  V30 12 S -0.406304 -0.258465 -3.406680 0
M  V30 13 O -1.648603 -0.014132 -4.200865 0
M  V30 14 O 0.765817 -0.396047 -4.342127 0
M  V30 15 C -0.181149 1.031935 -2.274706 0
M  V30 16 C 1.008812 1.513782 -1.755464 0
M  V30 17 C 1.084812 2.549014 -0.859908 0
M  V30 18 C -0.054688 3.190318 -0.410336 0
M  V30 19 N 0.011215 4.194465 0.456945 0
M  V30 20 C -1.064177 4.748260 0.836205 0
M  V30 21 O -1.497884 5.756759 1.662378 0
M  V30 22 S -2.423742 3.777998 -0.116996 0
M  V30 23 C -1.265426 2.696257 -0.941691 0
M  V30 24 C -1.300025 1.688787 -1.809702 0
M  V30 25 H -0.262002 -1.616089 2.688094 0
M  V30 26 H -0.938803 0.001367 2.484634 0
M  V30 27 H -1.978342 -1.303866 3.112007 0
M  V30 28 H -1.540745 -0.478850 0.389589 0
M  V30 29 H -2.678213 -1.663217 1.012311 0
M  V30 30 H -1.075461 -4.885054 1.509521 0
M  V30 31 H 0.103155 -6.874889 0.569871 0
M  V30 32 H 1.442770 -6.583052 -1.411248 0
M  V30 33 H 1.724526 -4.493044 -2.555241 0
M  V30 34 H 0.713286 -1.288530 -1.111315 0
M  V30 35 H 1.437322 -2.193424 -2.540298 0
M  V30 36 H -0.833648 -2.538118 -3.263693 0
M  V30 37 H 1.895720 0.978374 -2.136664 0
M  V30 38 H 2.125696 2.774115 -0.575117 0
M  V30 39 H -2.418734 5.832745 2.048302 0
M  V30 40 H -2.320313 1.465745 -2.091825 0
M  V30 END ATOM
M  V30 BEGIN BOND
M  V30 1 1 1 2
M  V30 2 1 2 3
M  V30 3 1 3 4
M  V30 4 2 4 5
M  V30 5 1 5 6
M  V30 6 2 6 7
M  V30 7 1 7 8
M  V30 8 2 8 9
M  V30 9 1 9 10
M  V30 10 1 10 11
M  V30 11 1 11 12
M  V30 12 2 12 13
M  V30 13 2 12 14
M  V30 14 1 12 15
M  V30 15 2 15 16
M  V30 16 1 16 17
M  V30 17 2 17 18
M  V30 18 1 18 19
M  V30 19 2 19 20
M  V30 20 1 20 21
M  V30 21 1 20 22
M  V30 22 1 22 23
M  V30 23 2 23 24
M  V30 24 1 9 4
M  V30 25 1 24 15
M  V30 26 1 23 18
M  V30 27 1 1 25
M  V30 28 1 1 26
M  V30 29 1 1 27
M  V30 30 1 2 28
M  V30 31 1 2 29
M  V30 32 1 5 30
M  V30 33 1 6 31
M  V30 34 1 7 32
M  V30 35 1 8 33
M  V30 36 1 10 34
M  V30 37 1 10 35
M  V30 38 1 11 36
M  V30 39 1 16 37
M  V30 40 1 17 38
M  V30 41 1 21 39
M  V30 42 1 24 40
M  V30 END BOND
M  V30 END CTAB
M  END
>  <Dataset>  (991) 
ChEMBL_Kinases

>  <Ligand_Instance>  (991) 
nan

>  <PDB_ID>  (991) 
nan

>  <Standardized_SMILES>  (991) 
CCOc1ccccc1CNS(=O)(=O)c1ccc2nc(O)sc2c1

>  <Name>  (991) 
nan

>  <Pocket>  (991) 
nan

>  <ATP_Site>  (991) 
nan

>  <Peripheral>  (991) 
nan

>  <Num_H_Atoms_ProtBoundConf>  (991) 
nan

>  <Num_Resolved_Atoms>  (991) 
nan

>  <Num_Not_Resolved_Atoms>  (991) 
nan

$$$$
CHEMBL1608942
     RDKit          3D

  0  0  0  0  0  0  0  0  0  0999 V3000
M  V30 BEGIN CTAB
M  V30 COUNTS 56 58 0 0 0
M  V30 BEGIN ATOM
M  V30 1 C -3.874101 -2.369467 -3.200300 0
M  V30 2 C -2.894591 -1.441991 -2.485662 0
M  V30 3 N -1.964531 -0.953020 -3.458153 0
M  V30 4 C -1.568550 0.394458 -3.283220 0
M  V30 5 C -2.066332 1.025839 -1.992846 0
M  V30 6 C -1.185519 2.230753 -1.768213 0
M  V30 7 C -1.127856 3.161115 -2.931481 0
M  V30 8 C -1.159844 2.547896 -4.281661 0
M  V30 9 C -2.103908 1.349998 -4.357956 0
M  V30 10 S -0.590003 -2.005132 -3.574734 0
M  V30 11 O -1.076704 -3.416367 -3.872868 0
M  V30 12 O 0.284844 -1.594886 -4.715342 0
M  V30 13 C 0.260676 -2.089253 -2.064947 0
M  V30 14 C 1.299226 -1.223844 -1.725313 0
M  V30 15 C 1.988286 -1.277738 -0.524240 0
M  V30 16 C 1.625428 -2.256008 0.407141 0
M  V30 17 S 2.570190 -2.220063 1.883197 0
M  V30 18 O 3.977797 -1.803979 1.622421 0
M  V30 19 O 2.603350 -3.592599 2.469449 0
M  V30 20 N 1.782959 -1.178586 2.994590 0
M  V30 21 C 1.686306 0.182775 2.509719 0
M  V30 22 C 0.977759 0.941632 3.599953 0
M  V30 23 C -0.392364 1.071544 3.650824 0
M  V30 24 C -0.990031 1.772337 4.663666 0
M  V30 25 N -0.273368 2.359932 5.645276 0
M  V30 26 C 1.083784 2.251268 5.625667 0
M  V30 27 C 1.716522 1.539734 4.600124 0
M  V30 28 C 0.602480 -3.135499 0.114674 0
M  V30 29 C -0.054091 -3.040728 -1.097232 0
M  V30 30 H -3.430331 -2.743715 -4.160734 0
M  V30 31 H -4.823095 -1.845478 -3.449750 0
M  V30 32 H -4.169925 -3.218815 -2.539639 0
M  V30 33 H -2.445253 -2.008409 -1.650114 0
M  V30 34 H -3.497867 -0.599655 -2.115139 0
M  V30 35 H -0.461499 0.468270 -3.260709 0
M  V30 36 H -3.111034 1.402684 -2.158171 0
M  V30 37 H -1.989390 0.376788 -1.121518 0
M  V30 38 H -1.597018 2.785556 -0.899413 0
M  V30 39 H -0.202698 1.844030 -1.436458 0
M  V30 40 H -0.138353 3.698220 -2.840351 0
M  V30 41 H -1.891228 3.973684 -2.875634 0
M  V30 42 H -0.140573 2.093255 -4.454031 0
M  V30 43 H -1.411364 3.314943 -5.023323 0
M  V30 44 H -2.090319 0.911087 -5.348361 0
M  V30 45 H -3.120524 1.720879 -4.097126 0
M  V30 46 H 1.598540 -0.450416 -2.441670 0
M  V30 47 H 2.781207 -0.559058 -0.354963 0
M  V30 48 H 2.261030 -1.260787 3.894424 0
M  V30 49 H 1.146020 0.234126 1.561052 0
M  V30 50 H 2.718521 0.586762 2.457549 0
M  V30 51 H -0.983145 0.611580 2.879151 0
M  V30 52 H -2.080030 1.830862 4.635137 0
M  V30 53 H 1.723769 2.694121 6.376311 0
M  V30 54 H 2.798079 1.441837 4.567158 0
M  V30 55 H 0.380904 -3.854604 0.872526 0
M  V30 56 H -0.843556 -3.758597 -1.262132 0
M  V30 END ATOM
M  V30 BEGIN BOND
M  V30 1 1 1 2
M  V30 2 1 2 3
M  V30 3 1 3 4
M  V30 4 1 4 5
M  V30 5 1 5 6
M  V30 6 1 6 7
M  V30 7 1 7 8
M  V30 8 1 8 9
M  V30 9 1 3 10
M  V30 10 2 10 11
M  V30 11 2 10 12
M  V30 12 1 10 13
M  V30 13 2 13 14
M  V30 14 1 14 15
M  V30 15 2 15 16
M  V30 16 1 16 17
M  V30 17 2 17 18
M  V30 18 2 17 19
M  V30 19 1 17 20
M  V30 20 1 20 21
M  V30 21 1 21 22
M  V30 22 2 22 23
M  V30 23 1 23 24
M  V30 24 2 24 25
M  V30 25 1 25 26
M  V30 26 2 26 27
M  V30 27 1 16 28
M  V30 28 2 28 29
M  V30 29 1 9 4
M  V30 30 1 29 13
M  V30 31 1 27 22
M  V30 32 1 1 30
M  V30 33 1 1 31
M  V30 34 1 1 32
M  V30 35 1 2 33
M  V30 36 1 2 34
M  V30 37 1 4 35
M  V30 38 1 5 36
M  V30 39 1 5 37
M  V30 40 1 6 38
M  V30 41 1 6 39
M  V30 42 1 7 40
M  V30 43 1 7 41
M  V30 44 1 8 42
M  V30 45 1 8 43
M  V30 46 1 9 44
M  V30 47 1 9 45
M  V30 48 1 14 46
M  V30 49 1 15 47
M  V30 50 1 20 48
M  V30 51 1 21 49
M  V30 52 1 21 50
M  V30 53 1 23 51
M  V30 54 1 24 52
M  V30 55 1 26 53
M  V30 56 1 27 54
M  V30 57 1 28 55
M  V30 58 1 29 56
M  V30 END BOND
M  V30 END CTAB
M  END
>  <Dataset>  (992) 
ChEMBL_Kinases

>  <Ligand_Instance>  (992) 
nan

>  <PDB_ID>  (992) 
nan

>  <Standardized_SMILES>  (992) 
CCN(C1CCCCC1)S(=O)(=O)c1ccc(S(=O)(=O)NCc2ccncc2)cc1

>  <Name>  (992) 
nan

>  <Pocket>  (992) 
nan

>  <ATP_Site>  (992) 
nan

>  <Peripheral>  (992) 
nan

>  <Num_H_Atoms_ProtBoundConf>  (992) 
nan

>  <Num_Resolved_Atoms>  (992) 
nan

>  <Num_Not_Resolved_Atoms>  (992) 
nan

$$$$
CHEMBL1608868
     RDKit          3D

  0  0  0  0  0  0  0  0  0  0999 V3000
M  V30 BEGIN CTAB
M  V30 COUNTS 52 55 0 0 0
M  V30 BEGIN ATOM
M  V30 1 C 4.640655 -2.257458 6.526720 0
M  V30 2 O 5.887581 -2.128875 5.889336 0
M  V30 3 C 6.099720 -1.436218 4.704348 0
M  V30 4 C 7.365387 -1.370095 4.160824 0
M  V30 5 C 7.585757 -0.681759 2.980006 0
M  V30 6 C 6.473858 -0.072451 2.386486 0
M  V30 7 C 5.194675 -0.117337 2.900600 0
M  V30 8 C 4.117886 0.559501 2.186207 0
M  V30 9 O 4.450681 1.146994 1.126027 0
M  V30 10 N 2.784489 0.540353 2.680105 0
M  V30 11 C 1.691185 1.210725 1.981680 0
M  V30 12 N 0.945704 0.689928 1.088287 0
M  V30 13 C -0.009654 1.402509 0.532241 0
M  V30 14 C -0.847867 0.776439 -0.489605 0
M  V30 15 C -1.869876 1.457347 -1.119067 0
M  V30 16 C -2.698696 0.931335 -2.089425 0
M  V30 17 C -2.502889 -0.379500 -2.472290 0
M  V30 18 S -3.530420 -1.089243 -3.699177 0
M  V30 19 O -2.701509 -2.160271 -4.384540 0
M  V30 20 O -3.821189 -0.060593 -4.729285 0
M  V30 21 N -4.906505 -1.828913 -3.080320 0
M  V30 22 C -4.723142 -2.911588 -2.203058 0
M  V30 23 C -4.936773 -2.583620 -0.743800 0
M  V30 24 O -5.633415 -1.367522 -0.596790 0
M  V30 25 C -6.658183 -1.384719 -1.538868 0
M  V30 26 C -6.055365 -1.022682 -2.902317 0
M  V30 27 C -1.502998 -1.134510 -1.894409 0
M  V30 28 C -0.725565 -0.524662 -0.934527 0
M  V30 29 C -0.203249 2.726079 0.922734 0
M  V30 30 S 1.180591 2.845817 2.219721 0
M  V30 31 C 5.039802 -0.818335 4.079059 0
M  V30 32 H 3.793496 -2.409092 5.836899 0
M  V30 33 H 4.726850 -3.068735 7.283625 0
M  V30 34 H 4.444609 -1.291214 7.064322 0
M  V30 35 H 8.210764 -1.854434 4.645829 0
M  V30 36 H 8.568550 -0.619009 2.539590 0
M  V30 37 H 6.707562 0.451219 1.465236 0
M  V30 38 H 2.520836 0.049554 3.560888 0
M  V30 39 H -2.085683 2.487642 -0.873823 0
M  V30 40 H -3.484967 1.512761 -2.549103 0
M  V30 41 H -5.469385 -3.697109 -2.453063 0
M  V30 42 H -3.721216 -3.352136 -2.381716 0
M  V30 43 H -3.939811 -2.557847 -0.259245 0
M  V30 44 H -5.536274 -3.345455 -0.204911 0
M  V30 45 H -7.484915 -0.692510 -1.324092 0
M  V30 46 H -7.115704 -2.409876 -1.613457 0
M  V30 47 H -6.836337 -1.343657 -3.639881 0
M  V30 48 H -5.936711 0.055973 -3.007147 0
M  V30 49 H -1.311916 -2.162775 -2.161005 0
M  V30 50 H 0.070621 -1.134494 -0.477811 0
M  V30 51 H -0.954665 3.405283 0.536052 0
M  V30 52 H 4.067958 -0.877308 4.509598 0
M  V30 END ATOM
M  V30 BEGIN BOND
M  V30 1 1 1 2
M  V30 2 1 2 3
M  V30 3 2 3 4
M  V30 4 1 4 5
M  V30 5 2 5 6
M  V30 6 1 6 7
M  V30 7 1 7 8
M  V30 8 2 8 9
M  V30 9 1 8 10
M  V30 10 1 10 11
M  V30 11 2 11 12
M  V30 12 1 12 13
M  V30 13 1 13 14
M  V30 14 2 14 15
M  V30 15 1 15 16
M  V30 16 2 16 17
M  V30 17 1 17 18
M  V30 18 2 18 19
M  V30 19 2 18 20
M  V30 20 1 18 21
M  V30 21 1 21 22
M  V30 22 1 22 23
M  V30 23 1 23 24
M  V30 24 1 24 25
M  V30 25 1 25 26
M  V30 26 1 17 27
M  V30 27 2 27 28
M  V30 28 2 13 29
M  V30 29 1 29 30
M  V30 30 2 7 31
M  V30 31 1 31 3
M  V30 32 1 30 11
M  V30 33 1 28 14
M  V30 34 1 26 21
M  V30 35 1 1 32
M  V30 36 1 1 33
M  V30 37 1 1 34
M  V30 38 1 4 35
M  V30 39 1 5 36
M  V30 40 1 6 37
M  V30 41 1 10 38
M  V30 42 1 15 39
M  V30 43 1 16 40
M  V30 44 1 22 41
M  V30 45 1 22 42
M  V30 46 1 23 43
M  V30 47 1 23 44
M  V30 48 1 25 45
M  V30 49 1 25 46
M  V30 50 1 26 47
M  V30 51 1 26 48
M  V30 52 1 27 49
M  V30 53 1 28 50
M  V30 54 1 29 51
M  V30 55 1 31 52
M  V30 END BOND
M  V30 END CTAB
M  END
>  <Dataset>  (993) 
ChEMBL_Kinases

>  <Ligand_Instance>  (993) 
nan

>  <PDB_ID>  (993) 
nan

>  <Standardized_SMILES>  (993) 
COc1cccc(C(=O)Nc2nc(-c3ccc(S(=O)(=O)N4CCOCC4)cc3)cs2)c1

>  <Name>  (993) 
nan

>  <Pocket>  (993) 
nan

>  <ATP_Site>  (993) 
nan

>  <Peripheral>  (993) 
nan

>  <Num_H_Atoms_ProtBoundConf>  (993) 
nan

>  <Num_Resolved_Atoms>  (993) 
nan

>  <Num_Not_Resolved_Atoms>  (993) 
nan

$$$$
CHEMBL1608798
     RDKit          3D

  0  0  0  0  0  0  0  0  0  0999 V3000
M  V30 BEGIN CTAB
M  V30 COUNTS 40 43 0 0 0
M  V30 BEGIN ATOM
M  V30 1 C 2.381631 -7.237226 2.611437 0
M  V30 2 O 2.734032 -6.932258 1.279833 0
M  V30 3 C 2.350207 -5.738280 0.660962 0
M  V30 4 C 2.673507 -5.404982 -0.636933 0
M  V30 5 C 2.284164 -4.219473 -1.228785 0
M  V30 6 C 1.536899 -3.308364 -0.513218 0
M  V30 7 C 1.132612 -2.115897 -1.083227 0
M  V30 8 C 0.398382 -1.334379 -0.235121 0
M  V30 9 C -0.103655 -0.147565 -0.544400 0
M  V30 10 N -0.024072 0.624126 -1.796120 0
M  V30 11 C -0.794251 0.773509 -0.003438 0
M  V30 12 C -1.607266 1.800236 0.705128 0
M  V30 13 O -2.257906 2.221143 1.676739 0
M  V30 14 N -1.722346 2.933941 -0.180535 0
M  V30 15 C -2.469294 4.105553 0.253145 0
M  V30 16 C -1.903279 4.716939 1.494338 0
M  V30 17 C -0.909934 5.670180 1.462400 0
M  V30 18 C -0.571280 6.066807 2.762173 0
M  V30 19 C -1.412499 5.300169 3.530456 0
M  V30 20 O -2.148764 4.551542 2.784803 0
M  V30 21 S -0.890116 -0.195464 1.562885 0
M  V30 22 C 0.069271 -1.632924 1.026600 0
M  V30 23 N 0.499206 -2.843727 1.556096 0
M  V30 24 C 1.227256 -3.669611 0.785805 0
M  V30 25 C 1.593104 -4.835533 1.413016 0
M  V30 26 H 2.944544 -8.139642 2.914226 0
M  V30 27 H 1.284512 -7.329857 2.739751 0
M  V30 28 H 2.734326 -6.377791 3.231914 0
M  V30 29 H 3.260278 -6.104739 -1.224241 0
M  V30 30 H 2.524969 -3.941303 -2.237994 0
M  V30 31 H 1.381474 -1.847601 -2.099156 0
M  V30 32 H 0.767364 1.025768 -2.355057 0
M  V30 33 H 0.937911 0.913203 -2.154043 0
M  V30 34 H -1.298796 3.017806 -1.169337 0
M  V30 35 H -2.452699 4.864440 -0.541560 0
M  V30 36 H -3.532125 3.853180 0.520694 0
M  V30 37 H -0.443511 6.070516 0.570197 0
M  V30 38 H 0.151162 6.781312 3.117487 0
M  V30 39 H -1.464492 5.310315 4.631550 0
M  V30 40 H 1.342953 -5.092515 2.417360 0
M  V30 END ATOM
M  V30 BEGIN BOND
M  V30 1 1 1 2
M  V30 2 1 2 3
M  V30 3 2 3 4
M  V30 4 1 4 5
M  V30 5 2 5 6
M  V30 6 1 6 7
M  V30 7 2 7 8
M  V30 8 1 8 9
M  V30 9 1 9 10
M  V30 10 2 9 11
M  V30 11 1 11 12
M  V30 12 2 12 13
M  V30 13 1 12 14
M  V30 14 1 14 15
M  V30 15 1 15 16
M  V30 16 2 16 17
M  V30 17 1 17 18
M  V30 18 2 18 19
M  V30 19 1 19 20
M  V30 20 1 11 21
M  V30 21 1 21 22
M  V30 22 2 22 23
M  V30 23 1 23 24
M  V30 24 2 24 25
M  V30 25 1 25 3
M  V30 26 1 24 6
M  V30 27 1 22 8
M  V30 28 1 20 16
M  V30 29 1 1 26
M  V30 30 1 1 27
M  V30 31 1 1 28
M  V30 32 1 4 29
M  V30 33 1 5 30
M  V30 34 1 7 31
M  V30 35 1 10 32
M  V30 36 1 10 33
M  V30 37 1 14 34
M  V30 38 1 15 35
M  V30 39 1 15 36
M  V30 40 1 17 37
M  V30 41 1 18 38
M  V30 42 1 19 39
M  V30 43 1 25 40
M  V30 END BOND
M  V30 END CTAB
M  END
>  <Dataset>  (994) 
ChEMBL_Kinases

>  <Ligand_Instance>  (994) 
nan

>  <PDB_ID>  (994) 
nan

>  <Standardized_SMILES>  (994) 
COc1ccc2cc3c(N)c(C(=O)NCc4ccco4)sc3nc2c1

>  <Name>  (994) 
nan

>  <Pocket>  (994) 
nan

>  <ATP_Site>  (994) 
nan

>  <Peripheral>  (994) 
nan

>  <Num_H_Atoms_ProtBoundConf>  (994) 
nan

>  <Num_Resolved_Atoms>  (994) 
nan

>  <Num_Not_Resolved_Atoms>  (994) 
nan

$$$$
CHEMBL1608759
     RDKit          3D

  0  0  0  0  0  0  0  0  0  0999 V3000
M  V30 BEGIN CTAB
M  V30 COUNTS 37 38 0 0 0
M  V30 BEGIN ATOM
M  V30 1 C -1.089951 -3.977908 -0.271676 0
M  V30 2 C 0.314253 -3.940620 -0.799893 0
M  V30 3 N 1.262021 -3.361984 0.136401 0
M  V30 4 C 1.959072 -4.202132 1.100946 0
M  V30 5 C 1.216948 -4.336868 2.391032 0
M  V30 6 C 1.634192 -1.992821 0.255144 0
M  V30 7 O 2.447703 -1.464604 1.051939 0
M  V30 8 C 1.172045 -0.839975 -0.514387 0
M  V30 9 S 2.038062 0.606993 0.139220 0
M  V30 10 C 1.569747 2.102845 -0.712425 0
M  V30 11 N 2.286015 2.454316 -1.809342 0
M  V30 12 N 1.762627 3.593671 -2.277291 0
M  V30 13 N 0.754026 3.961107 -1.516757 0
M  V30 14 N 0.633107 3.057183 -0.563645 0
M  V30 15 C -0.271872 2.935559 0.529216 0
M  V30 16 C 0.192162 2.628854 1.807789 0
M  V30 17 C -0.617149 2.492960 2.920009 0
M  V30 18 C -1.970988 2.679171 2.720085 0
M  V30 19 F -2.804455 2.554857 3.787097 0
M  V30 20 C -2.488088 2.984392 1.477379 0
M  V30 21 Cl -4.208626 3.223579 1.210845 0
M  V30 22 C -1.645647 3.116121 0.368210 0
M  V30 23 H -1.468416 -2.960538 -0.110102 0
M  V30 24 H -1.694389 -4.455464 -1.086333 0
M  V30 25 H -1.168209 -4.638585 0.596948 0
M  V30 26 H 0.323837 -3.382623 -1.768904 0
M  V30 27 H 0.627305 -4.991736 -1.007515 0
M  V30 28 H 2.066240 -5.244613 0.680726 0
M  V30 29 H 2.982745 -3.876621 1.309235 0
M  V30 30 H 0.219538 -3.831080 2.403517 0
M  V30 31 H 1.794405 -3.850110 3.225192 0
M  V30 32 H 1.096171 -5.393770 2.736951 0
M  V30 33 H 0.088374 -0.713828 -0.598548 0
M  V30 34 H 1.526621 -0.986293 -1.573550 0
M  V30 35 H 1.258563 2.486973 1.941193 0
M  V30 36 H -0.177826 2.252344 3.882644 0
M  V30 37 H -2.022517 3.354823 -0.618380 0
M  V30 END ATOM
M  V30 BEGIN BOND
M  V30 1 1 1 2
M  V30 2 1 2 3
M  V30 3 1 3 4
M  V30 4 1 4 5
M  V30 5 1 3 6
M  V30 6 2 6 7
M  V30 7 1 6 8
M  V30 8 1 8 9
M  V30 9 1 9 10
M  V30 10 2 10 11
M  V30 11 1 11 12
M  V30 12 2 12 13
M  V30 13 1 13 14
M  V30 14 1 14 15
M  V30 15 2 15 16
M  V30 16 1 16 17
M  V30 17 2 17 18
M  V30 18 1 18 19
M  V30 19 1 18 20
M  V30 20 1 20 21
M  V30 21 2 20 22
M  V30 22 1 14 10
M  V30 23 1 22 15
M  V30 24 1 1 23
M  V30 25 1 1 24
M  V30 26 1 1 25
M  V30 27 1 2 26
M  V30 28 1 2 27
M  V30 29 1 4 28
M  V30 30 1 4 29
M  V30 31 1 5 30
M  V30 32 1 5 31
M  V30 33 1 5 32
M  V30 34 1 8 33
M  V30 35 1 8 34
M  V30 36 1 16 35
M  V30 37 1 17 36
M  V30 38 1 22 37
M  V30 END BOND
M  V30 END CTAB
M  END
>  <Dataset>  (995) 
ChEMBL_Kinases

>  <Ligand_Instance>  (995) 
nan

>  <PDB_ID>  (995) 
nan

>  <Standardized_SMILES>  (995) 
CCN(CC)C(=O)CSc1nnnn1-c1ccc(F)c(Cl)c1

>  <Name>  (995) 
nan

>  <Pocket>  (995) 
nan

>  <ATP_Site>  (995) 
nan

>  <Peripheral>  (995) 
nan

>  <Num_H_Atoms_ProtBoundConf>  (995) 
nan

>  <Num_Resolved_Atoms>  (995) 
nan

>  <Num_Not_Resolved_Atoms>  (995) 
nan

$$$$
CHEMBL1608727
     RDKit          3D

  0  0  0  0  0  0  0  0  0  0999 V3000
M  V30 BEGIN CTAB
M  V30 COUNTS 33 35 0 0 0
M  V30 BEGIN ATOM
M  V30 1 C -3.210133 -1.517175 2.185850 0
M  V30 2 N -2.296281 -2.147647 1.301550 0
M  V30 3 C -1.208157 -2.838682 1.840359 0
M  V30 4 C 0.162874 -2.493352 1.389822 0
M  V30 5 N 0.083496 -1.559180 0.288661 0
M  V30 6 C 0.868910 -0.404386 0.055233 0
M  V30 7 C 1.598992 -0.487177 -1.130814 0
M  V30 8 C 2.442955 0.544887 -1.547824 0
M  V30 9 C 2.537596 1.677932 -0.734058 0
M  V30 10 N 3.376345 2.773131 -1.089126 0 CHG=1 VAL=4
M  V30 11 O 4.410765 2.624884 -1.804800 0
M  V30 12 O 3.236514 4.104629 -0.749570 0 CHG=-1 VAL=1
M  V30 13 C 1.823771 1.779900 0.443156 0
M  V30 14 N 1.656312 2.652931 1.435229 0
M  V30 15 O 0.821339 2.181167 2.310836 0
M  V30 16 N 0.384756 0.999427 1.979717 0 CHG=1 VAL=4
M  V30 17 O -0.504550 0.211965 2.668764 0 CHG=-1 VAL=1
M  V30 18 C 1.003176 0.737068 0.815311 0
M  V30 19 C -0.927238 -1.830242 -0.718883 0
M  V30 20 C -2.267990 -1.739689 -0.041331 0
M  V30 21 H -2.706693 -1.379976 3.176611 0
M  V30 22 H -4.072667 -2.218368 2.348258 0
M  V30 23 H -3.564907 -0.539830 1.805103 0
M  V30 24 H -1.218110 -2.664501 2.959081 0
M  V30 25 H -1.384009 -3.953349 1.775461 0
M  V30 26 H 0.651261 -3.432232 0.988284 0
M  V30 27 H 0.844551 -2.126734 2.206464 0
M  V30 28 H 1.579481 -1.329328 -1.813386 0
M  V30 29 H 3.014795 0.498920 -2.460672 0
M  V30 30 H -0.731100 -2.876370 -1.053929 0
M  V30 31 H -0.855984 -1.185556 -1.606902 0
M  V30 32 H -2.614422 -0.690012 -0.142158 0
M  V30 33 H -2.994667 -2.355127 -0.645189 0
M  V30 END ATOM
M  V30 BEGIN BOND
M  V30 1 1 1 2
M  V30 2 1 2 3
M  V30 3 1 3 4
M  V30 4 1 4 5
M  V30 5 1 5 6
M  V30 6 2 6 7
M  V30 7 1 7 8
M  V30 8 2 8 9
M  V30 9 1 9 10
M  V30 10 2 10 11
M  V30 11 1 10 12
M  V30 12 1 9 13
M  V30 13 2 13 14
M  V30 14 1 14 15
M  V30 15 1 15 16
M  V30 16 1 16 17
M  V30 17 2 16 18
M  V30 18 1 5 19
M  V30 19 1 19 20
M  V30 20 1 20 2
M  V30 21 1 18 6
M  V30 22 1 18 13
M  V30 23 1 1 21
M  V30 24 1 1 22
M  V30 25 1 1 23
M  V30 26 1 3 24
M  V30 27 1 3 25
M  V30 28 1 4 26
M  V30 29 1 4 27
M  V30 30 1 7 28
M  V30 31 1 8 29
M  V30 32 1 19 30
M  V30 33 1 19 31
M  V30 34 1 20 32
M  V30 35 1 20 33
M  V30 END BOND
M  V30 END CTAB
M  END
>  <Dataset>  (996) 
ChEMBL_Kinases

>  <Ligand_Instance>  (996) 
nan

>  <PDB_ID>  (996) 
nan

>  <Standardized_SMILES>  (996) 
CN1CCN(c2ccc([N+](=O)[O-])c3no[n+]([O-])c23)CC1

>  <Name>  (996) 
nan

>  <Pocket>  (996) 
nan

>  <ATP_Site>  (996) 
nan

>  <Peripheral>  (996) 
nan

>  <Num_H_Atoms_ProtBoundConf>  (996) 
nan

>  <Num_Resolved_Atoms>  (996) 
nan

>  <Num_Not_Resolved_Atoms>  (996) 
nan

$$$$
CHEMBL1608656
     RDKit          3D

  0  0  0  0  0  0  0  0  0  0999 V3000
M  V30 BEGIN CTAB
M  V30 COUNTS 47 49 0 0 0
M  V30 BEGIN ATOM
M  V30 1 C 0.547677 -3.872678 3.641915 0
M  V30 2 C 0.916190 -2.883489 2.569185 0
M  V30 3 C 2.145586 -3.108352 1.937537 0
M  V30 4 C 2.625701 -2.292820 0.937539 0
M  V30 5 C 1.845443 -1.220838 0.564642 0
M  V30 6 C 2.345855 -0.382442 -0.508715 0
M  V30 7 N 2.699899 -1.106967 -1.612679 0
M  V30 8 N 3.177581 -0.540113 -2.691883 0
M  V30 9 C 3.363647 0.775559 -2.820814 0
M  V30 10 O 3.867290 1.414618 -3.949889 0
M  V30 11 C 3.026115 1.562925 -1.739607 0
M  V30 12 C 3.165795 2.937015 -1.700903 0
M  V30 13 C 2.808947 3.655290 -0.555534 0
M  V30 14 C 2.302416 3.019517 0.584011 0
M  V30 15 C 2.165271 1.651250 0.539280 0
M  V30 16 C 2.522826 0.978866 -0.597988 0
M  V30 17 C 0.647503 -1.024682 1.198933 0
M  V30 18 C 0.113848 -1.797002 2.196880 0
M  V30 19 S -1.322992 -1.698543 3.146939 0
M  V30 20 O -1.850523 -3.099377 3.415918 0
M  V30 21 O -0.844905 -1.245329 4.542804 0
M  V30 22 N -2.507100 -0.631606 2.679873 0
M  V30 23 C -3.214492 -0.710562 1.489514 0
M  V30 24 C -2.539348 -0.657492 0.170002 0
M  V30 25 C -4.164818 0.524712 1.486702 0
M  V30 26 C -4.171841 -1.910172 1.431932 0
M  V30 27 H 1.474277 -4.373575 3.982214 0
M  V30 28 H -0.114754 -4.662584 3.277106 0
M  V30 29 H 0.162630 -3.348496 4.555109 0
M  V30 30 H 2.781106 -3.951695 2.217367 0
M  V30 31 H 3.572280 -2.473072 0.456276 0
M  V30 32 H 3.299229 2.068857 -4.492276 0
M  V30 33 H 3.556987 3.439546 -2.576953 0
M  V30 34 H 2.944533 4.746267 -0.590085 0
M  V30 35 H 2.067790 3.692088 1.397467 0
M  V30 36 H 1.787082 1.187312 1.436021 0
M  V30 37 H 0.021598 -0.192335 0.942750 0
M  V30 38 H -3.160648 -0.457097 3.469881 0
M  V30 39 H -2.085512 0.348544 -0.003887 0
M  V30 40 H -3.335453 -0.705327 -0.640378 0
M  V30 41 H -1.878803 -1.503475 -0.075548 0
M  V30 42 H -4.619641 0.605344 0.469385 0
M  V30 43 H -3.473373 1.391306 1.567083 0
M  V30 44 H -4.884983 0.456061 2.303320 0
M  V30 45 H -3.569754 -2.846046 1.356920 0
M  V30 46 H -4.904476 -1.901439 2.240139 0
M  V30 47 H -4.721601 -1.801746 0.474093 0
M  V30 END ATOM
M  V30 BEGIN BOND
M  V30 1 1 1 2
M  V30 2 2 2 3
M  V30 3 1 3 4
M  V30 4 2 4 5
M  V30 5 1 5 6
M  V30 6 2 6 7
M  V30 7 1 7 8
M  V30 8 2 8 9
M  V30 9 1 9 10
M  V30 10 1 9 11
M  V30 11 2 11 12
M  V30 12 1 12 13
M  V30 13 2 13 14
M  V30 14 1 14 15
M  V30 15 2 15 16
M  V30 16 1 5 17
M  V30 17 2 17 18
M  V30 18 1 18 19
M  V30 19 2 19 20
M  V30 20 2 19 21
M  V30 21 1 19 22
M  V30 22 1 22 23
M  V30 23 1 23 24
M  V30 24 1 23 25
M  V30 25 1 23 26
M  V30 26 1 18 2
M  V30 27 1 16 6
M  V30 28 1 16 11
M  V30 29 1 1 27
M  V30 30 1 1 28
M  V30 31 1 1 29
M  V30 32 1 3 30
M  V30 33 1 4 31
M  V30 34 1 10 32
M  V30 35 1 12 33
M  V30 36 1 13 34
M  V30 37 1 14 35
M  V30 38 1 15 36
M  V30 39 1 17 37
M  V30 40 1 22 38
M  V30 41 1 24 39
M  V30 42 1 24 40
M  V30 43 1 24 41
M  V30 44 1 25 42
M  V30 45 1 25 43
M  V30 46 1 25 44
M  V30 47 1 26 45
M  V30 48 1 26 46
M  V30 49 1 26 47
M  V30 END BOND
M  V30 END CTAB
M  END
>  <Dataset>  (997) 
ChEMBL_Kinases

>  <Ligand_Instance>  (997) 
nan

>  <PDB_ID>  (997) 
nan

>  <Standardized_SMILES>  (997) 
Cc1ccc(-c2nnc(O)c3ccccc23)cc1S(=O)(=O)NC(C)(C)C

>  <Name>  (997) 
nan

>  <Pocket>  (997) 
nan

>  <ATP_Site>  (997) 
nan

>  <Peripheral>  (997) 
nan

>  <Num_H_Atoms_ProtBoundConf>  (997) 
nan

>  <Num_Resolved_Atoms>  (997) 
nan

>  <Num_Not_Resolved_Atoms>  (997) 
nan

$$$$
CHEMBL1608556
     RDKit          3D

  0  0  0  0  0  0  0  0  0  0999 V3000
M  V30 BEGIN CTAB
M  V30 COUNTS 41 42 0 0 0
M  V30 BEGIN ATOM
M  V30 1 C -2.309306 -1.016586 2.811536 0
M  V30 2 C -1.401918 -2.201257 2.971727 0
M  V30 3 O -0.087710 -1.981957 2.601008 0
M  V30 4 C -0.021610 -1.643135 1.289505 0 CFG=2
M  V30 5 O 0.567745 -2.702849 0.492478 0
M  V30 6 C 0.657045 -2.454043 -0.893569 0
M  V30 7 C 0.947175 -3.500421 -1.866582 0
M  V30 8 O 0.994665 -3.126514 -3.063542 0
M  V30 9 O 1.141255 -4.779053 -1.416025 0
M  V30 10 C 0.464173 -1.193634 -1.321751 0
M  V30 11 C 0.158400 -0.012014 -0.445264 0 CFG=2
M  V30 12 C 0.748353 1.247136 -0.952393 0
M  V30 13 C 0.276283 1.655763 -2.338055 0
M  V30 14 C -0.254437 2.403078 -1.171777 0
M  V30 15 C 0.736085 -0.421741 0.918706 0 CFG=1
M  V30 16 C 0.649756 0.744096 1.823703 0
M  V30 17 C 1.116263 0.570373 3.218426 0
M  V30 18 C 2.572548 0.187132 3.355056 0
M  V30 19 O 2.845620 -1.020044 2.717383 0
M  V30 20 H -2.689716 -0.850498 1.790608 0
M  V30 21 H -1.847328 -0.092895 3.229032 0
M  V30 22 H -3.245529 -1.139014 3.436058 0
M  V30 23 H -1.778574 -3.030658 2.302108 0
M  V30 24 H -1.491028 -2.528399 4.028189 0
M  V30 25 H -1.069972 -1.605001 0.868675 0
M  V30 26 H 1.085358 -5.532318 -2.102528 0
M  V30 27 H 0.517197 -0.924838 -2.375961 0
M  V30 28 H -0.927532 0.062904 -0.343940 0
M  V30 29 H 1.777640 1.532935 -0.662536 0
M  V30 30 H 0.992474 2.244841 -2.967664 0
M  V30 31 H -0.432223 1.008998 -2.869671 0
M  V30 32 H 0.080617 3.428295 -0.948820 0
M  V30 33 H -1.306235 2.218182 -0.839395 0
M  V30 34 H 1.784165 -0.718664 0.671316 0
M  V30 35 H -0.371850 1.144643 1.829429 0
M  V30 36 H 1.323754 1.540187 1.377501 0
M  V30 37 H 1.043620 1.583825 3.702384 0
M  V30 38 H 0.457182 -0.069030 3.828413 0
M  V30 39 H 2.832824 0.015623 4.420666 0
M  V30 40 H 3.250530 0.984629 3.017404 0
M  V30 41 H 3.767075 -1.124131 2.433245 0
M  V30 END ATOM
M  V30 BEGIN BOND
M  V30 1 1 1 2
M  V30 2 1 2 3
M  V30 3 1 3 4
M  V30 4 1 4 5
M  V30 5 1 5 6
M  V30 6 1 6 7
M  V30 7 2 7 8
M  V30 8 1 7 9
M  V30 9 2 6 10
M  V30 10 1 10 11
M  V30 11 1 11 12
M  V30 12 1 12 13
M  V30 13 1 13 14
M  V30 14 1 11 15
M  V30 15 1 15 16
M  V30 16 1 16 17
M  V30 17 1 17 18
M  V30 18 1 18 19
M  V30 19 1 15 4
M  V30 20 1 14 12
M  V30 21 1 1 20
M  V30 22 1 1 21
M  V30 23 1 1 22
M  V30 24 1 2 23
M  V30 25 1 2 24
M  V30 26 1 4 25 CFG=3
M  V30 27 1 9 26
M  V30 28 1 10 27
M  V30 29 1 11 28 CFG=1
M  V30 30 1 12 29
M  V30 31 1 13 30
M  V30 32 1 13 31
M  V30 33 1 14 32
M  V30 34 1 14 33
M  V30 35 1 15 34 CFG=3
M  V30 36 1 16 35
M  V30 37 1 16 36
M  V30 38 1 17 37
M  V30 39 1 17 38
M  V30 40 1 18 39
M  V30 41 1 18 40
M  V30 42 1 19 41
M  V30 END BOND
M  V30 END CTAB
M  END
>  <Dataset>  (998) 
ChEMBL_Kinases

>  <Ligand_Instance>  (998) 
nan

>  <PDB_ID>  (998) 
nan

>  <Standardized_SMILES>  (998) 
CCO[C@@H]1OC(C(=O)O)=C[C@H](C2CC2)[C@H]1CCCO

>  <Name>  (998) 
nan

>  <Pocket>  (998) 
nan

>  <ATP_Site>  (998) 
nan

>  <Peripheral>  (998) 
nan

>  <Num_H_Atoms_ProtBoundConf>  (998) 
nan

>  <Num_Resolved_Atoms>  (998) 
nan

>  <Num_Not_Resolved_Atoms>  (998) 
nan

$$$$
CHEMBL1607188
     RDKit          3D

  0  0  0  0  0  0  0  0  0  0999 V3000
M  V30 BEGIN CTAB
M  V30 COUNTS 50 51 0 0 0
M  V30 BEGIN ATOM
M  V30 1 C 3.628976 -3.500229 0.501676 0
M  V30 2 O 3.377693 -2.168428 0.150127 0
M  V30 3 C 4.042486 -1.456661 -0.786912 0
M  V30 4 O 4.786963 -2.434239 -1.054365 0
M  V30 5 C 4.019592 -0.122139 -1.353374 0
M  V30 6 C 4.987418 0.025454 -2.326016 0
M  V30 7 C 5.153121 1.214966 -3.005487 0
M  V30 8 C 4.317595 2.264502 -2.684347 0
M  V30 9 C 3.368595 2.062171 -1.705244 0
M  V30 10 C 3.167316 0.899553 -1.004259 0
M  V30 11 N 2.218510 0.666929 -0.011996 0
M  V30 12 C 1.247474 1.520091 0.522614 0
M  V30 13 O 1.157514 2.697386 0.088134 0
M  V30 14 C 0.257994 1.241090 1.573467 0
M  V30 15 N 0.265704 -0.038167 2.130050 0
M  V30 16 C 0.718034 -0.188796 3.478055 0
M  V30 17 S -0.697049 -1.250384 1.518173 0
M  V30 18 O -0.401531 -1.590956 0.062561 0
M  V30 19 O -0.468768 -2.492103 2.373010 0
M  V30 20 C -2.421518 -0.980234 1.587286 0
M  V30 21 C -3.146011 0.071575 2.104154 0
M  V30 22 C -4.520009 0.064708 2.052067 0
M  V30 23 C -5.145414 1.271203 2.651861 0
M  V30 24 C -5.254817 -0.959909 1.497947 0
M  V30 25 C -4.528128 -1.998166 0.988445 0
M  V30 26 C -3.149659 -2.035190 1.017929 0
M  V30 27 O -2.578300 -3.177370 0.449401 0
M  V30 28 C -3.298765 -4.231489 -0.119250 0
M  V30 29 H 3.070927 -3.686549 1.461204 0
M  V30 30 H 4.706217 -3.723937 0.661629 0
M  V30 31 H 3.261658 -4.244951 -0.217960 0
M  V30 32 H 5.685453 -0.733925 -2.646054 0
M  V30 33 H 5.897670 1.372711 -3.773222 0
M  V30 34 H 4.421071 3.209492 -3.197728 0
M  V30 35 H 2.749778 2.920535 -1.503096 0
M  V30 36 H 2.140326 -0.254804 0.467517 0
M  V30 37 H 0.357066 2.005983 2.362504 0
M  V30 38 H -0.744031 1.435048 1.085119 0
M  V30 39 H -0.150700 -0.135858 4.186088 0
M  V30 40 H 1.365091 0.678059 3.731046 0
M  V30 41 H 1.299579 -1.118316 3.659692 0
M  V30 42 H -2.515565 0.832991 2.524860 0
M  V30 43 H -4.606107 1.574691 3.564100 0
M  V30 44 H -5.067286 2.120720 1.938445 0
M  V30 45 H -6.196201 1.083045 2.910454 0
M  V30 46 H -6.330573 -0.852996 1.515036 0
M  V30 47 H -5.117300 -2.817127 0.545610 0
M  V30 48 H -2.603009 -5.085034 -0.240252 0
M  V30 49 H -4.103142 -4.608282 0.560875 0
M  V30 50 H -3.724418 -3.988104 -1.122309 0
M  V30 END ATOM
M  V30 BEGIN BOND
M  V30 1 1 1 2
M  V30 2 1 2 3
M  V30 3 2 3 4
M  V30 4 1 3 5
M  V30 5 2 5 6
M  V30 6 1 6 7
M  V30 7 2 7 8
M  V30 8 1 8 9
M  V30 9 2 9 10
M  V30 10 1 10 11
M  V30 11 1 11 12
M  V30 12 2 12 13
M  V30 13 1 12 14
M  V30 14 1 14 15
M  V30 15 1 15 16
M  V30 16 1 15 17
M  V30 17 2 17 18
M  V30 18 2 17 19
M  V30 19 1 17 20
M  V30 20 2 20 21
M  V30 21 1 21 22
M  V30 22 1 22 23
M  V30 23 2 22 24
M  V30 24 1 24 25
M  V30 25 2 25 26
M  V30 26 1 26 27
M  V30 27 1 27 28
M  V30 28 1 10 5
M  V30 29 1 26 20
M  V30 30 1 1 29
M  V30 31 1 1 30
M  V30 32 1 1 31
M  V30 33 1 6 32
M  V30 34 1 7 33
M  V30 35 1 8 34
M  V30 36 1 9 35
M  V30 37 1 11 36
M  V30 38 1 14 37
M  V30 39 1 14 38
M  V30 40 1 16 39
M  V30 41 1 16 40
M  V30 42 1 16 41
M  V30 43 1 21 42
M  V30 44 1 23 43
M  V30 45 1 23 44
M  V30 46 1 23 45
M  V30 47 1 24 46
M  V30 48 1 25 47
M  V30 49 1 28 48
M  V30 50 1 28 49
M  V30 51 1 28 50
M  V30 END BOND
M  V30 END CTAB
M  END
>  <Dataset>  (999) 
ChEMBL_Kinases

>  <Ligand_Instance>  (999) 
nan

>  <PDB_ID>  (999) 
nan

>  <Standardized_SMILES>  (999) 
COC(=O)c1ccccc1NC(=O)CN(C)S(=O)(=O)c1cc(C)ccc1OC

>  <Name>  (999) 
nan

>  <Pocket>  (999) 
nan

>  <ATP_Site>  (999) 
nan

>  <Peripheral>  (999) 
nan

>  <Num_H_Atoms_ProtBoundConf>  (999) 
nan

>  <Num_Resolved_Atoms>  (999) 
nan

>  <Num_Not_Resolved_Atoms>  (999) 
nan

$$$$
