CHEMBL3422069
     RDKit          3D

  0  0  0  0  0  0  0  0  0  0999 V3000
M  V30 BEGIN CTAB
M  V30 COUNTS 71 76 0 0 0
M  V30 BEGIN ATOM
M  V30 1 C 2.502519 -0.988290 7.559369 0
M  V30 2 N 2.520894 -2.061771 6.619429 0
M  V30 3 C 3.626800 -2.111658 5.730767 0
M  V30 4 C 3.471767 -1.336001 4.466604 0
M  V30 5 C 2.078886 -1.342226 3.915266 0
M  V30 6 O 1.644659 -0.025209 3.802371 0
M  V30 7 C 1.439684 0.716272 2.679697 0
M  V30 8 C 0.989536 2.012469 2.917662 0
M  V30 9 C 0.728054 2.911711 1.896196 0
M  V30 10 C 0.906898 2.550600 0.577536 0
M  V30 11 C 0.681304 3.395049 -0.589000 0
M  V30 12 N 1.109719 4.683471 -0.684399 0
M  V30 13 N 0.764725 5.198352 -1.858776 0
M  V30 14 C 0.095383 4.287840 -2.598154 0
M  V30 15 C -0.492089 4.223445 -3.843899 0
M  V30 16 C -1.125464 3.063830 -4.307122 0
M  V30 17 C -1.166462 1.949498 -3.497019 0
M  V30 18 C -1.834934 0.776447 -4.037916 0
M  V30 19 O -2.278655 0.836649 -5.210000 0
M  V30 20 N -1.964958 -0.388391 -3.235755 0
M  V30 21 C -2.540498 -1.689643 -3.424002 0
M  V30 22 C -3.759249 -1.759925 -2.583254 0
M  V30 23 C -5.009462 -2.207171 -2.934831 0
M  V30 24 C -6.052360 -2.208912 -2.041994 0
M  V30 25 S -5.299980 -1.524007 -0.502845 0
M  V30 26 C -3.679720 -1.301786 -1.189364 0
M  V30 27 C -1.679283 -2.841738 -3.195068 0
M  V30 28 C -2.453261 -4.120562 -3.445464 0
M  V30 29 C -1.700351 -5.200923 -2.690634 0
M  V30 30 C -0.611863 -4.472740 -1.933796 0
M  V30 31 C -1.258766 -3.089522 -1.751970 0
M  V30 32 C -0.571142 2.045237 -2.259603 0
M  V30 33 C 0.050740 3.165127 -1.790944 0
M  V30 34 C 1.358543 1.251442 0.312111 0
M  V30 35 C 1.609676 0.380865 1.351726 0
M  V30 36 C 1.123051 -2.259319 4.595461 0
M  V30 37 C 1.261430 -2.410080 6.059659 0
M  V30 38 H 2.383885 -1.434940 8.581771 0
M  V30 39 H 3.398806 -0.361169 7.600200 0
M  V30 40 H 1.576020 -0.380857 7.386887 0
M  V30 41 H 3.959679 -3.160137 5.506016 0
M  V30 42 H 4.508873 -1.678913 6.284648 0
M  V30 43 H 4.233427 -1.766550 3.748922 0
M  V30 44 H 3.838188 -0.285500 4.649254 0
M  V30 45 H 2.183205 -1.719625 2.854088 0
M  V30 46 H 0.806583 2.427936 3.905517 0
M  V30 47 H 0.378340 3.920579 2.065501 0
M  V30 48 H 0.968061 6.169963 -2.194558 0
M  V30 49 H -0.441877 5.115278 -4.453637 0
M  V30 50 H -1.545269 3.125565 -5.282353 0
M  V30 51 H -1.610850 -0.480008 -2.258677 0
M  V30 52 H -2.890333 -1.716083 -4.485008 0
M  V30 53 H -5.171818 -2.564598 -3.941402 0
M  V30 54 H -7.035428 -2.517398 -2.180321 0
M  V30 55 H -2.829834 -0.919720 -0.698382 0
M  V30 56 H -0.808525 -2.938656 -3.881788 0
M  V30 57 H -3.502202 -4.090249 -3.175539 0
M  V30 58 H -2.417856 -4.417124 -4.529401 0
M  V30 59 H -2.412819 -5.640383 -1.962846 0
M  V30 60 H -1.299414 -5.995564 -3.366077 0
M  V30 61 H 0.234951 -4.299057 -2.626605 0
M  V30 62 H -0.327766 -4.928644 -0.988352 0
M  V30 63 H -0.568370 -2.355585 -1.348517 0
M  V30 64 H -2.163372 -3.219694 -1.141644 0
M  V30 65 H -0.612755 1.173550 -1.641931 0
M  V30 66 H 1.547337 0.825351 -0.685258 0
M  V30 67 H 1.955251 -0.616173 1.180990 0
M  V30 68 H 1.177274 -3.275393 4.117776 0
M  V30 69 H 0.092091 -1.906521 4.368457 0
M  V30 70 H 0.478482 -1.850712 6.648766 0
M  V30 71 H 1.069539 -3.476832 6.335057 0
M  V30 END ATOM
M  V30 BEGIN BOND
M  V30 1 1 1 2
M  V30 2 1 2 3
M  V30 3 1 3 4
M  V30 4 1 4 5
M  V30 5 1 5 6
M  V30 6 1 6 7
M  V30 7 2 7 8
M  V30 8 1 8 9
M  V30 9 2 9 10
M  V30 10 1 10 11
M  V30 11 2 11 12
M  V30 12 1 12 13
M  V30 13 1 13 14
M  V30 14 2 14 15
M  V30 15 1 15 16
M  V30 16 2 16 17
M  V30 17 1 17 18
M  V30 18 2 18 19
M  V30 19 1 18 20
M  V30 20 1 20 21
M  V30 21 1 21 22
M  V30 22 1 22 23
M  V30 23 2 23 24
M  V30 24 1 24 25
M  V30 25 1 25 26
M  V30 26 1 21 27
M  V30 27 1 27 28
M  V30 28 1 28 29
M  V30 29 1 29 30
M  V30 30 1 30 31
M  V30 31 1 17 32
M  V30 32 2 32 33
M  V30 33 1 10 34
M  V30 34 2 34 35
M  V30 35 1 5 36
M  V30 36 1 36 37
M  V30 37 1 37 2
M  V30 38 1 35 7
M  V30 39 1 33 11
M  V30 40 1 33 14
M  V30 41 2 26 22
M  V30 42 1 31 27
M  V30 43 1 1 38
M  V30 44 1 1 39
M  V30 45 1 1 40
M  V30 46 1 3 41
M  V30 47 1 3 42
M  V30 48 1 4 43
M  V30 49 1 4 44
M  V30 50 1 5 45
M  V30 51 1 8 46
M  V30 52 1 9 47
M  V30 53 1 13 48
M  V30 54 1 15 49
M  V30 55 1 16 50
M  V30 56 1 20 51
M  V30 57 1 21 52
M  V30 58 1 23 53
M  V30 59 1 24 54
M  V30 60 1 26 55
M  V30 61 1 27 56
M  V30 62 1 28 57
M  V30 63 1 28 58
M  V30 64 1 29 59
M  V30 65 1 29 60
M  V30 66 1 30 61
M  V30 67 1 30 62
M  V30 68 1 31 63
M  V30 69 1 31 64
M  V30 70 1 32 65
M  V30 71 1 34 66
M  V30 72 1 35 67
M  V30 73 1 36 68
M  V30 74 1 36 69
M  V30 75 1 37 70
M  V30 76 1 37 71
M  V30 END BOND
M  V30 END CTAB
M  END
>  <Dataset>  (1) 
ChEMBL_Kinases

>  <Ligand_Instance>  (1) 
nan

>  <PDB_ID>  (1) 
nan

>  <Standardized_SMILES>  (1) 
CN1CCC(Oc2ccc(-c3n[nH]c4ccc(C(=O)NC(c5ccsc5)C5CCCC5)cc34)cc2)CC1

>  <Name>  (1) 
nan

>  <Pocket>  (1) 
nan

>  <ATP_Site>  (1) 
nan

>  <Peripheral>  (1) 
nan

>  <Num_H_Atoms_ProtBoundConf>  (1) 
nan

>  <Num_Resolved_Atoms>  (1) 
nan

>  <Num_Not_Resolved_Atoms>  (1) 
nan

$$$$
CHEMBL3422070
     RDKit          3D

  0  0  0  0  0  0  0  0  0  0999 V3000
M  V30 BEGIN CTAB
M  V30 COUNTS 73 78 0 0 0
M  V30 BEGIN ATOM
M  V30 1 C 5.123667 -5.348581 0.860495 0
M  V30 2 N 5.509585 -5.626862 -0.509459 0
M  V30 3 C 4.403657 -6.120685 -1.263014 0
M  V30 4 C 3.491219 -5.082709 -1.831309 0
M  V30 5 C 4.197389 -3.750231 -2.030468 0
M  V30 6 O 3.561629 -2.924325 -2.951837 0
M  V30 7 C 3.000860 -1.696067 -2.656621 0
M  V30 8 C 2.464144 -1.168297 -3.840446 0
M  V30 9 C 1.827117 0.080931 -3.834082 0
M  V30 10 C 1.725117 0.797864 -2.663988 0
M  V30 11 C 1.101680 2.105575 -2.492527 0
M  V30 12 N 1.306708 3.145985 -3.320439 0
M  V30 13 N 0.597100 4.205015 -2.899032 0
M  V30 14 C -0.090142 3.892156 -1.789084 0
M  V30 15 C -0.960270 4.588909 -0.957240 0
M  V30 16 C -1.530795 3.966839 0.152709 0
M  V30 17 C -1.187528 2.657393 0.365926 0
M  V30 18 N -1.759208 1.979197 1.504490 0
M  V30 19 C -2.977746 1.400545 1.054387 0
M  V30 20 O -3.125147 1.690289 -0.187801 0
M  V30 21 C -3.962586 0.593392 1.813556 0
M  V30 22 C -3.409646 -0.675881 2.346856 0
M  V30 23 C -2.595632 -0.765120 3.453579 0
M  V30 24 C -2.056637 -1.921013 3.978509 0
M  V30 25 C -2.357066 -3.108562 3.339226 0
M  V30 26 C -3.170949 -3.024603 2.232156 0
M  V30 27 N -3.673340 -1.874903 1.756379 0
M  V30 28 C -4.577045 1.318856 2.966179 0
M  V30 29 C -5.558299 0.383600 3.647224 0
M  V30 30 C -6.866111 0.626215 2.922632 0
M  V30 31 C -6.644565 1.777121 1.978627 0
M  V30 32 C -5.460698 2.463709 2.611222 0
M  V30 33 C -0.323104 1.944569 -0.449206 0
M  V30 34 C 0.226562 2.575448 -1.534860 0
M  V30 35 C 2.260561 0.268918 -1.488913 0
M  V30 36 C 2.885159 -0.958260 -1.499146 0
M  V30 37 C 5.661377 -3.989971 -2.357838 0
M  V30 38 C 6.270238 -4.581143 -1.107168 0
M  V30 39 H 4.761044 -6.299912 1.308392 0
M  V30 40 H 4.305778 -4.621036 0.932071 0
M  V30 41 H 5.971880 -4.951681 1.451558 0
M  V30 42 H 4.725420 -6.841500 -2.065833 0
M  V30 43 H 3.791889 -6.748932 -0.548855 0
M  V30 44 H 3.127003 -5.447610 -2.822664 0
M  V30 45 H 2.588145 -4.965670 -1.194425 0
M  V30 46 H 4.193356 -3.258555 -1.039901 0
M  V30 47 H 2.458000 -1.601426 -4.847708 0
M  V30 48 H 1.394427 0.542406 -4.710545 0
M  V30 49 H 0.580160 5.142920 -3.367536 0
M  V30 50 H -1.145140 5.627289 -1.244540 0
M  V30 51 H -2.201599 4.545627 0.772595 0
M  V30 52 H -1.528595 1.807409 2.528588 0
M  V30 53 H -4.734003 0.295785 1.051001 0
M  V30 54 H -2.332259 0.130491 3.995859 0
M  V30 55 H -1.427394 -1.946963 4.841619 0
M  V30 56 H -2.005977 -4.087384 3.637917 0
M  V30 57 H -3.497403 -3.875577 1.619823 0
M  V30 58 H -3.812998 1.565546 3.730804 0
M  V30 59 H -5.634329 0.588562 4.735735 0
M  V30 60 H -5.239737 -0.664015 3.439037 0
M  V30 61 H -7.157654 -0.254040 2.291945 0
M  V30 62 H -7.680354 0.945975 3.608394 0
M  V30 63 H -7.480317 2.503562 1.950004 0
M  V30 64 H -6.466912 1.452975 0.930241 0
M  V30 65 H -5.000463 3.225233 1.967032 0
M  V30 66 H -5.799048 2.943271 3.537079 0
M  V30 67 H -0.090446 0.910163 -0.229803 0
M  V30 68 H 2.277492 0.681962 -0.486504 0
M  V30 69 H 3.337264 -1.475370 -0.667534 0
M  V30 70 H 5.804650 -4.617552 -3.262234 0
M  V30 71 H 6.135606 -2.986305 -2.504461 0
M  V30 72 H 7.333045 -4.896279 -1.308207 0
M  V30 73 H 6.362951 -3.720307 -0.385491 0
M  V30 END ATOM
M  V30 BEGIN BOND
M  V30 1 1 1 2
M  V30 2 1 2 3
M  V30 3 1 3 4
M  V30 4 1 4 5
M  V30 5 1 5 6
M  V30 6 1 6 7
M  V30 7 2 7 8
M  V30 8 1 8 9
M  V30 9 2 9 10
M  V30 10 1 10 11
M  V30 11 2 11 12
M  V30 12 1 12 13
M  V30 13 1 13 14
M  V30 14 2 14 15
M  V30 15 1 15 16
M  V30 16 2 16 17
M  V30 17 1 17 18
M  V30 18 1 18 19
M  V30 19 2 19 20
M  V30 20 1 19 21
M  V30 21 1 21 22
M  V30 22 2 22 23
M  V30 23 1 23 24
M  V30 24 2 24 25
M  V30 25 1 25 26
M  V30 26 2 26 27
M  V30 27 1 21 28
M  V30 28 1 28 29
M  V30 29 1 29 30
M  V30 30 1 30 31
M  V30 31 1 31 32
M  V30 32 1 17 33
M  V30 33 2 33 34
M  V30 34 1 10 35
M  V30 35 2 35 36
M  V30 36 1 5 37
M  V30 37 1 37 38
M  V30 38 1 38 2
M  V30 39 1 36 7
M  V30 40 1 34 11
M  V30 41 1 34 14
M  V30 42 1 27 22
M  V30 43 1 32 28
M  V30 44 1 1 39
M  V30 45 1 1 40
M  V30 46 1 1 41
M  V30 47 1 3 42
M  V30 48 1 3 43
M  V30 49 1 4 44
M  V30 50 1 4 45
M  V30 51 1 5 46
M  V30 52 1 8 47
M  V30 53 1 9 48
M  V30 54 1 13 49
M  V30 55 1 15 50
M  V30 56 1 16 51
M  V30 57 1 18 52
M  V30 58 1 21 53
M  V30 59 1 23 54
M  V30 60 1 24 55
M  V30 61 1 25 56
M  V30 62 1 26 57
M  V30 63 1 28 58
M  V30 64 1 29 59
M  V30 65 1 29 60
M  V30 66 1 30 61
M  V30 67 1 30 62
M  V30 68 1 31 63
M  V30 69 1 31 64
M  V30 70 1 32 65
M  V30 71 1 32 66
M  V30 72 1 33 67
M  V30 73 1 35 68
M  V30 74 1 36 69
M  V30 75 1 37 70
M  V30 76 1 37 71
M  V30 77 1 38 72
M  V30 78 1 38 73
M  V30 END BOND
M  V30 END CTAB
M  END
>  <Dataset>  (2) 
ChEMBL_Kinases

>  <Ligand_Instance>  (2) 
nan

>  <PDB_ID>  (2) 
nan

>  <Standardized_SMILES>  (2) 
CN1CCC(Oc2ccc(-c3n[nH]c4ccc(NC(=O)C(c5ccccn5)C5CCCC5)cc34)cc2)CC1

>  <Name>  (2) 
nan

>  <Pocket>  (2) 
nan

>  <ATP_Site>  (2) 
nan

>  <Peripheral>  (2) 
nan

>  <Num_H_Atoms_ProtBoundConf>  (2) 
nan

>  <Num_Resolved_Atoms>  (2) 
nan

>  <Num_Not_Resolved_Atoms>  (2) 
nan

$$$$
CHEMBL4090889
     RDKit          3D

  0  0  0  0  0  0  0  0  0  0999 V3000
M  V30 BEGIN CTAB
M  V30 COUNTS 30 32 0 0 0
M  V30 BEGIN ATOM
M  V30 1 C -2.204354 -4.783121 2.843370 0
M  V30 2 O -2.132983 -3.578071 2.104320 0
M  V30 3 C -0.943138 -2.907022 1.922236 0
M  V30 4 C 0.281534 -3.300563 2.412588 0
M  V30 5 C 1.385660 -2.510778 2.139178 0
M  V30 6 C 1.350560 -1.344526 1.403139 0
M  V30 7 C 0.113525 -0.949326 0.909284 0
M  V30 8 C -0.252587 0.145472 0.151872 0
M  V30 9 C 0.629907 1.206801 -0.335490 0
M  V30 10 C 0.062600 2.228672 -1.087436 0
M  V30 11 C 0.915801 3.216294 -1.534564 0
M  V30 12 N 2.233437 3.202832 -1.263265 0
M  V30 13 C 2.781818 2.194878 -0.523796 0
M  V30 14 N 4.161753 2.092029 -0.184191 0
M  V30 15 N 1.954454 1.248256 -0.097141 0
M  V30 16 C -1.618201 0.020995 -0.042779 0
M  V30 17 N -2.022706 -1.092344 0.572473 0
M  V30 18 C -0.992243 -1.735999 1.180420 0
M  V30 19 H -3.107715 -5.367130 2.608662 0
M  V30 20 H -2.117296 -4.541538 3.917496 0
M  V30 21 H -1.341559 -5.462948 2.615083 0
M  V30 22 H 0.323608 -4.203538 2.985442 0
M  V30 23 H 2.355007 -2.818267 2.524790 0
M  V30 24 H 2.200462 -0.737329 1.193147 0
M  V30 25 H -0.989849 2.280387 -1.329737 0
M  V30 26 H 0.510601 4.045767 -2.133894 0
M  V30 27 H 4.506508 1.769712 -1.137182 0
M  V30 28 H 4.393182 2.340766 0.803409 0
M  V30 29 H -2.197575 0.735422 -0.604968 0
M  V30 30 H -3.037336 -1.412922 0.570436 0
M  V30 END ATOM
M  V30 BEGIN BOND
M  V30 1 1 1 2
M  V30 2 1 2 3
M  V30 3 2 3 4
M  V30 4 1 4 5
M  V30 5 2 5 6
M  V30 6 1 6 7
M  V30 7 1 7 8
M  V30 8 1 8 9
M  V30 9 2 9 10
M  V30 10 1 10 11
M  V30 11 2 11 12
M  V30 12 1 12 13
M  V30 13 1 13 14
M  V30 14 2 13 15
M  V30 15 2 8 16
M  V30 16 1 16 17
M  V30 17 1 17 18
M  V30 18 1 18 3
M  V30 19 2 18 7
M  V30 20 1 15 9
M  V30 21 1 1 19
M  V30 22 1 1 20
M  V30 23 1 1 21
M  V30 24 1 4 22
M  V30 25 1 5 23
M  V30 26 1 6 24
M  V30 27 1 10 25
M  V30 28 1 11 26
M  V30 29 1 14 27
M  V30 30 1 14 28
M  V30 31 1 16 29
M  V30 32 1 17 30
M  V30 END BOND
M  V30 END CTAB
M  END
>  <Dataset>  (3) 
ChEMBL_Kinases

>  <Ligand_Instance>  (3) 
nan

>  <PDB_ID>  (3) 
nan

>  <Standardized_SMILES>  (3) 
COc1cccc2c(-c3ccnc(N)n3)c[nH]c12

>  <Name>  (3) 
nan

>  <Pocket>  (3) 
nan

>  <ATP_Site>  (3) 
nan

>  <Peripheral>  (3) 
nan

>  <Num_H_Atoms_ProtBoundConf>  (3) 
nan

>  <Num_Resolved_Atoms>  (3) 
nan

>  <Num_Not_Resolved_Atoms>  (3) 
nan

$$$$
CHEMBL3805029
     RDKit          3D

  0  0  0  0  0  0  0  0  0  0999 V3000
M  V30 BEGIN CTAB
M  V30 COUNTS 59 62 0 0 0
M  V30 BEGIN ATOM
M  V30 1 O -0.042048 0.419604 2.851096 0
M  V30 2 C 0.065587 -0.571552 3.609267 0
M  V30 3 C 0.978192 -0.526581 4.793704 0
M  V30 4 O 1.633691 0.700771 4.895247 0
M  V30 5 C 2.494106 1.195584 3.944333 0
M  V30 6 C 2.967649 2.445610 4.340629 0
M  V30 7 C 3.861435 3.177608 3.559555 0
M  V30 8 C 4.284912 2.629025 2.348198 0
M  V30 9 C 5.226144 3.287648 1.421127 0
M  V30 10 C 6.072657 2.494297 0.639545 0
M  V30 11 C 6.967277 3.047524 -0.238286 0
M  V30 12 C 7.030319 4.417204 -0.349621 0
M  V30 13 N 6.218937 5.169980 0.399819 0
M  V30 14 C 5.333160 4.654635 1.267726 0
M  V30 15 C 3.815694 1.386205 1.952077 0
M  V30 16 C 2.937838 0.694457 2.745142 0
M  V30 17 N -0.695759 -1.726832 3.314807 0
M  V30 18 C -1.603626 -1.964471 2.256968 0
M  V30 19 C -2.230968 -3.188553 2.174708 0
M  V30 20 C -3.126860 -3.491766 1.174325 0
M  V30 21 C -3.451702 -2.582567 0.188842 0
M  V30 22 C -4.417117 -2.945268 -0.865671 0
M  V30 23 N -3.836745 -3.242905 -2.139988 0
M  V30 24 C -4.753194 -3.604457 -3.172038 0
M  V30 25 C -4.154244 -4.689501 -4.040570 0
M  V30 26 N -2.857612 -4.236778 -4.512813 0
M  V30 27 C -1.936368 -4.145674 -3.393064 0
M  V30 28 C -2.690127 -4.093196 -2.073459 0
M  V30 29 C -2.844665 -1.345227 0.236021 0
M  V30 30 C -3.164546 -0.344191 -0.799159 0
M  V30 31 F -4.504345 -0.012988 -0.826608 0
M  V30 32 F -2.720429 -0.699864 -2.063140 0
M  V30 33 F -2.493390 0.822128 -0.479823 0
M  V30 34 C -1.954951 -1.088618 1.256664 0
M  V30 35 H 0.482054 -0.849596 5.712222 0
M  V30 36 H 1.796210 -1.287741 4.625373 0
M  V30 37 H 2.725665 2.991738 5.251512 0
M  V30 38 H 4.258637 4.147136 3.817746 0
M  V30 39 H 6.063082 1.401432 0.689431 0
M  V30 40 H 7.615232 2.447077 -0.836932 0
M  V30 41 H 7.716822 4.890148 -1.025038 0
M  V30 42 H 4.678018 5.247360 1.873669 0
M  V30 43 H 4.075704 0.883609 1.052356 0
M  V30 44 H 2.544175 -0.263410 2.510489 0
M  V30 45 H -0.539369 -2.499772 4.001281 0
M  V30 46 H -2.020955 -3.961153 2.924538 0
M  V30 47 H -3.578743 -4.473420 1.176390 0
M  V30 48 H -5.228543 -2.205509 -0.984677 0
M  V30 49 H -4.957338 -3.884735 -0.553398 0
M  V30 50 H -5.756411 -3.907405 -2.816313 0
M  V30 51 H -4.898170 -2.720042 -3.843700 0
M  V30 52 H -4.002864 -5.576268 -3.404799 0
M  V30 53 H -4.796499 -4.891776 -4.933341 0
M  V30 54 H -2.974471 -3.264219 -4.909300 0
M  V30 55 H -1.332587 -5.070878 -3.384536 0
M  V30 56 H -1.245440 -3.296143 -3.496515 0
M  V30 57 H -2.883425 -5.126311 -1.742521 0
M  V30 58 H -1.959294 -3.675893 -1.342405 0
M  V30 59 H -1.521523 -0.110456 1.232457 0
M  V30 END ATOM
M  V30 BEGIN BOND
M  V30 1 2 1 2
M  V30 2 1 2 3
M  V30 3 1 3 4
M  V30 4 1 4 5
M  V30 5 2 5 6
M  V30 6 1 6 7
M  V30 7 2 7 8
M  V30 8 1 8 9
M  V30 9 2 9 10
M  V30 10 1 10 11
M  V30 11 2 11 12
M  V30 12 1 12 13
M  V30 13 2 13 14
M  V30 14 1 8 15
M  V30 15 2 15 16
M  V30 16 1 2 17
M  V30 17 1 17 18
M  V30 18 2 18 19
M  V30 19 1 19 20
M  V30 20 2 20 21
M  V30 21 1 21 22
M  V30 22 1 22 23
M  V30 23 1 23 24
M  V30 24 1 24 25
M  V30 25 1 25 26
M  V30 26 1 26 27
M  V30 27 1 27 28
M  V30 28 1 21 29
M  V30 29 1 29 30
M  V30 30 1 30 31
M  V30 31 1 30 32
M  V30 32 1 30 33
M  V30 33 2 29 34
M  V30 34 1 16 5
M  V30 35 1 34 18
M  V30 36 1 14 9
M  V30 37 1 28 23
M  V30 38 1 3 35
M  V30 39 1 3 36
M  V30 40 1 6 37
M  V30 41 1 7 38
M  V30 42 1 10 39
M  V30 43 1 11 40
M  V30 44 1 12 41
M  V30 45 1 14 42
M  V30 46 1 15 43
M  V30 47 1 16 44
M  V30 48 1 17 45
M  V30 49 1 19 46
M  V30 50 1 20 47
M  V30 51 1 22 48
M  V30 52 1 22 49
M  V30 53 1 24 50
M  V30 54 1 24 51
M  V30 55 1 25 52
M  V30 56 1 25 53
M  V30 57 1 26 54
M  V30 58 1 27 55
M  V30 59 1 27 56
M  V30 60 1 28 57
M  V30 61 1 28 58
M  V30 62 1 34 59
M  V30 END BOND
M  V30 END CTAB
M  END
>  <Dataset>  (4) 
ChEMBL_Kinases

>  <Ligand_Instance>  (4) 
nan

>  <PDB_ID>  (4) 
nan

>  <Standardized_SMILES>  (4) 
O=C(COc1ccc(-c2cccnc2)cc1)Nc1ccc(CN2CCNCC2)c(C(F)(F)F)c1

>  <Name>  (4) 
nan

>  <Pocket>  (4) 
nan

>  <ATP_Site>  (4) 
nan

>  <Peripheral>  (4) 
nan

>  <Num_H_Atoms_ProtBoundConf>  (4) 
nan

>  <Num_Resolved_Atoms>  (4) 
nan

>  <Num_Not_Resolved_Atoms>  (4) 
nan

$$$$
CHEMBL4090723
     RDKit          3D

  0  0  0  0  0  0  0  0  0  0999 V3000
M  V30 BEGIN CTAB
M  V30 COUNTS 58 62 0 0 0
M  V30 BEGIN ATOM
M  V30 1 C 6.801912 0.516270 2.835950 0
M  V30 2 C 5.691983 -0.193164 3.509396 0
M  V30 3 C 4.759284 -0.950365 2.795805 0
M  V30 4 C 3.830486 -1.503290 3.684689 0
M  V30 5 N 2.756720 -2.326978 3.246089 0
M  V30 6 C 1.512127 -1.725534 2.909696 0
M  V30 7 C 1.306978 -0.365155 2.994786 0
M  V30 8 C 0.126403 0.271760 2.683516 0
M  V30 9 N -0.102230 1.667467 2.764815 0
M  V30 10 C 0.841302 2.677692 3.187345 0
M  V30 11 C 1.082521 3.648326 2.050202 0
M  V30 12 O -0.077255 3.851995 1.303613 0
M  V30 13 C -1.223127 3.651999 2.066709 0
M  V30 14 C -1.394770 2.188096 2.398742 0
M  V30 15 N -0.857743 -0.544400 2.274099 0
M  V30 16 C -0.722721 -1.877004 2.169413 0
M  V30 17 N -1.816425 -2.675382 1.727793 0
M  V30 18 C -2.092991 -2.995224 0.368043 0
M  V30 19 C -3.162032 -3.782099 -0.007686 0
M  V30 20 C -3.357686 -4.041610 -1.350029 0
M  V30 21 C -2.506573 -3.528902 -2.305869 0
M  V30 22 N -2.612901 -3.731922 -3.716368 0
M  V30 23 C -3.385332 -2.802358 -4.460751 0
M  V30 24 O -3.949118 -1.835485 -3.864331 0
M  V30 25 C -3.585133 -2.883842 -5.925442 0
M  V30 26 C -3.606416 -1.555118 -6.644214 0
M  V30 27 C -4.849902 -2.373695 -6.512010 0
M  V30 28 C -1.416814 -2.729296 -1.950696 0
M  V30 29 C -1.237422 -2.479889 -0.592820 0
M  V30 30 N 0.468202 -2.464700 2.489426 0
M  V30 31 N 4.229793 -1.065574 4.892861 0
M  V30 32 N 5.303916 -0.309883 4.789733 0
M  V30 33 H 7.537976 -0.198159 2.369603 0
M  V30 34 H 6.472386 1.198091 2.027675 0
M  V30 35 H 7.368351 1.079494 3.607604 0
M  V30 36 H 4.748269 -1.095109 1.705565 0
M  V30 37 H 2.848491 -3.352993 3.162528 0
M  V30 38 H 2.146669 0.216405 3.331495 0
M  V30 39 H 1.802934 2.196196 3.426981 0
M  V30 40 H 0.468389 3.247897 4.064729 0
M  V30 41 H 1.346159 4.624749 2.510333 0
M  V30 42 H 1.931283 3.357182 1.405647 0
M  V30 43 H -1.185823 4.190543 3.035410 0
M  V30 44 H -2.076077 4.039124 1.463191 0
M  V30 45 H -1.679295 1.653224 1.450551 0
M  V30 46 H -2.164027 2.016450 3.162737 0
M  V30 47 H -2.442197 -3.037025 2.483073 0
M  V30 48 H -3.833463 -4.187140 0.737645 0
M  V30 49 H -4.176675 -4.651166 -1.712707 0
M  V30 50 H -2.158014 -4.525204 -4.249059 0
M  V30 51 H -3.115340 -3.706147 -6.500704 0
M  V30 52 H -3.571086 -0.614067 -6.036041 0
M  V30 53 H -3.137237 -1.459415 -7.636805 0
M  V30 54 H -5.659381 -1.974410 -5.888479 0
M  V30 55 H -5.220524 -2.807291 -7.468606 0
M  V30 56 H -0.709433 -2.294962 -2.653454 0
M  V30 57 H -0.390667 -1.854533 -0.272273 0
M  V30 58 H 5.837902 0.167675 5.548123 0
M  V30 END ATOM
M  V30 BEGIN BOND
M  V30 1 1 1 2
M  V30 2 2 2 3
M  V30 3 1 3 4
M  V30 4 1 4 5
M  V30 5 1 5 6
M  V30 6 2 6 7
M  V30 7 1 7 8
M  V30 8 1 8 9
M  V30 9 1 9 10
M  V30 10 1 10 11
M  V30 11 1 11 12
M  V30 12 1 12 13
M  V30 13 1 13 14
M  V30 14 2 8 15
M  V30 15 1 15 16
M  V30 16 1 16 17
M  V30 17 1 17 18
M  V30 18 2 18 19
M  V30 19 1 19 20
M  V30 20 2 20 21
M  V30 21 1 21 22
M  V30 22 1 22 23
M  V30 23 2 23 24
M  V30 24 1 23 25
M  V30 25 1 25 26
M  V30 26 1 26 27
M  V30 27 1 21 28
M  V30 28 2 28 29
M  V30 29 2 16 30
M  V30 30 2 4 31
M  V30 31 1 31 32
M  V30 32 1 32 2
M  V30 33 1 30 6
M  V30 34 1 14 9
M  V30 35 1 29 18
M  V30 36 1 27 25
M  V30 37 1 1 33
M  V30 38 1 1 34
M  V30 39 1 1 35
M  V30 40 1 3 36
M  V30 41 1 5 37
M  V30 42 1 7 38
M  V30 43 1 10 39
M  V30 44 1 10 40
M  V30 45 1 11 41
M  V30 46 1 11 42
M  V30 47 1 13 43
M  V30 48 1 13 44
M  V30 49 1 14 45
M  V30 50 1 14 46
M  V30 51 1 17 47
M  V30 52 1 19 48
M  V30 53 1 20 49
M  V30 54 1 22 50
M  V30 55 1 25 51
M  V30 56 1 26 52
M  V30 57 1 26 53
M  V30 58 1 27 54
M  V30 59 1 27 55
M  V30 60 1 28 56
M  V30 61 1 29 57
M  V30 62 1 32 58
M  V30 END BOND
M  V30 END CTAB
M  END
>  <Dataset>  (5) 
ChEMBL_Kinases

>  <Ligand_Instance>  (5) 
nan

>  <PDB_ID>  (5) 
nan

>  <Standardized_SMILES>  (5) 
Cc1cc(Nc2cc(N3CCOCC3)nc(Nc3ccc(NC(=O)C4CC4)cc3)n2)n[nH]1

>  <Name>  (5) 
nan

>  <Pocket>  (5) 
nan

>  <ATP_Site>  (5) 
nan

>  <Peripheral>  (5) 
nan

>  <Num_H_Atoms_ProtBoundConf>  (5) 
nan

>  <Num_Resolved_Atoms>  (5) 
nan

>  <Num_Not_Resolved_Atoms>  (5) 
nan

$$$$
CHEMBL4090462
     RDKit          3D

  0  0  0  0  0  0  0  0  0  0999 V3000
M  V30 BEGIN CTAB
M  V30 COUNTS 57 60 0 0 0
M  V30 BEGIN ATOM
M  V30 1 N 2.608833 -1.892078 3.551242 0
M  V30 2 C 1.960936 -1.131825 4.591776 0
M  V30 3 O 0.995891 -1.259620 5.394869 0
M  V30 4 O 2.606809 0.067236 4.714446 0
M  V30 5 C 2.265662 1.093980 5.634946 0
M  V30 6 C 3.248193 2.182375 5.384486 0
M  V30 7 C 4.320860 2.438085 6.224073 0
M  V30 8 N 5.237231 3.402669 6.048412 0
M  V30 9 C 5.119979 4.195404 4.974462 0
M  V30 10 C 4.059295 3.986200 4.091768 0
M  V30 11 C 3.119719 2.993618 4.276246 0
M  V30 12 C 2.051417 2.831737 3.322462 0
M  V30 13 N 1.873730 3.568476 2.210679 0
M  V30 14 N 0.799561 3.165426 1.552627 0
M  V30 15 C 0.245797 2.137691 2.237468 0
M  V30 16 C -0.981922 1.467661 1.743542 0
M  V30 17 N -0.569660 0.353216 0.894119 0
M  V30 18 C -1.662765 -0.380071 0.328730 0
M  V30 19 C -2.969969 -0.026912 0.589729 0
M  V30 20 C -3.993540 -0.769382 0.019255 0
M  V30 21 C -3.700625 -1.842878 -0.794954 0
M  V30 22 C -2.413619 -2.235480 -1.086053 0
M  V30 23 C -2.010722 -3.345067 -1.926507 0
M  V30 24 O -0.781445 -3.601248 -2.111095 0
M  V30 25 N -2.926052 -4.199479 -2.584039 0
M  V30 26 C -2.665469 -5.335467 -3.447361 0
M  V30 27 C -2.251691 -4.851308 -4.789708 0
M  V30 28 C -0.948865 -4.621024 -5.182428 0
M  V30 29 C -0.556479 -4.167885 -6.423602 0
M  V30 30 C -1.582498 -3.929141 -7.344412 0
M  V30 31 C -2.890531 -4.146663 -6.991275 0
M  V30 32 C -3.249334 -4.601052 -5.738535 0
M  V30 33 C -1.418880 -1.461035 -0.491651 0
M  V30 34 N 1.031327 1.958371 3.310397 0
M  V30 35 H 3.145895 -2.783595 3.487025 0
M  V30 36 H 2.583757 -1.534845 2.590353 0
M  V30 37 H 1.223766 1.400736 5.613419 0
M  V30 38 H 2.455672 0.771605 6.701464 0
M  V30 39 H 4.419442 1.802053 7.091079 0
M  V30 40 H 5.844828 4.991101 4.797873 0
M  V30 41 H 4.038542 4.675048 3.244938 0
M  V30 42 H 0.465067 3.600273 0.648621 0
M  V30 43 H -1.640425 2.181389 1.228457 0
M  V30 44 H -1.567989 1.046296 2.605750 0
M  V30 45 H 0.400000 0.061998 0.676668 0
M  V30 46 H -3.203194 0.815447 1.227841 0
M  V30 47 H -5.044794 -0.538944 0.188220 0
M  V30 48 H -4.493805 -2.402243 -1.224899 0
M  V30 49 H -3.941154 -3.950817 -2.403457 0
M  V30 50 H -3.566566 -5.939139 -3.557042 0
M  V30 51 H -1.834512 -5.966584 -3.010697 0
M  V30 52 H -0.164541 -4.804633 -4.483447 0
M  V30 53 H 0.500357 -4.011681 -6.649995 0
M  V30 54 H -1.264098 -3.569367 -8.327522 0
M  V30 55 H -3.606012 -3.933084 -7.772549 0
M  V30 56 H -4.294069 -4.762574 -5.492627 0
M  V30 57 H -0.365326 -1.706724 -0.672501 0
M  V30 END ATOM
M  V30 BEGIN BOND
M  V30 1 1 1 2
M  V30 2 2 2 3
M  V30 3 1 2 4
M  V30 4 1 4 5
M  V30 5 1 5 6
M  V30 6 2 6 7
M  V30 7 1 7 8
M  V30 8 2 8 9
M  V30 9 1 9 10
M  V30 10 2 10 11
M  V30 11 1 11 12
M  V30 12 2 12 13
M  V30 13 1 13 14
M  V30 14 1 14 15
M  V30 15 1 15 16
M  V30 16 1 16 17
M  V30 17 1 17 18
M  V30 18 2 18 19
M  V30 19 1 19 20
M  V30 20 2 20 21
M  V30 21 1 21 22
M  V30 22 1 22 23
M  V30 23 2 23 24
M  V30 24 1 23 25
M  V30 25 1 25 26
M  V30 26 1 26 27
M  V30 27 2 27 28
M  V30 28 1 28 29
M  V30 29 2 29 30
M  V30 30 1 30 31
M  V30 31 2 31 32
M  V30 32 2 22 33
M  V30 33 2 15 34
M  V30 34 1 11 6
M  V30 35 1 34 12
M  V30 36 1 33 18
M  V30 37 1 32 27
M  V30 38 1 1 35
M  V30 39 1 1 36
M  V30 40 1 5 37
M  V30 41 1 5 38
M  V30 42 1 7 39
M  V30 43 1 9 40
M  V30 44 1 10 41
M  V30 45 1 14 42
M  V30 46 1 16 43
M  V30 47 1 16 44
M  V30 48 1 17 45
M  V30 49 1 19 46
M  V30 50 1 20 47
M  V30 51 1 21 48
M  V30 52 1 25 49
M  V30 53 1 26 50
M  V30 54 1 26 51
M  V30 55 1 28 52
M  V30 56 1 29 53
M  V30 57 1 30 54
M  V30 58 1 31 55
M  V30 59 1 32 56
M  V30 60 1 33 57
M  V30 END BOND
M  V30 END CTAB
M  END
>  <Dataset>  (6) 
ChEMBL_Kinases

>  <Ligand_Instance>  (6) 
nan

>  <PDB_ID>  (6) 
nan

>  <Standardized_SMILES>  (6) 
NC(=O)OCc1cnccc1-c1n[nH]c(CNc2cccc(C(=O)NCc3ccccc3)c2)n1

>  <Name>  (6) 
nan

>  <Pocket>  (6) 
nan

>  <ATP_Site>  (6) 
nan

>  <Peripheral>  (6) 
nan

>  <Num_H_Atoms_ProtBoundConf>  (6) 
nan

>  <Num_Resolved_Atoms>  (6) 
nan

>  <Num_Not_Resolved_Atoms>  (6) 
nan

$$$$
CHEMBL3805074
     RDKit          3D

  0  0  0  0  0  0  0  0  0  0999 V3000
M  V30 BEGIN CTAB
M  V30 COUNTS 69 72 0 0 0
M  V30 BEGIN ATOM
M  V30 1 C 3.463098 -2.513194 3.449755 0
M  V30 2 C 2.978784 -2.736110 2.045322 0
M  V30 3 N 3.332502 -1.654527 1.150466 0
M  V30 4 C 2.806537 -1.989818 -0.160291 0
M  V30 5 C 3.029689 -0.864709 -1.147457 0
M  V30 6 N 3.906005 0.135149 -0.552819 0
M  V30 7 C 4.141047 1.197016 -1.507430 0
M  V30 8 C 2.842803 1.827102 -1.856594 0
M  V30 9 C 2.242165 1.527156 -3.061684 0
M  V30 10 C 1.035463 2.096956 -3.406553 0
M  V30 11 C 0.504005 2.960757 -2.473124 0
M  V30 12 N -0.740055 3.585814 -2.755840 0
M  V30 13 C -1.753622 2.741942 -2.241630 0
M  V30 14 O -1.888539 1.630276 -1.622706 0
M  V30 15 C -3.222135 2.613058 -2.099345 0
M  V30 16 C -3.483181 1.338994 -1.378679 0
M  V30 17 C -3.527243 1.350096 0.001497 0
M  V30 18 C -3.758675 0.230695 0.768046 0
M  V30 19 C -3.962317 -0.987125 0.158428 0
M  V30 20 O -4.211493 -2.256751 0.638739 0
M  V30 21 C -4.291044 -2.492814 1.997588 0
M  V30 22 C -4.546430 -3.836921 2.196285 0
M  V30 23 C -4.685625 -4.409166 3.450882 0
M  V30 24 N -4.946659 -5.772634 3.744052 0
M  V30 25 C -6.142432 -6.593421 3.929381 0
M  V30 26 N -4.569241 -3.628493 4.559595 0
M  V30 27 C -4.317076 -2.306526 4.324261 0
M  V30 28 N -4.187107 -1.778313 3.105839 0
M  V30 29 C -3.924996 -1.036588 -1.235766 0
M  V30 30 C -3.688458 0.110611 -2.001765 0
M  V30 31 C 1.095019 3.266991 -1.267925 0
M  V30 32 C 2.303441 2.700844 -0.914512 0
M  V30 33 C 2.891238 3.058914 0.377117 0
M  V30 34 F 2.083926 3.961570 1.062227 0
M  V30 35 F 4.064499 3.747574 0.117206 0
M  V30 36 F 3.237484 1.992026 1.173816 0
M  V30 37 C 5.072268 -0.526655 -0.077321 0
M  V30 38 C 4.712171 -1.302098 1.167918 0
M  V30 39 H 2.605128 -2.731380 4.136326 0
M  V30 40 H 3.761835 -1.461108 3.590259 0
M  V30 41 H 4.246807 -3.243513 3.731519 0
M  V30 42 H 1.904901 -2.919986 2.002594 0
M  V30 43 H 3.454775 -3.655955 1.602761 0
M  V30 44 H 1.717356 -2.133071 -0.031091 0
M  V30 45 H 3.208767 -2.965710 -0.516236 0
M  V30 46 H 3.495167 -1.322942 -2.049584 0
M  V30 47 H 2.066581 -0.425183 -1.405978 0
M  V30 48 H 4.554067 0.707749 -2.413230 0
M  V30 49 H 4.896403 1.915500 -1.182967 0
M  V30 50 H 2.739662 0.831476 -3.734825 0
M  V30 51 H 0.590478 1.853622 -4.336780 0
M  V30 52 H -1.306114 4.359768 -3.153729 0
M  V30 53 H -3.755206 2.689184 -3.064499 0
M  V30 54 H -3.584604 3.436667 -1.453530 0
M  V30 55 H -3.382699 2.248068 0.612325 0
M  V30 56 H -3.807548 0.157334 1.827312 0
M  V30 57 H -4.675105 -4.633272 1.448154 0
M  V30 58 H -4.088530 -6.366818 3.863547 0
M  V30 59 H -6.058050 -7.110083 4.900810 0
M  V30 60 H -6.232801 -7.297772 3.093729 0
M  V30 61 H -7.047028 -5.927301 3.943330 0
M  V30 62 H -4.195678 -1.546322 5.104910 0
M  V30 63 H -4.061480 -1.896086 -1.893651 0
M  V30 64 H -3.646420 0.143630 -3.078476 0
M  V30 65 H 0.608910 3.964791 -0.577838 0
M  V30 66 H 5.920765 0.150672 0.140438 0
M  V30 67 H 5.482654 -1.245881 -0.843933 0
M  V30 68 H 5.394192 -2.156445 1.343350 0
M  V30 69 H 4.905839 -0.613085 2.042328 0
M  V30 END ATOM
M  V30 BEGIN BOND
M  V30 1 1 1 2
M  V30 2 1 2 3
M  V30 3 1 3 4
M  V30 4 1 4 5
M  V30 5 1 5 6
M  V30 6 1 6 7
M  V30 7 1 7 8
M  V30 8 2 8 9
M  V30 9 1 9 10
M  V30 10 2 10 11
M  V30 11 1 11 12
M  V30 12 1 12 13
M  V30 13 2 13 14
M  V30 14 1 13 15
M  V30 15 1 15 16
M  V30 16 2 16 17
M  V30 17 1 17 18
M  V30 18 2 18 19
M  V30 19 1 19 20
M  V30 20 1 20 21
M  V30 21 2 21 22
M  V30 22 1 22 23
M  V30 23 1 23 24
M  V30 24 1 24 25
M  V30 25 2 23 26
M  V30 26 1 26 27
M  V30 27 2 27 28
M  V30 28 1 19 29
M  V30 29 2 29 30
M  V30 30 1 11 31
M  V30 31 2 31 32
M  V30 32 1 32 33
M  V30 33 1 33 34
M  V30 34 1 33 35
M  V30 35 1 33 36
M  V30 36 1 6 37
M  V30 37 1 37 38
M  V30 38 1 38 3
M  V30 39 1 32 8
M  V30 40 1 30 16
M  V30 41 1 28 21
M  V30 42 1 1 39
M  V30 43 1 1 40
M  V30 44 1 1 41
M  V30 45 1 2 42
M  V30 46 1 2 43
M  V30 47 1 4 44
M  V30 48 1 4 45
M  V30 49 1 5 46
M  V30 50 1 5 47
M  V30 51 1 7 48
M  V30 52 1 7 49
M  V30 53 1 9 50
M  V30 54 1 10 51
M  V30 55 1 12 52
M  V30 56 1 15 53
M  V30 57 1 15 54
M  V30 58 1 17 55
M  V30 59 1 18 56
M  V30 60 1 22 57
M  V30 61 1 24 58
M  V30 62 1 25 59
M  V30 63 1 25 60
M  V30 64 1 25 61
M  V30 65 1 27 62
M  V30 66 1 29 63
M  V30 67 1 30 64
M  V30 68 1 31 65
M  V30 69 1 37 66
M  V30 70 1 37 67
M  V30 71 1 38 68
M  V30 72 1 38 69
M  V30 END BOND
M  V30 END CTAB
M  END
>  <Dataset>  (7) 
ChEMBL_Kinases

>  <Ligand_Instance>  (7) 
nan

>  <PDB_ID>  (7) 
nan

>  <Standardized_SMILES>  (7) 
CCN1CCN(Cc2ccc(NC(=O)Cc3ccc(Oc4cc(NC)ncn4)cc3)cc2C(F)(F)F)CC1

>  <Name>  (7) 
nan

>  <Pocket>  (7) 
nan

>  <ATP_Site>  (7) 
nan

>  <Peripheral>  (7) 
nan

>  <Num_H_Atoms_ProtBoundConf>  (7) 
nan

>  <Num_Resolved_Atoms>  (7) 
nan

>  <Num_Not_Resolved_Atoms>  (7) 
nan

$$$$
CHEMBL3422066
     RDKit          3D

  0  0  0  0  0  0  0  0  0  0999 V3000
M  V30 BEGIN CTAB
M  V30 COUNTS 74 79 0 0 0
M  V30 BEGIN ATOM
M  V30 1 O 1.655078 -0.570420 1.934634 0
M  V30 2 C 0.702795 0.189805 2.242826 0
M  V30 3 C 0.151006 1.535203 2.293614 0
M  V30 4 C 0.968486 2.655908 1.784466 0
M  V30 5 N 2.205806 2.951304 2.347643 0
M  V30 6 C 3.262540 2.015326 2.314979 0
M  V30 7 C 4.576113 2.790684 2.490793 0
M  V30 8 O 4.360592 4.168471 2.533758 0
M  V30 9 C 3.514320 4.508787 3.606032 0
M  V30 10 C 2.232955 3.704240 3.555212 0
M  V30 11 C 1.166383 2.451455 0.271852 0
M  V30 12 C 1.800110 3.646224 -0.375398 0
M  V30 13 C 0.838188 4.826818 -0.259236 0
M  V30 14 C 0.672281 5.097424 1.221645 0
M  V30 15 C 0.073667 3.884124 1.842853 0
M  V30 16 N -0.259401 -0.722822 2.791168 0
M  V30 17 C 0.000363 -2.140671 2.877279 0
M  V30 18 C 0.588676 -2.766473 3.946354 0
M  V30 19 C 0.768006 -4.124807 3.880522 0
M  V30 20 C 0.376766 -4.862699 2.782376 0
M  V30 21 N 0.431503 -6.177255 2.462688 0
M  V30 22 N -0.088361 -6.375127 1.266959 0
M  V30 23 C -0.515541 -5.199885 0.730732 0
M  V30 24 C -1.147632 -4.986418 -0.567121 0
M  V30 25 C -2.150442 -5.856091 -0.938506 0
M  V30 26 C -2.795210 -5.716134 -2.149289 0
M  V30 27 C -2.486763 -4.721025 -3.046124 0
M  V30 28 N -3.139040 -4.551249 -4.298433 0
M  V30 29 C -2.782393 -3.565211 -5.299636 0
M  V30 30 C -3.933271 -2.557134 -5.318774 0
M  V30 31 O -5.141863 -3.185267 -5.030499 0
M  V30 32 C -5.171013 -4.493464 -5.518823 0
M  V30 33 C -4.264971 -5.394863 -4.671273 0
M  V30 34 C -1.482508 -3.867766 -2.649686 0
M  V30 35 C -0.789072 -3.952604 -1.439333 0
M  V30 36 C -0.220952 -4.249419 1.688516 0
M  V30 37 C -0.405952 -2.868094 1.749953 0
M  V30 38 H -0.146676 1.773645 3.358793 0
M  V30 39 H -0.834232 1.621649 1.740036 0
M  V30 40 H 3.382970 1.466149 1.370812 0
M  V30 41 H 3.234161 1.303538 3.159766 0
M  V30 42 H 5.275059 2.630746 1.647727 0
M  V30 43 H 5.109060 2.526860 3.410972 0
M  V30 44 H 4.043753 4.391872 4.565978 0
M  V30 45 H 3.320161 5.596980 3.500224 0
M  V30 46 H 1.401459 4.373390 3.750451 0
M  V30 47 H 2.276658 2.995364 4.406914 0
M  V30 48 H 0.128186 2.356722 -0.140625 0
M  V30 49 H 1.696223 1.524726 0.044342 0
M  V30 50 H 1.907271 3.427416 -1.436580 0
M  V30 51 H 2.768159 3.927706 0.038868 0
M  V30 52 H 1.298203 5.691481 -0.737525 0
M  V30 53 H -0.087951 4.502485 -0.748677 0
M  V30 54 H 1.646872 5.411969 1.586190 0
M  V30 55 H -0.038983 5.928116 1.410100 0
M  V30 56 H -0.804859 3.601109 1.188321 0
M  V30 57 H -0.386130 4.040781 2.838854 0
M  V30 58 H -1.238191 -0.686503 3.213403 0
M  V30 59 H 0.854686 -2.106630 4.746847 0
M  V30 60 H 1.229488 -4.599290 4.724793 0
M  V30 61 H 0.845446 -6.883946 3.125525 0
M  V30 62 H -2.429941 -6.655916 -0.268334 0
M  V30 63 H -3.557630 -6.425798 -2.368547 0
M  V30 64 H -1.818420 -3.082934 -5.154623 0
M  V30 65 H -2.836367 -4.088551 -6.295347 0
M  V30 66 H -3.770611 -1.784444 -4.541769 0
M  V30 67 H -3.952424 -2.055865 -6.309405 0
M  V30 68 H -6.212839 -4.853531 -5.398348 0
M  V30 69 H -4.896156 -4.498992 -6.585706 0
M  V30 70 H -3.908686 -6.196587 -5.369423 0
M  V30 71 H -4.810264 -5.826699 -3.833375 0
M  V30 72 H -1.137415 -3.044782 -3.248580 0
M  V30 73 H -0.005771 -3.275283 -1.147404 0
M  V30 74 H -0.879307 -2.363039 0.892095 0
M  V30 END ATOM
M  V30 BEGIN BOND
M  V30 1 2 1 2
M  V30 2 1 2 3
M  V30 3 1 3 4
M  V30 4 1 4 5
M  V30 5 1 5 6
M  V30 6 1 6 7
M  V30 7 1 7 8
M  V30 8 1 8 9
M  V30 9 1 9 10
M  V30 10 1 4 11
M  V30 11 1 11 12
M  V30 12 1 12 13
M  V30 13 1 13 14
M  V30 14 1 14 15
M  V30 15 1 2 16
M  V30 16 1 16 17
M  V30 17 2 17 18
M  V30 18 1 18 19
M  V30 19 2 19 20
M  V30 20 1 20 21
M  V30 21 1 21 22
M  V30 22 2 22 23
M  V30 23 1 23 24
M  V30 24 2 24 25
M  V30 25 1 25 26
M  V30 26 2 26 27
M  V30 27 1 27 28
M  V30 28 1 28 29
M  V30 29 1 29 30
M  V30 30 1 30 31
M  V30 31 1 31 32
M  V30 32 1 32 33
M  V30 33 1 27 34
M  V30 34 2 34 35
M  V30 35 1 23 36
M  V30 36 2 36 37
M  V30 37 1 15 4
M  V30 38 1 37 17
M  V30 39 1 10 5
M  V30 40 1 36 20
M  V30 41 1 35 24
M  V30 42 1 33 28
M  V30 43 1 3 38
M  V30 44 1 3 39
M  V30 45 1 6 40
M  V30 46 1 6 41
M  V30 47 1 7 42
M  V30 48 1 7 43
M  V30 49 1 9 44
M  V30 50 1 9 45
M  V30 51 1 10 46
M  V30 52 1 10 47
M  V30 53 1 11 48
M  V30 54 1 11 49
M  V30 55 1 12 50
M  V30 56 1 12 51
M  V30 57 1 13 52
M  V30 58 1 13 53
M  V30 59 1 14 54
M  V30 60 1 14 55
M  V30 61 1 15 56
M  V30 62 1 15 57
M  V30 63 1 16 58
M  V30 64 1 18 59
M  V30 65 1 19 60
M  V30 66 1 21 61
M  V30 67 1 25 62
M  V30 68 1 26 63
M  V30 69 1 29 64
M  V30 70 1 29 65
M  V30 71 1 30 66
M  V30 72 1 30 67
M  V30 73 1 32 68
M  V30 74 1 32 69
M  V30 75 1 33 70
M  V30 76 1 33 71
M  V30 77 1 34 72
M  V30 78 1 35 73
M  V30 79 1 37 74
M  V30 END BOND
M  V30 END CTAB
M  END
>  <Dataset>  (8) 
ChEMBL_Kinases

>  <Ligand_Instance>  (8) 
nan

>  <PDB_ID>  (8) 
nan

>  <Standardized_SMILES>  (8) 
O=C(CC1(N2CCOCC2)CCCCC1)Nc1ccc2[nH]nc(-c3ccc(N4CCOCC4)cc3)c2c1

>  <Name>  (8) 
nan

>  <Pocket>  (8) 
nan

>  <ATP_Site>  (8) 
nan

>  <Peripheral>  (8) 
nan

>  <Num_H_Atoms_ProtBoundConf>  (8) 
nan

>  <Num_Resolved_Atoms>  (8) 
nan

>  <Num_Not_Resolved_Atoms>  (8) 
nan

$$$$
CHEMBL3542333
     RDKit          3D

  0  0  0  0  0  0  0  0  0  0999 V3000
M  V30 BEGIN CTAB
M  V30 COUNTS 44 46 0 0 0
M  V30 BEGIN ATOM
M  V30 1 C 0.166343 -3.678920 2.922574 0
M  V30 2 C 0.211920 -2.325946 2.258741 0
M  V30 3 N 1.266682 -1.478818 2.349747 0
M  V30 4 C 1.074461 -0.333734 1.673601 0
M  V30 5 C 2.065053 0.727004 1.677247 0
M  V30 6 C 2.714233 1.315045 0.694402 0
M  V30 7 C 2.543214 0.970566 -0.687978 0
M  V30 8 O 1.809771 0.089215 -1.145716 0
M  V30 9 N 3.387960 1.844252 -1.410718 0
M  V30 10 C 4.049069 2.690612 -0.477907 0
M  V30 11 C 4.970549 3.708758 -0.658399 0
M  V30 12 C 5.516873 4.436731 0.378598 0
M  V30 13 C 5.099955 4.106119 1.656636 0
M  V30 14 F 5.584958 4.770345 2.742137 0
M  V30 15 C 4.182372 3.099473 1.902165 0
M  V30 16 C 3.671667 2.406560 0.818548 0
M  V30 17 C -0.184754 -0.481646 1.128840 0
M  V30 18 C -0.881333 0.543988 0.315852 0
M  V30 19 C -0.732975 -1.694093 1.472016 0
M  V30 20 C -1.995364 -2.336984 1.170268 0
M  V30 21 O -2.213827 -3.503225 1.642372 0
M  V30 22 N -3.104340 -1.906025 0.410073 0
M  V30 23 C -4.311141 -2.631621 0.172091 0
M  V30 24 C -4.048960 -3.935560 -0.550600 0
M  V30 25 N -5.335177 -4.610280 -0.756142 0
M  V30 26 H -0.794975 -3.686214 3.481236 0
M  V30 27 H 0.284380 -4.481250 2.189893 0
M  V30 28 H 0.988163 -3.754048 3.631762 0
M  V30 29 H 2.128840 -1.718737 2.897049 0
M  V30 30 H 2.296287 1.085880 2.694105 0
M  V30 31 H 3.455917 1.807411 -2.457058 0
M  V30 32 H 5.260912 3.923999 -1.688014 0
M  V30 33 H 6.238993 5.231335 0.206602 0
M  V30 34 H 3.848968 2.833144 2.905521 0
M  V30 35 H -1.816419 0.923138 0.783511 0
M  V30 36 H -1.082998 0.221348 -0.713761 0
M  V30 37 H -0.206471 1.440209 0.213942 0
M  V30 38 H -2.993345 -0.955271 -0.004330 0
M  V30 39 H -4.917206 -2.788062 1.091358 0
M  V30 40 H -4.959432 -2.042889 -0.519927 0
M  V30 41 H -3.324514 -4.584308 -0.061863 0
M  V30 42 H -3.713469 -3.622856 -1.582364 0
M  V30 43 H -5.485377 -4.830940 -1.745038 0
M  V30 44 H -5.317576 -5.464528 -0.143484 0
M  V30 END ATOM
M  V30 BEGIN BOND
M  V30 1 1 1 2
M  V30 2 1 2 3
M  V30 3 1 3 4
M  V30 4 1 4 5
M  V30 5 2 5 6
M  V30 6 1 6 7
M  V30 7 2 7 8
M  V30 8 1 7 9
M  V30 9 1 9 10
M  V30 10 2 10 11
M  V30 11 1 11 12
M  V30 12 2 12 13
M  V30 13 1 13 14
M  V30 14 1 13 15
M  V30 15 2 15 16
M  V30 16 2 4 17
M  V30 17 1 17 18
M  V30 18 1 17 19
M  V30 19 1 19 20
M  V30 20 2 20 21
M  V30 21 1 20 22
M  V30 22 1 22 23
M  V30 23 1 23 24
M  V30 24 1 24 25
M  V30 25 2 19 2
M  V30 26 1 16 6
M  V30 27 1 16 10
M  V30 28 1 1 26
M  V30 29 1 1 27
M  V30 30 1 1 28
M  V30 31 1 3 29
M  V30 32 1 5 30
M  V30 33 1 9 31
M  V30 34 1 11 32
M  V30 35 1 12 33
M  V30 36 1 15 34
M  V30 37 1 18 35
M  V30 38 1 18 36
M  V30 39 1 18 37
M  V30 40 1 22 38
M  V30 41 1 23 39
M  V30 42 1 23 40
M  V30 43 1 24 41
M  V30 44 1 24 42
M  V30 45 1 25 43
M  V30 46 1 25 44
M  V30 END BOND
M  V30 END CTAB
M  END
>  <Dataset>  (9) 
ChEMBL_Kinases

>  <Ligand_Instance>  (9) 
nan

>  <PDB_ID>  (9) 
nan

>  <Standardized_SMILES>  (9) 
Cc1[nH]c(/C=C2\C(=O)Nc3ccc(F)cc32)c(C)c1C(=O)NCCN

>  <Name>  (9) 
nan

>  <Pocket>  (9) 
nan

>  <ATP_Site>  (9) 
nan

>  <Peripheral>  (9) 
nan

>  <Num_H_Atoms_ProtBoundConf>  (9) 
nan

>  <Num_Resolved_Atoms>  (9) 
nan

>  <Num_Not_Resolved_Atoms>  (9) 
nan

$$$$
CHEMBL3542344
     RDKit          3D

  0  0  0  0  0  0  0  0  0  0999 V3000
M  V30 BEGIN CTAB
M  V30 COUNTS 50 52 0 0 0
M  V30 BEGIN ATOM
M  V30 1 C 3.403605 -4.228097 5.196578 0
M  V30 2 C 3.448420 -4.594546 3.733224 0
M  V30 3 N 3.890821 -3.446542 2.957154 0
M  V30 4 C 3.957709 -3.725845 1.541579 0
M  V30 5 C 4.412429 -2.545744 0.742106 0
M  V30 6 N 3.583775 -1.382571 0.845702 0
M  V30 7 C 2.221599 -1.345061 0.475131 0
M  V30 8 O 1.899194 -2.487594 0.053623 0
M  V30 9 C 1.298441 -0.227825 0.540524 0
M  V30 10 C 1.385356 1.076003 0.943971 0
M  V30 11 C 2.632111 1.685632 1.472941 0
M  V30 12 N 0.211910 1.716347 0.798974 0
M  V30 13 C -0.669797 0.830300 0.292049 0
M  V30 14 C -2.041740 1.268809 0.079344 0
M  V30 15 C -2.782873 1.315632 -0.992984 0
M  V30 16 C -2.316612 0.903822 -2.286801 0
M  V30 17 O -1.174284 0.479588 -2.583581 0
M  V30 18 N -3.391810 1.065144 -3.196144 0
M  V30 19 C -4.483189 1.566521 -2.458400 0
M  V30 20 C -5.771417 1.909255 -2.816049 0
M  V30 21 C -6.699552 2.393553 -1.904697 0
M  V30 22 C -6.342882 2.547863 -0.578334 0
M  V30 23 F -7.214032 3.017873 0.352783 0
M  V30 24 C -5.060365 2.215533 -0.178406 0
M  V30 25 C -4.171489 1.737968 -1.118991 0
M  V30 26 C -0.027532 -0.379511 0.123073 0
M  V30 27 C -0.660325 -1.628491 -0.377184 0
M  V30 28 H 4.300614 -4.621124 5.682908 0
M  V30 29 H 2.484956 -4.652597 5.688995 0
M  V30 30 H 3.386811 -3.110417 5.355859 0
M  V30 31 H 2.473066 -4.955687 3.349639 0
M  V30 32 H 4.191159 -5.407894 3.540709 0
M  V30 33 H 4.740365 -3.017096 3.334176 0
M  V30 34 H 3.003401 -4.172972 1.205499 0
M  V30 35 H 4.723726 -4.525472 1.396383 0
M  V30 36 H 4.495293 -2.854786 -0.321785 0
M  V30 37 H 5.449681 -2.322350 1.062101 0
M  V30 38 H 4.008564 -0.507422 1.217039 0
M  V30 39 H 2.989640 1.229945 2.414410 0
M  V30 40 H 2.437361 2.771202 1.745853 0
M  V30 41 H 3.397609 1.692610 0.676806 0
M  V30 42 H 0.082446 2.724185 1.055730 0
M  V30 43 H -2.554370 1.627012 0.993202 0
M  V30 44 H -3.322049 0.836914 -4.208320 0
M  V30 45 H -6.093881 1.801362 -3.859460 0
M  V30 46 H -7.714775 2.669766 -2.156915 0
M  V30 47 H -4.702719 2.310674 0.858265 0
M  V30 48 H -0.419752 -2.473845 0.327707 0
M  V30 49 H -0.261072 -1.956471 -1.365582 0
M  V30 50 H -1.732023 -1.464990 -0.481134 0
M  V30 END ATOM
M  V30 BEGIN BOND
M  V30 1 1 1 2
M  V30 2 1 2 3
M  V30 3 1 3 4
M  V30 4 1 4 5
M  V30 5 1 5 6
M  V30 6 1 6 7
M  V30 7 2 7 8
M  V30 8 1 7 9
M  V30 9 2 9 10
M  V30 10 1 10 11
M  V30 11 1 10 12
M  V30 12 1 12 13
M  V30 13 1 13 14
M  V30 14 2 14 15
M  V30 15 1 15 16
M  V30 16 2 16 17
M  V30 17 1 16 18
M  V30 18 1 18 19
M  V30 19 2 19 20
M  V30 20 1 20 21
M  V30 21 2 21 22
M  V30 22 1 22 23
M  V30 23 1 22 24
M  V30 24 2 24 25
M  V30 25 2 13 26
M  V30 26 1 26 27
M  V30 27 1 26 9
M  V30 28 1 25 15
M  V30 29 1 25 19
M  V30 30 1 1 28
M  V30 31 1 1 29
M  V30 32 1 1 30
M  V30 33 1 2 31
M  V30 34 1 2 32
M  V30 35 1 3 33
M  V30 36 1 4 34
M  V30 37 1 4 35
M  V30 38 1 5 36
M  V30 39 1 5 37
M  V30 40 1 6 38
M  V30 41 1 11 39
M  V30 42 1 11 40
M  V30 43 1 11 41
M  V30 44 1 12 42
M  V30 45 1 14 43
M  V30 46 1 18 44
M  V30 47 1 20 45
M  V30 48 1 21 46
M  V30 49 1 24 47
M  V30 50 1 27 48
M  V30 51 1 27 49
M  V30 52 1 27 50
M  V30 END BOND
M  V30 END CTAB
M  END
>  <Dataset>  (10) 
ChEMBL_Kinases

>  <Ligand_Instance>  (10) 
nan

>  <PDB_ID>  (10) 
nan

>  <Standardized_SMILES>  (10) 
CCNCCNC(=O)c1c(C)[nH]c(/C=C2\C(=O)Nc3ccc(F)cc32)c1C

>  <Name>  (10) 
nan

>  <Pocket>  (10) 
nan

>  <ATP_Site>  (10) 
nan

>  <Peripheral>  (10) 
nan

>  <Num_H_Atoms_ProtBoundConf>  (10) 
nan

>  <Num_Resolved_Atoms>  (10) 
nan

>  <Num_Not_Resolved_Atoms>  (10) 
nan

$$$$
CHEMBL3809044
     RDKit          3D

  0  0  0  0  0  0  0  0  0  0999 V3000
M  V30 BEGIN CTAB
M  V30 COUNTS 45 49 0 0 0
M  V30 BEGIN ATOM
M  V30 1 C 3.283743 -3.867053 -0.636558 0
M  V30 2 C 1.887930 -3.633873 -1.088193 0
M  V30 3 N 0.939327 -4.452129 -1.589341 0
M  V30 4 C -0.269895 -3.983096 -1.937257 0
M  V30 5 C -1.151772 -4.918940 -2.436825 0
M  V30 6 C -2.408755 -4.453928 -2.802288 0
M  V30 7 C -2.816852 -3.118243 -2.692482 0
M  V30 8 C -1.884454 -2.242021 -2.186048 0
M  V30 9 C -0.625643 -2.661057 -1.811629 0
M  V30 10 N 0.345235 -1.900751 -1.313475 0
M  V30 11 C 1.537433 -2.310736 -0.960132 0
M  V30 12 N 2.377013 -1.285432 -0.452072 0
M  V30 13 C 2.559103 -0.318352 0.647010 0
M  V30 14 C 1.314951 0.479657 0.723340 0
M  V30 15 C 0.544986 1.545743 0.682712 0
M  V30 16 C -0.952038 1.721037 0.893015 0
M  V30 17 C -1.596888 2.264821 -0.327549 0 CFG=2
M  V30 18 C -2.659270 3.296668 -0.068733 0
M  V30 19 N -3.415684 3.554556 -1.287494 0
M  V30 20 C -3.935699 2.504137 -2.134892 0
M  V30 21 O -4.908352 2.560136 -2.931566 0
M  V30 22 C -3.234135 1.203476 -2.051820 0
M  V30 23 C -3.341760 -0.058895 -2.605099 0
M  V30 24 C -2.371459 -0.878025 -2.089255 0
M  V30 25 N -1.744737 -0.049373 -1.257846 0
M  V30 26 C -2.175766 1.189208 -1.168990 0
M  V30 27 H 3.950019 -3.227747 -1.276891 0
M  V30 28 H 3.450363 -3.517094 0.409769 0
M  V30 29 H 3.614362 -4.904476 -0.785852 0
M  V30 30 H -0.899550 -5.951445 -2.544447 0
M  V30 31 H -3.102236 -5.197501 -3.196777 0
M  V30 32 H -3.814507 -2.836934 -2.999458 0
M  V30 33 H 3.104838 -1.327267 -1.222544 0
M  V30 34 H 2.782319 -0.912924 1.547193 0
M  V30 35 H 3.435008 0.317283 0.348766 0
M  V30 36 H 0.610954 -0.330894 1.008427 0
M  V30 37 H 0.914780 2.568717 0.467121 0
M  V30 38 H -1.314781 0.719729 1.180950 0
M  V30 39 H -1.106825 2.397080 1.738620 0
M  V30 40 H -0.787736 2.809251 -0.903056 0
M  V30 41 H -2.136439 4.236343 0.201642 0
M  V30 42 H -3.328673 3.051518 0.788792 0
M  V30 43 H -3.655629 4.519065 -1.665803 0
M  V30 44 H -4.078071 -0.360906 -3.333807 0
M  V30 45 H -0.957338 -0.261411 -0.649810 0
M  V30 END ATOM
M  V30 BEGIN BOND
M  V30 1 1 1 2
M  V30 2 2 2 3
M  V30 3 1 3 4
M  V30 4 2 4 5
M  V30 5 1 5 6
M  V30 6 2 6 7
M  V30 7 1 7 8
M  V30 8 2 8 9
M  V30 9 1 9 10
M  V30 10 2 10 11
M  V30 11 1 11 12
M  V30 12 1 12 13
M  V30 13 1 13 14
M  V30 14 2 14 15
M  V30 15 1 15 16
M  V30 16 1 16 17
M  V30 17 1 17 18
M  V30 18 1 18 19
M  V30 19 1 19 20
M  V30 20 2 20 21
M  V30 21 1 20 22
M  V30 22 1 22 23
M  V30 23 2 23 24
M  V30 24 1 24 25
M  V30 25 1 25 26
M  V30 26 1 11 2
M  V30 27 1 26 17
M  V30 28 1 9 4
M  V30 29 2 26 22
M  V30 30 1 24 8
M  V30 31 1 1 27
M  V30 32 1 1 28
M  V30 33 1 1 29
M  V30 34 1 5 30
M  V30 35 1 6 31
M  V30 36 1 7 32
M  V30 37 1 12 33
M  V30 38 1 13 34
M  V30 39 1 13 35
M  V30 40 1 14 36
M  V30 41 1 15 37
M  V30 42 1 16 38
M  V30 43 1 16 39
M  V30 44 1 17 40 CFG=3
M  V30 45 1 18 41
M  V30 46 1 18 42
M  V30 47 1 19 43
M  V30 48 1 23 44
M  V30 49 1 25 45
M  V30 END BOND
M  V30 END CTAB
M  END
>  <Dataset>  (11) 
ChEMBL_Kinases

>  <Ligand_Instance>  (11) 
nan

>  <PDB_ID>  (11) 
nan

>  <Standardized_SMILES>  (11) 
Cc1nc2cccc3c2nc1NC/C=C/C[C@@H]1CNC(=O)c2cc-3[nH]c21

>  <Name>  (11) 
nan

>  <Pocket>  (11) 
nan

>  <ATP_Site>  (11) 
nan

>  <Peripheral>  (11) 
nan

>  <Num_H_Atoms_ProtBoundConf>  (11) 
nan

>  <Num_Resolved_Atoms>  (11) 
nan

>  <Num_Not_Resolved_Atoms>  (11) 
nan

$$$$
CHEMBL3809124
     RDKit          3D

  0  0  0  0  0  0  0  0  0  0999 V3000
M  V30 BEGIN CTAB
M  V30 COUNTS 71 75 0 0 0
M  V30 BEGIN ATOM
M  V30 1 C 3.173363 -0.227447 5.760166 0
M  V30 2 O 3.665747 -0.433747 4.459817 0
M  V30 3 C 3.858076 -1.734693 3.953145 0
M  V30 4 C 3.546668 -2.797970 4.777626 0
M  V30 5 C 3.699366 -4.094328 4.375568 0
M  V30 6 C 4.187711 -4.330103 3.085003 0
M  V30 7 C 4.490732 -3.249652 2.283218 0
M  V30 8 O 4.973453 -3.504852 1.010974 0
M  V30 9 C 5.156757 -4.834661 0.530334 0
M  V30 10 C 4.346706 -1.926546 2.661909 0
M  V30 11 C 4.669576 -0.759221 1.834465 0
M  V30 12 N 3.523209 -0.050247 1.306834 0
M  V30 13 C 2.531824 -0.603619 0.458133 0
M  V30 14 O 2.581301 -1.806979 0.087464 0
M  V30 15 C 1.393134 0.168088 -0.044250 0
M  V30 16 C 0.461822 -0.546887 -0.890667 0
M  V30 17 C -0.790598 -0.977616 -0.436726 0
M  V30 18 C -1.742072 -1.672379 -1.194036 0
M  V30 19 C -3.038464 -2.056504 -0.578948 0
M  V30 20 N -3.212613 -3.468111 -0.791575 0
M  V30 21 C -4.202520 -4.243560 -1.442482 0
M  V30 22 O -4.144441 -5.488746 -1.501156 0
M  V30 23 N -5.207191 -3.405138 -1.981106 0
M  V30 24 C -5.148745 -1.995098 -1.840728 0
M  V30 25 C -6.249270 -1.210557 -2.435243 0
M  V30 26 C -4.197716 -1.321984 -1.220467 0
M  V30 27 C -4.045776 0.098667 -1.030858 0
M  V30 28 O -3.073993 0.622975 -0.408644 0
M  V30 29 N -4.670152 1.314867 -1.324037 0
M  V30 30 C -3.993426 2.464147 -0.838819 0
M  V30 31 C -4.085849 3.134887 0.351177 0
M  V30 32 C -3.301483 4.245747 0.576257 0
M  V30 33 C -2.423534 4.684996 -0.391712 0
M  V30 34 N -1.553752 5.733740 -0.419944 0
M  V30 35 N -0.908964 5.762763 -1.576115 0
M  V30 36 C -1.345541 4.734055 -2.324061 0
M  V30 37 C -2.296932 4.040672 -1.605030 0
M  V30 38 C -3.100520 2.914312 -1.818105 0
M  V30 39 C -1.400627 -1.950079 -2.501071 0
M  V30 40 C -0.176582 -1.548392 -3.002366 0
M  V30 41 C 0.741940 -0.860772 -2.221579 0
M  V30 42 F 1.940107 -0.476929 -2.740026 0
M  V30 43 H 3.899549 -0.512511 6.545237 0
M  V30 44 H 2.278753 -0.872360 5.890016 0
M  V30 45 H 2.916349 0.835633 5.881335 0
M  V30 46 H 3.165205 -2.705087 5.786667 0
M  V30 47 H 3.481763 -4.982681 4.950831 0
M  V30 48 H 4.320737 -5.348795 2.733788 0
M  V30 49 H 5.426000 -4.825208 -0.538639 0
M  V30 50 H 4.259433 -5.475643 0.699508 0
M  V30 51 H 6.049000 -5.234672 1.080457 0
M  V30 52 H 5.248637 -0.039117 2.437299 0
M  V30 53 H 5.258573 -1.125285 0.960059 0
M  V30 54 H 3.350610 0.975644 1.536316 0
M  V30 55 H 0.796074 0.598982 0.811474 0
M  V30 56 H 1.767596 1.056675 -0.593316 0
M  V30 57 H -0.965065 -0.722548 0.605131 0
M  V30 58 H -3.015413 -1.796422 0.490894 0
M  V30 59 H -2.377408 -3.912008 -0.323748 0
M  V30 60 H -6.003649 -3.864790 -2.492128 0
M  V30 61 H -6.998454 -1.929951 -2.903857 0
M  V30 62 H -6.850791 -0.672004 -1.700690 0
M  V30 63 H -5.851001 -0.600555 -3.262134 0
M  V30 64 H -5.547214 1.161827 -1.863634 0
M  V30 65 H -4.809106 2.681831 1.011190 0
M  V30 66 H -3.423249 4.726476 1.532498 0
M  V30 67 H -1.397734 6.429246 0.344118 0
M  V30 68 H -1.029899 4.453844 -3.336437 0
M  V30 69 H -2.915809 2.485295 -2.813254 0
M  V30 70 H -2.118608 -2.485521 -3.104404 0
M  V30 71 H 0.091662 -1.772825 -4.047315 0
M  V30 END ATOM
M  V30 BEGIN BOND
M  V30 1 1 1 2
M  V30 2 1 2 3
M  V30 3 2 3 4
M  V30 4 1 4 5
M  V30 5 2 5 6
M  V30 6 1 6 7
M  V30 7 1 7 8
M  V30 8 1 8 9
M  V30 9 2 7 10
M  V30 10 1 10 11
M  V30 11 1 11 12
M  V30 12 1 12 13
M  V30 13 2 13 14
M  V30 14 1 13 15
M  V30 15 1 15 16
M  V30 16 2 16 17
M  V30 17 1 17 18
M  V30 18 1 18 19
M  V30 19 1 19 20
M  V30 20 1 20 21
M  V30 21 2 21 22
M  V30 22 1 21 23
M  V30 23 1 23 24
M  V30 24 1 24 25
M  V30 25 2 24 26
M  V30 26 1 26 27
M  V30 27 2 27 28
M  V30 28 1 27 29
M  V30 29 1 29 30
M  V30 30 2 30 31
M  V30 31 1 31 32
M  V30 32 2 32 33
M  V30 33 1 33 34
M  V30 34 1 34 35
M  V30 35 2 35 36
M  V30 36 1 36 37
M  V30 37 2 37 38
M  V30 38 2 18 39
M  V30 39 1 39 40
M  V30 40 2 40 41
M  V30 41 1 41 42
M  V30 42 1 10 3
M  V30 43 1 41 16
M  V30 44 1 26 19
M  V30 45 1 38 30
M  V30 46 1 37 33
M  V30 47 1 1 43
M  V30 48 1 1 44
M  V30 49 1 1 45
M  V30 50 1 4 46
M  V30 51 1 5 47
M  V30 52 1 6 48
M  V30 53 1 9 49
M  V30 54 1 9 50
M  V30 55 1 9 51
M  V30 56 1 11 52
M  V30 57 1 11 53
M  V30 58 1 12 54
M  V30 59 1 15 55
M  V30 60 1 15 56
M  V30 61 1 17 57
M  V30 62 1 19 58
M  V30 63 1 20 59
M  V30 64 1 23 60
M  V30 65 1 25 61
M  V30 66 1 25 62
M  V30 67 1 25 63
M  V30 68 1 29 64
M  V30 69 1 31 65
M  V30 70 1 32 66
M  V30 71 1 34 67
M  V30 72 1 36 68
M  V30 73 1 38 69
M  V30 74 1 39 70
M  V30 75 1 40 71
M  V30 END BOND
M  V30 END CTAB
M  END
>  <Dataset>  (12) 
ChEMBL_Kinases

>  <Ligand_Instance>  (12) 
nan

>  <PDB_ID>  (12) 
nan

>  <Standardized_SMILES>  (12) 
COc1cccc(OC)c1CNC(=O)Cc1cc(C2NC(=O)NC(C)=C2C(=O)Nc2ccc3[nH]ncc3c2)ccc1F

>  <Name>  (12) 
nan

>  <Pocket>  (12) 
nan

>  <ATP_Site>  (12) 
nan

>  <Peripheral>  (12) 
nan

>  <Num_H_Atoms_ProtBoundConf>  (12) 
nan

>  <Num_Resolved_Atoms>  (12) 
nan

>  <Num_Not_Resolved_Atoms>  (12) 
nan

$$$$
CHEMBL3809127
     RDKit          3D

  0  0  0  0  0  0  0  0  0  0999 V3000
M  V30 BEGIN CTAB
M  V30 COUNTS 50 54 0 0 0
M  V30 BEGIN ATOM
M  V30 1 C 4.426887 -1.149785 1.886206 0
M  V30 2 C 3.681129 -1.315804 0.638298 0
M  V30 3 N 4.027012 -1.666248 -0.614657 0
M  V30 4 C 3.115169 -1.775279 -1.597112 0
M  V30 5 C 3.293489 -2.134917 -2.907470 0
M  V30 6 C 2.188225 -2.198785 -3.747241 0
M  V30 7 C 0.883462 -1.929777 -3.393334 0
M  V30 8 C 0.686048 -1.568204 -2.088596 0
M  V30 9 C 1.824364 -1.514496 -1.271829 0
M  V30 10 N 1.499522 -1.169357 -0.038305 0
M  V30 11 C 2.383964 -1.056048 0.952076 0
M  V30 12 N 1.616370 -0.693750 2.063860 0
M  V30 13 C 0.863632 -0.014895 3.033471 0 CFG=1
M  V30 14 C 1.987459 0.635429 3.942997 0
M  V30 15 C 0.019540 1.120957 2.714750 0
M  V30 16 C -1.121136 1.279129 1.869206 0
M  V30 17 C -2.419536 0.613374 1.979066 0
M  V30 18 C -2.560917 -0.820755 1.526643 0 CFG=1
M  V30 19 C -4.064542 -1.101094 1.320607 0
M  V30 20 N -4.599123 -0.070113 0.404729 0
M  V30 21 C -3.970420 -0.084642 -0.896669 0
M  V30 22 O -4.555460 0.291262 -1.934245 0
M  V30 23 C -2.587459 -0.568345 -0.956211 0
M  V30 24 C -1.769712 -0.716108 -2.086797 0
M  V30 25 C -0.624251 -1.231714 -1.552369 0
M  V30 26 N -0.718753 -1.394261 -0.226259 0
M  V30 27 C -1.910050 -0.993149 0.194503 0
M  V30 28 H 5.439664 -1.611917 1.718865 0
M  V30 29 H 4.626590 -0.109545 2.180898 0
M  V30 30 H 4.024564 -1.714258 2.756918 0
M  V30 31 H 4.310686 -2.346465 -3.190361 0
M  V30 32 H 2.368716 -2.491540 -4.793773 0
M  V30 33 H 0.003741 -1.964515 -4.004170 0
M  V30 34 H 1.803207 -1.712087 2.369041 0
M  V30 35 H 0.432247 -0.738607 3.764689 0
M  V30 36 H 2.618519 1.170336 3.207739 0
M  V30 37 H 2.570457 -0.162428 4.414190 0
M  V30 38 H 1.532933 1.369343 4.608458 0
M  V30 39 H 0.751284 1.970729 2.429229 0
M  V30 40 H -0.298889 1.546421 3.757937 0
M  V30 41 H -0.774797 1.251357 0.754666 0
M  V30 42 H -1.377951 2.413590 1.897766 0
M  V30 43 H -2.864365 0.648020 3.008601 0
M  V30 44 H -3.223006 1.161331 1.380513 0
M  V30 45 H -2.190204 -1.519665 2.268535 0
M  V30 46 H -4.258484 -2.114166 0.972344 0
M  V30 47 H -4.535137 -0.916183 2.306975 0
M  V30 48 H -5.347965 0.649557 0.559796 0
M  V30 49 H -1.883872 -0.520510 -3.136581 0
M  V30 50 H -0.421328 -1.672862 0.721676 0
M  V30 END ATOM
M  V30 BEGIN BOND
M  V30 1 1 1 2
M  V30 2 2 2 3
M  V30 3 1 3 4
M  V30 4 2 4 5
M  V30 5 1 5 6
M  V30 6 2 6 7
M  V30 7 1 7 8
M  V30 8 2 8 9
M  V30 9 1 9 10
M  V30 10 2 10 11
M  V30 11 1 11 12
M  V30 12 1 12 13
M  V30 13 1 13 14
M  V30 14 1 13 15
M  V30 15 1 15 16
M  V30 16 1 16 17
M  V30 17 1 17 18
M  V30 18 1 18 19
M  V30 19 1 19 20
M  V30 20 1 20 21
M  V30 21 2 21 22
M  V30 22 1 21 23
M  V30 23 1 23 24
M  V30 24 2 24 25
M  V30 25 1 25 26
M  V30 26 1 26 27
M  V30 27 1 11 2
M  V30 28 1 27 18
M  V30 29 1 9 4
M  V30 30 2 27 23
M  V30 31 1 25 8
M  V30 32 1 1 28
M  V30 33 1 1 29
M  V30 34 1 1 30
M  V30 35 1 5 31
M  V30 36 1 6 32
M  V30 37 1 7 33
M  V30 38 1 12 34
M  V30 39 1 13 35 CFG=1
M  V30 40 1 14 36
M  V30 41 1 14 37
M  V30 42 1 14 38
M  V30 43 1 15 39
M  V30 44 1 15 40
M  V30 45 1 16 41
M  V30 46 1 16 42
M  V30 47 1 17 43
M  V30 48 1 17 44
M  V30 49 1 18 45 CFG=1
M  V30 50 1 19 46
M  V30 51 1 19 47
M  V30 52 1 20 48
M  V30 53 1 24 49
M  V30 54 1 26 50
M  V30 END BOND
M  V30 END CTAB
M  END
>  <Dataset>  (13) 
ChEMBL_Kinases

>  <Ligand_Instance>  (13) 
nan

>  <PDB_ID>  (13) 
nan

>  <Standardized_SMILES>  (13) 
Cc1nc2cccc3c2nc1N[C@@H](C)CCC[C@H]1CNC(=O)c2cc-3[nH]c21

>  <Name>  (13) 
nan

>  <Pocket>  (13) 
nan

>  <ATP_Site>  (13) 
nan

>  <Peripheral>  (13) 
nan

>  <Num_H_Atoms_ProtBoundConf>  (13) 
nan

>  <Num_Resolved_Atoms>  (13) 
nan

>  <Num_Not_Resolved_Atoms>  (13) 
nan

$$$$
CHEMBL3809377
     RDKit          3D

  0  0  0  0  0  0  0  0  0  0999 V3000
M  V30 BEGIN CTAB
M  V30 COUNTS 50 54 0 0 0
M  V30 BEGIN ATOM
M  V30 1 C 3.045862 -4.127139 -0.311438 0
M  V30 2 C 1.631258 -3.605237 -0.265513 0
M  V30 3 N 0.615452 -4.477523 -0.321446 0
M  V30 4 C -0.659887 -4.102899 -0.285435 0
M  V30 5 C -1.784954 -4.906041 -0.343339 0
M  V30 6 C -3.082204 -4.390821 -0.303103 0
M  V30 7 C -3.319564 -3.013376 -0.199579 0
M  V30 8 C -2.148815 -2.318622 -0.149357 0
M  V30 9 C -0.818846 -2.760941 -0.186266 0
M  V30 10 N 0.190795 -1.896373 -0.131499 0
M  V30 11 C 1.458956 -2.245774 -0.166628 0
M  V30 12 N 2.453862 -1.263605 -0.131615 0
M  V30 13 C 2.893962 0.063674 0.037639 0
M  V30 14 C 2.806055 0.648500 1.398813 0 CFG=2
M  V30 15 C 3.577295 -0.175091 2.410737 0
M  V30 16 C 1.441421 0.905235 1.950188 0
M  V30 17 C 0.599024 1.811254 1.135247 0
M  V30 18 C -0.806298 1.868402 1.745254 0 CFG=1
M  V30 19 C -1.359798 3.240467 1.854153 0
M  V30 20 N -2.208661 3.541542 0.731176 0
M  V30 21 C -3.001112 2.703670 -0.144037 0
M  V30 22 O -3.890743 3.004582 -0.948785 0
M  V30 23 C -2.687716 1.293514 -0.046994 0
M  V30 24 C -3.069259 0.090551 -0.591713 0
M  V30 25 C -2.304825 -0.881827 -0.007861 0
M  V30 26 N -1.493454 -0.262657 0.866944 0
M  V30 27 C -1.688989 1.047253 0.870688 0
M  V30 28 H 3.544472 -3.807180 -1.245586 0
M  V30 29 H 3.529378 -3.654523 0.579249 0
M  V30 30 H 3.017193 -5.214465 -0.259182 0
M  V30 31 H -1.600548 -5.980945 -0.423393 0
M  V30 32 H -3.944673 -5.056868 -0.351993 0
M  V30 33 H -4.265894 -2.530387 -0.164413 0
M  V30 34 H 3.341422 -1.798842 -0.340080 0
M  V30 35 H 3.965022 0.230832 -0.303491 0
M  V30 36 H 2.304458 0.678891 -0.713268 0
M  V30 37 H 3.337360 1.662197 1.438285 0
M  V30 38 H 3.168415 -0.070626 3.422768 0
M  V30 39 H 4.668127 0.081578 2.363186 0
M  V30 40 H 3.547370 -1.263978 2.142882 0
M  V30 41 H 0.964337 0.018703 2.376634 0
M  V30 42 H 1.657838 1.522574 2.907491 0
M  V30 43 H 0.967937 2.861889 1.212237 0
M  V30 44 H 0.479779 1.530792 0.089052 0
M  V30 45 H -0.755011 1.360930 2.719777 0
M  V30 46 H -0.516953 3.968747 1.846887 0
M  V30 47 H -1.944773 3.346435 2.792811 0
M  V30 48 H -2.292653 4.554152 0.472339 0
M  V30 49 H -3.823047 -0.083507 -1.330036 0
M  V30 50 H -0.836850 -0.788551 1.470882 0
M  V30 END ATOM
M  V30 BEGIN BOND
M  V30 1 1 1 2
M  V30 2 2 2 3
M  V30 3 1 3 4
M  V30 4 2 4 5
M  V30 5 1 5 6
M  V30 6 2 6 7
M  V30 7 1 7 8
M  V30 8 2 8 9
M  V30 9 1 9 10
M  V30 10 2 10 11
M  V30 11 1 11 12
M  V30 12 1 12 13
M  V30 13 1 13 14
M  V30 14 1 14 15
M  V30 15 1 14 16
M  V30 16 1 16 17
M  V30 17 1 17 18
M  V30 18 1 18 19
M  V30 19 1 19 20
M  V30 20 1 20 21
M  V30 21 2 21 22
M  V30 22 1 21 23
M  V30 23 1 23 24
M  V30 24 2 24 25
M  V30 25 1 25 26
M  V30 26 1 26 27
M  V30 27 1 11 2
M  V30 28 1 27 18
M  V30 29 1 9 4
M  V30 30 2 27 23
M  V30 31 1 25 8
M  V30 32 1 1 28
M  V30 33 1 1 29
M  V30 34 1 1 30
M  V30 35 1 5 31
M  V30 36 1 6 32
M  V30 37 1 7 33
M  V30 38 1 12 34
M  V30 39 1 13 35
M  V30 40 1 13 36
M  V30 41 1 14 37 CFG=3
M  V30 42 1 15 38
M  V30 43 1 15 39
M  V30 44 1 15 40
M  V30 45 1 16 41
M  V30 46 1 16 42
M  V30 47 1 17 43
M  V30 48 1 17 44
M  V30 49 1 18 45 CFG=1
M  V30 50 1 19 46
M  V30 51 1 19 47
M  V30 52 1 20 48
M  V30 53 1 24 49
M  V30 54 1 26 50
M  V30 END BOND
M  V30 END CTAB
M  END
>  <Dataset>  (14) 
ChEMBL_Kinases

>  <Ligand_Instance>  (14) 
nan

>  <PDB_ID>  (14) 
nan

>  <Standardized_SMILES>  (14) 
Cc1nc2cccc3c2nc1NC[C@H](C)CC[C@H]1CNC(=O)c2cc-3[nH]c21

>  <Name>  (14) 
nan

>  <Pocket>  (14) 
nan

>  <ATP_Site>  (14) 
nan

>  <Peripheral>  (14) 
nan

>  <Num_H_Atoms_ProtBoundConf>  (14) 
nan

>  <Num_Resolved_Atoms>  (14) 
nan

>  <Num_Not_Resolved_Atoms>  (14) 
nan

$$$$
CHEMBL366312
     RDKit          3D

  0  0  0  0  0  0  0  0  0  0999 V3000
M  V30 BEGIN CTAB
M  V30 COUNTS 43 46 0 0 0
M  V30 BEGIN ATOM
M  V30 1 O -0.201564 -6.690542 -0.428310 0
M  V30 2 C -0.196805 -5.297459 -0.476408 0
M  V30 3 C 0.516955 -4.705881 0.703185 0
M  V30 4 N 0.550171 -3.264036 0.703071 0
M  V30 5 C 1.222854 -2.549487 -0.327110 0
M  V30 6 N 1.840798 -3.222371 -1.314348 0
M  V30 7 C 2.477827 -2.552010 -2.288640 0
M  V30 8 N 2.540445 -1.191071 -2.343180 0
M  V30 9 C 1.943617 -0.449656 -1.386621 0
M  V30 10 N 1.794721 0.860066 -1.113505 0
M  V30 11 C 1.068871 0.997779 0.025075 0
M  V30 12 C 0.800618 2.358124 0.485839 0
M  V30 13 C 1.787942 3.262649 0.841095 0
M  V30 14 C 1.497653 4.540632 1.272194 0
M  V30 15 C 0.192035 4.969518 1.366077 0
M  V30 16 C -0.822298 4.105572 1.023751 0
M  V30 17 C -0.498478 2.826868 0.593815 0
M  V30 18 C 0.750006 -0.283055 0.484021 0
M  V30 19 C -0.033953 -0.340512 1.707890 0
M  V30 20 C -1.416987 -0.325087 1.738617 0
M  V30 21 C -2.163354 -0.365399 2.897018 0
M  V30 22 C -1.528918 -0.424610 4.106506 0
M  V30 23 C -0.164433 -0.443248 4.156151 0
M  V30 24 C 0.552504 -0.401799 2.979484 0
M  V30 25 C 1.302154 -1.176879 -0.406985 0
M  V30 26 H -0.155914 -7.021483 0.518361 0
M  V30 27 H -1.275222 -4.987533 -0.424499 0
M  V30 28 H 0.255111 -4.949414 -1.423330 0
M  V30 29 H -0.029826 -5.046436 1.605006 0
M  V30 30 H 1.540744 -5.140920 0.779613 0
M  V30 31 H 0.064901 -2.772183 1.478752 0
M  V30 32 H 2.991308 -3.074720 -3.107804 0
M  V30 33 H 2.226522 1.533219 -1.767500 0
M  V30 34 H 2.824276 2.946406 0.774926 0
M  V30 35 H 2.252761 5.252506 1.550876 0
M  V30 36 H -0.067962 5.967962 1.701524 0
M  V30 37 H -1.847534 4.445974 1.098742 0
M  V30 38 H -1.343985 2.220041 0.347757 0
M  V30 39 H -1.929723 -0.278300 0.786965 0
M  V30 40 H -3.252051 -0.349556 2.834546 0
M  V30 41 H -2.101704 -0.456726 5.022129 0
M  V30 42 H 0.377878 -0.489676 5.091585 0
M  V30 43 H 1.633007 -0.416652 3.022460 0
M  V30 END ATOM
M  V30 BEGIN BOND
M  V30 1 1 1 2
M  V30 2 1 2 3
M  V30 3 1 3 4
M  V30 4 1 4 5
M  V30 5 2 5 6
M  V30 6 1 6 7
M  V30 7 2 7 8
M  V30 8 1 8 9
M  V30 9 1 9 10
M  V30 10 1 10 11
M  V30 11 1 11 12
M  V30 12 2 12 13
M  V30 13 1 13 14
M  V30 14 2 14 15
M  V30 15 1 15 16
M  V30 16 2 16 17
M  V30 17 2 11 18
M  V30 18 1 18 19
M  V30 19 2 19 20
M  V30 20 1 20 21
M  V30 21 2 21 22
M  V30 22 1 22 23
M  V30 23 2 23 24
M  V30 24 1 18 25
M  V30 25 1 25 5
M  V30 26 2 25 9
M  V30 27 1 17 12
M  V30 28 1 24 19
M  V30 29 1 1 26
M  V30 30 1 2 27
M  V30 31 1 2 28
M  V30 32 1 3 29
M  V30 33 1 3 30
M  V30 34 1 4 31
M  V30 35 1 7 32
M  V30 36 1 10 33
M  V30 37 1 13 34
M  V30 38 1 14 35
M  V30 39 1 15 36
M  V30 40 1 16 37
M  V30 41 1 17 38
M  V30 42 1 20 39
M  V30 43 1 21 40
M  V30 44 1 22 41
M  V30 45 1 23 42
M  V30 46 1 24 43
M  V30 END BOND
M  V30 END CTAB
M  END
>  <Dataset>  (15) 
ChEMBL_Kinases

>  <Ligand_Instance>  (15) 
nan

>  <PDB_ID>  (15) 
nan

>  <Standardized_SMILES>  (15) 
OCCNc1ncnc2[nH]c(-c3ccccc3)c(-c3ccccc3)c12

>  <Name>  (15) 
nan

>  <Pocket>  (15) 
nan

>  <ATP_Site>  (15) 
nan

>  <Peripheral>  (15) 
nan

>  <Num_H_Atoms_ProtBoundConf>  (15) 
nan

>  <Num_Resolved_Atoms>  (15) 
nan

>  <Num_Not_Resolved_Atoms>  (15) 
nan

$$$$
CHEMBL380946
     RDKit          3D

  0  0  0  0  0  0  0  0  0  0999 V3000
M  V30 BEGIN CTAB
M  V30 COUNTS 57 60 0 0 0
M  V30 BEGIN ATOM
M  V30 1 C 1.605275 2.375097 4.481382 0
M  V30 2 C 2.812458 1.858324 3.722647 0
M  V30 3 C 2.992014 0.372466 4.018581 0
M  V30 4 C 4.191348 -0.172414 3.273588 0
M  V30 5 N 4.084659 -0.038869 1.853900 0
M  V30 6 C 3.042713 -0.631519 1.087684 0
M  V30 7 O 2.199589 -1.298196 1.759713 0
M  V30 8 N 2.971724 -0.472402 -0.342067 0
M  V30 9 C 3.634782 0.143177 -1.500927 0
M  V30 10 C 2.465993 0.893244 -2.077430 0
M  V30 11 N 2.027302 1.988422 -2.723596 0
M  V30 12 N 0.719939 1.928722 -2.893773 0
M  V30 13 C 0.254737 0.784107 -2.360955 0
M  V30 14 N -1.032821 0.191330 -2.246456 0
M  V30 15 C -1.623198 0.626420 -1.029962 0
M  V30 16 O -0.823823 1.415122 -0.410495 0
M  V30 17 C -2.981060 0.252099 -0.494859 0 CFG=1
M  V30 18 C -4.092987 0.822937 -1.310688 0
M  V30 19 C -3.059496 -1.197460 -0.275494 0
M  V30 20 C -2.912260 -1.645177 1.036829 0
M  V30 21 C -2.969527 -2.993727 1.404157 0
M  V30 22 C -3.181314 -3.954614 0.441653 0
M  V30 23 C -3.236765 -5.264865 0.799069 0
M  V30 24 C -3.450879 -6.244076 -0.169480 0
M  V30 25 C -3.596386 -5.797077 -1.468056 0
M  V30 26 C -3.544548 -4.468831 -1.861704 0
M  V30 27 C -3.329388 -3.530733 -0.862001 0
M  V30 28 C -3.269042 -2.195868 -1.198633 0
M  V30 29 C 1.343996 0.099722 -1.831397 0
M  V30 30 C 1.906722 -1.078691 -1.122111 0
M  V30 31 H 1.858156 2.490454 5.547835 0
M  V30 32 H 1.277020 3.352356 4.091446 0
M  V30 33 H 0.742412 1.667893 4.348466 0
M  V30 34 H 3.691569 2.436742 4.060138 0
M  V30 35 H 2.704013 1.998771 2.633317 0
M  V30 36 H 2.075778 -0.182017 3.810839 0
M  V30 37 H 3.208820 0.287377 5.103192 0
M  V30 38 H 4.335210 -1.225627 3.561116 0
M  V30 39 H 5.082153 0.401713 3.605657 0
M  V30 40 H 4.784408 0.516694 1.280548 0
M  V30 41 H 4.442675 0.826351 -1.210133 0
M  V30 42 H 3.938839 -0.628537 -2.240494 0
M  V30 43 H 0.061776 2.603281 -3.351637 0
M  V30 44 H -1.597131 -0.456352 -2.837688 0
M  V30 45 H -3.008561 0.744477 0.519340 0
M  V30 46 H -5.028919 0.384316 -0.944881 0
M  V30 47 H -3.951830 0.724193 -2.399168 0
M  V30 48 H -4.153291 1.909961 -1.068868 0
M  V30 49 H -2.739338 -0.961210 1.880468 0
M  V30 50 H -2.849601 -3.292835 2.435222 0
M  V30 51 H -3.121541 -5.612211 1.823690 0
M  V30 52 H -3.503359 -7.302057 0.063980 0
M  V30 53 H -3.762766 -6.558858 -2.220198 0
M  V30 54 H -3.663949 -4.175976 -2.884721 0
M  V30 55 H -3.391295 -1.873226 -2.222093 0
M  V30 56 H 2.334610 -1.763432 -1.882051 0
M  V30 57 H 1.146399 -1.592665 -0.511352 0
M  V30 END ATOM
M  V30 BEGIN BOND
M  V30 1 1 1 2
M  V30 2 1 2 3
M  V30 3 1 3 4
M  V30 4 1 4 5
M  V30 5 1 5 6
M  V30 6 2 6 7
M  V30 7 1 6 8
M  V30 8 1 8 9
M  V30 9 1 9 10
M  V30 10 2 10 11
M  V30 11 1 11 12
M  V30 12 1 12 13
M  V30 13 1 13 14
M  V30 14 1 14 15
M  V30 15 2 15 16
M  V30 16 1 15 17
M  V30 17 1 17 18
M  V30 18 1 17 19
M  V30 19 2 19 20
M  V30 20 1 20 21
M  V30 21 2 21 22
M  V30 22 1 22 23
M  V30 23 2 23 24
M  V30 24 1 24 25
M  V30 25 2 25 26
M  V30 26 1 26 27
M  V30 27 2 27 28
M  V30 28 2 13 29
M  V30 29 1 29 30
M  V30 30 1 30 8
M  V30 31 1 29 10
M  V30 32 1 28 19
M  V30 33 1 27 22
M  V30 34 1 1 31
M  V30 35 1 1 32
M  V30 36 1 1 33
M  V30 37 1 2 34
M  V30 38 1 2 35
M  V30 39 1 3 36
M  V30 40 1 3 37
M  V30 41 1 4 38
M  V30 42 1 4 39
M  V30 43 1 5 40
M  V30 44 1 9 41
M  V30 45 1 9 42
M  V30 46 1 12 43
M  V30 47 1 14 44
M  V30 48 1 17 45 CFG=1
M  V30 49 1 18 46
M  V30 50 1 18 47
M  V30 51 1 18 48
M  V30 52 1 20 49
M  V30 53 1 21 50
M  V30 54 1 23 51
M  V30 55 1 24 52
M  V30 56 1 25 53
M  V30 57 1 26 54
M  V30 58 1 28 55
M  V30 59 1 30 56
M  V30 60 1 30 57
M  V30 END BOND
M  V30 END CTAB
M  END
>  <Dataset>  (16) 
ChEMBL_Kinases

>  <Ligand_Instance>  (16) 
nan

>  <PDB_ID>  (16) 
nan

>  <Standardized_SMILES>  (16) 
CCCCNC(=O)N1Cc2n[nH]c(NC(=O)[C@@H](C)c3ccc4ccccc4c3)c2C1

>  <Name>  (16) 
nan

>  <Pocket>  (16) 
nan

>  <ATP_Site>  (16) 
nan

>  <Peripheral>  (16) 
nan

>  <Num_H_Atoms_ProtBoundConf>  (16) 
nan

>  <Num_Resolved_Atoms>  (16) 
nan

>  <Num_Not_Resolved_Atoms>  (16) 
nan

$$$$
CHEMBL3809463
     RDKit          3D

  0  0  0  0  0  0  0  0  0  0999 V3000
M  V30 BEGIN CTAB
M  V30 COUNTS 45 49 0 0 0
M  V30 BEGIN ATOM
M  V30 1 C 4.488297 -2.883604 1.743738 0
M  V30 2 C 3.122140 -2.731538 1.122961 0
M  V30 3 N 2.600018 -3.831592 0.503127 0
M  V30 4 C 1.401053 -3.732040 -0.052828 0
M  V30 5 C 0.722791 -4.738651 -0.735355 0
M  V30 6 C -0.523386 -4.572261 -1.308063 0
M  V30 7 C -1.189234 -3.340387 -1.227150 0
M  V30 8 C -0.471075 -2.399667 -0.545786 0
M  V30 9 C 0.780739 -2.505218 0.049216 0
M  V30 10 N 1.307703 -1.437319 0.661124 0
M  V30 11 C 2.503021 -1.478803 1.232767 0
M  V30 12 N 3.185227 -0.431498 1.876883 0
M  V30 13 C 3.021796 0.918876 1.408487 0
M  V30 14 C 1.710233 1.536932 1.706180 0
M  V30 15 C 0.550340 1.297212 2.328583 0
M  V30 16 C -0.669672 2.115270 2.489285 0
M  V30 17 C -1.917987 1.504516 1.920529 0 CFG=1
M  V30 18 C -3.014925 2.499020 1.681957 0
M  V30 19 N -2.926102 2.965893 0.312357 0
M  V30 20 C -2.718598 2.094546 -0.822097 0
M  V30 21 O -3.043241 2.317816 -2.015783 0
M  V30 22 C -2.061608 0.825178 -0.535627 0
M  V30 23 C -1.689091 -0.246471 -1.316423 0
M  V30 24 C -1.112886 -1.099691 -0.410253 0
M  V30 25 N -1.147131 -0.565878 0.825162 0
M  V30 26 C -1.725835 0.624291 0.778030 0
M  V30 27 H 5.035794 -3.685175 1.199556 0
M  V30 28 H 5.003147 -1.923925 1.620951 0
M  V30 29 H 4.411512 -3.197269 2.791378 0
M  V30 30 H 1.231074 -5.709639 -0.807064 0
M  V30 31 H -1.032371 -5.370780 -1.835280 0
M  V30 32 H -2.157442 -3.097387 -1.637210 0
M  V30 33 H 3.801988 -0.669510 2.691681 0
M  V30 34 H 3.217829 0.974553 0.295851 0
M  V30 35 H 3.847971 1.529745 1.868402 0
M  V30 36 H 1.726592 2.549428 1.241433 0
M  V30 37 H 0.696011 0.291740 2.766894 0
M  V30 38 H -0.478315 3.111370 2.025954 0
M  V30 39 H -0.847165 2.326722 3.558559 0
M  V30 40 H -2.316173 0.838462 2.746775 0
M  V30 41 H -4.031064 2.068687 1.783893 0
M  V30 42 H -2.877781 3.382985 2.360697 0
M  V30 43 H -3.009421 3.982321 0.052172 0
M  V30 44 H -1.785690 -0.452646 -2.362522 0
M  V30 45 H -0.790251 -1.027615 1.687003 0
M  V30 END ATOM
M  V30 BEGIN BOND
M  V30 1 1 1 2
M  V30 2 2 2 3
M  V30 3 1 3 4
M  V30 4 2 4 5
M  V30 5 1 5 6
M  V30 6 2 6 7
M  V30 7 1 7 8
M  V30 8 2 8 9
M  V30 9 1 9 10
M  V30 10 2 10 11
M  V30 11 1 11 12
M  V30 12 1 12 13
M  V30 13 1 13 14
M  V30 14 2 14 15
M  V30 15 1 15 16
M  V30 16 1 16 17
M  V30 17 1 17 18
M  V30 18 1 18 19
M  V30 19 1 19 20
M  V30 20 2 20 21
M  V30 21 1 20 22
M  V30 22 1 22 23
M  V30 23 2 23 24
M  V30 24 1 24 25
M  V30 25 1 25 26
M  V30 26 1 11 2
M  V30 27 1 26 17
M  V30 28 1 9 4
M  V30 29 2 26 22
M  V30 30 1 24 8
M  V30 31 1 1 27
M  V30 32 1 1 28
M  V30 33 1 1 29
M  V30 34 1 5 30
M  V30 35 1 6 31
M  V30 36 1 7 32
M  V30 37 1 12 33
M  V30 38 1 13 34
M  V30 39 1 13 35
M  V30 40 1 14 36
M  V30 41 1 15 37
M  V30 42 1 16 38
M  V30 43 1 16 39
M  V30 44 1 17 40 CFG=1
M  V30 45 1 18 41
M  V30 46 1 18 42
M  V30 47 1 19 43
M  V30 48 1 23 44
M  V30 49 1 25 45
M  V30 END BOND
M  V30 END CTAB
M  END
>  <Dataset>  (17) 
ChEMBL_Kinases

>  <Ligand_Instance>  (17) 
nan

>  <PDB_ID>  (17) 
nan

>  <Standardized_SMILES>  (17) 
Cc1nc2cccc3c2nc1NC/C=C/C[C@H]1CNC(=O)c2cc-3[nH]c21

>  <Name>  (17) 
nan

>  <Pocket>  (17) 
nan

>  <ATP_Site>  (17) 
nan

>  <Peripheral>  (17) 
nan

>  <Num_H_Atoms_ProtBoundConf>  (17) 
nan

>  <Num_Resolved_Atoms>  (17) 
nan

>  <Num_Not_Resolved_Atoms>  (17) 
nan

$$$$
CHEMBL3808662
     RDKit          3D

  0  0  0  0  0  0  0  0  0  0999 V3000
M  V30 BEGIN CTAB
M  V30 COUNTS 48 52 0 0 0
M  V30 BEGIN ATOM
M  V30 1 C 1.847560 -3.111302 -1.020651 0
M  V30 2 C 1.603800 -1.616942 -1.168428 0
M  V30 3 C 2.234243 -0.757496 -0.394555 0
M  V30 4 C 3.157233 -0.358010 0.669079 0
M  V30 5 C 2.885521 0.458286 1.836925 0 CFG=1
M  V30 6 C 3.769486 1.689108 1.929917 0
M  V30 7 N 3.408584 2.635105 2.950106 0
M  V30 8 C 2.054746 2.934399 3.287471 0
M  V30 9 O 1.648072 3.938812 3.873792 0
M  V30 10 C 1.073647 1.954515 2.897992 0
M  V30 11 C -0.314941 1.739241 2.965355 0
M  V30 12 C -0.613766 0.585738 2.392813 0
M  V30 13 N 0.543613 -0.000484 1.931514 0
M  V30 14 C 1.531724 0.835122 2.244294 0
M  V30 15 C -1.901188 -0.113442 2.166714 0
M  V30 16 C -2.787695 0.062679 3.249430 0
M  V30 17 C -4.059319 -0.538536 3.148876 0
M  V30 18 C -4.381466 -1.271706 1.998428 0
M  V30 19 C -3.481157 -1.418703 0.960550 0
M  V30 20 N -3.832417 -2.132982 -0.133228 0
M  V30 21 C -2.897274 -2.243951 -1.132094 0
M  V30 22 C -3.369019 -3.026805 -2.242698 0
M  V30 23 C -1.637059 -1.641908 -1.020296 0
M  V30 24 N -1.285623 -0.934062 0.057927 0
M  V30 25 C -2.222303 -0.834388 1.039135 0
M  V30 26 N -0.744468 -1.812946 -2.091558 0
M  V30 27 C 0.602302 -1.253057 -2.219612 0
M  V30 28 H 1.545388 -3.658359 -1.927062 0
M  V30 29 H 2.900998 -3.305328 -0.753979 0
M  V30 30 H 1.239684 -3.428576 -0.145735 0
M  V30 31 H 1.873656 0.267754 -0.668507 0
M  V30 32 H 3.973785 0.147749 0.108114 0
M  V30 33 H 3.706835 -1.299943 0.985280 0
M  V30 34 H 3.192730 -0.140519 2.700596 0
M  V30 35 H 4.827192 1.354346 2.157506 0
M  V30 36 H 3.889845 2.179279 0.938617 0
M  V30 37 H 4.148011 3.148699 3.492624 0
M  V30 38 H -0.965452 2.452138 3.428726 0
M  V30 39 H 0.603899 -0.921213 1.442678 0
M  V30 40 H -2.557583 0.624248 4.143733 0
M  V30 41 H -4.829927 -0.478101 3.909096 0
M  V30 42 H -5.343576 -1.749008 1.872447 0
M  V30 43 H -4.002698 -3.877684 -1.932071 0
M  V30 44 H -4.007705 -2.511863 -3.004272 0
M  V30 45 H -2.744508 -3.552441 -2.945189 0
M  V30 46 H -1.089027 -2.416583 -2.900187 0
M  V30 47 H 0.590351 -0.155933 -2.379533 0
M  V30 48 H 0.959291 -1.612158 -3.205352 0
M  V30 END ATOM
M  V30 BEGIN BOND
M  V30 1 1 1 2
M  V30 2 2 2 3
M  V30 3 1 3 4
M  V30 4 1 4 5
M  V30 5 1 5 6
M  V30 6 1 6 7
M  V30 7 1 7 8
M  V30 8 2 8 9
M  V30 9 1 8 10
M  V30 10 1 10 11
M  V30 11 2 11 12
M  V30 12 1 12 13
M  V30 13 1 13 14
M  V30 14 1 12 15
M  V30 15 2 15 16
M  V30 16 1 16 17
M  V30 17 2 17 18
M  V30 18 1 18 19
M  V30 19 2 19 20
M  V30 20 1 20 21
M  V30 21 1 21 22
M  V30 22 2 21 23
M  V30 23 1 23 24
M  V30 24 2 24 25
M  V30 25 1 23 26
M  V30 26 1 26 27
M  V30 27 1 27 2
M  V30 28 1 14 5
M  V30 29 1 25 15
M  V30 30 2 14 10
M  V30 31 1 25 19
M  V30 32 1 1 28
M  V30 33 1 1 29
M  V30 34 1 1 30
M  V30 35 1 3 31
M  V30 36 1 4 32
M  V30 37 1 4 33
M  V30 38 1 5 34 CFG=1
M  V30 39 1 6 35
M  V30 40 1 6 36
M  V30 41 1 7 37
M  V30 42 1 11 38
M  V30 43 1 13 39
M  V30 44 1 16 40
M  V30 45 1 17 41
M  V30 46 1 18 42
M  V30 47 1 22 43
M  V30 48 1 22 44
M  V30 49 1 22 45
M  V30 50 1 26 46
M  V30 51 1 27 47
M  V30 52 1 27 48
M  V30 END BOND
M  V30 END CTAB
M  END
>  <Dataset>  (18) 
ChEMBL_Kinases

>  <Ligand_Instance>  (18) 
nan

>  <PDB_ID>  (18) 
nan

>  <Standardized_SMILES>  (18) 
C/C1=C\C[C@H]2CNC(=O)c3cc([nH]c32)-c2cccc3nc(C)c(nc23)NC1

>  <Name>  (18) 
nan

>  <Pocket>  (18) 
nan

>  <ATP_Site>  (18) 
nan

>  <Peripheral>  (18) 
nan

>  <Num_H_Atoms_ProtBoundConf>  (18) 
nan

>  <Num_Resolved_Atoms>  (18) 
nan

>  <Num_Not_Resolved_Atoms>  (18) 
nan

$$$$
CHEMBL3545065
     RDKit          3D

  0  0  0  0  0  0  0  0  0  0999 V3000
M  V30 BEGIN CTAB
M  V30 COUNTS 40 42 0 0 0
M  V30 BEGIN ATOM
M  V30 1 C -0.843609 -5.036664 1.643887 0
M  V30 2 N 0.027363 -3.895574 1.611008 0
M  V30 3 C 0.467004 -3.555511 2.904627 0
M  V30 4 C -0.479549 -2.896589 0.752716 0
M  V30 5 C 0.330170 -1.670162 0.676184 0
M  V30 6 O 1.397683 -1.619883 1.292208 0
M  V30 7 N -0.067853 -0.539895 -0.079218 0
M  V30 8 C 0.583327 0.687308 -0.250610 0
M  V30 9 C -0.014430 1.647328 -1.047398 0
M  V30 10 C 0.546081 2.883651 -1.277151 0
M  V30 11 C 1.754665 3.235194 -0.714400 0
M  V30 12 C 2.263031 4.488552 -0.983152 0
M  V30 13 O 1.691998 5.335172 -1.712099 0
M  V30 14 N 3.450469 4.782510 -0.406723 0
M  V30 15 C 4.101202 3.896226 0.388061 0
M  V30 16 C 3.586228 2.633710 0.657046 0
M  V30 17 C 2.375718 2.297509 0.086121 0
M  V30 18 C 1.767225 1.068737 0.283699 0
M  V30 19 C -1.906746 -2.547365 0.964605 0
M  V30 20 C -2.457095 -2.391345 2.193957 0
M  V30 21 C -3.877931 -2.055750 2.230833 0
M  V30 22 S -4.386505 -1.974446 0.417586 0
M  V30 23 C -2.769884 -2.369288 -0.238829 0
M  V30 24 H -0.315646 -5.947999 2.043363 0
M  V30 25 H -1.741774 -4.811918 2.280888 0
M  V30 26 H -1.192062 -5.228918 0.619673 0
M  V30 27 H -0.214502 -4.064264 3.652820 0
M  V30 28 H 1.473460 -3.985294 3.168495 0
M  V30 29 H 0.419093 -2.494247 3.173954 0
M  V30 30 H -0.372560 -3.349319 -0.297540 0
M  V30 31 H -0.998906 -0.693969 -0.566594 0
M  V30 32 H -0.981437 1.441320 -1.532083 0
M  V30 33 H 0.024217 3.584778 -1.910135 0
M  V30 34 H 3.933846 5.703206 -0.538339 0
M  V30 35 H 5.057279 4.131107 0.853003 0
M  V30 36 H 4.077854 1.909232 1.282604 0
M  V30 37 H 2.313666 0.418406 0.908169 0
M  V30 38 H -1.935884 -2.495326 3.117510 0
M  V30 39 H -4.386942 -1.914324 3.270857 0
M  V30 40 H -2.494783 -2.454342 -1.213776 0
M  V30 END ATOM
M  V30 BEGIN BOND
M  V30 1 1 1 2
M  V30 2 1 2 3
M  V30 3 1 2 4
M  V30 4 1 4 5
M  V30 5 2 5 6
M  V30 6 1 5 7
M  V30 7 1 7 8
M  V30 8 2 8 9
M  V30 9 1 9 10
M  V30 10 2 10 11
M  V30 11 1 11 12
M  V30 12 2 12 13
M  V30 13 1 12 14
M  V30 14 1 14 15
M  V30 15 2 15 16
M  V30 16 1 16 17
M  V30 17 2 17 18
M  V30 18 1 4 19
M  V30 19 1 19 20
M  V30 20 2 20 21
M  V30 21 1 21 22
M  V30 22 1 22 23
M  V30 23 1 18 8
M  V30 24 2 23 19
M  V30 25 1 17 11
M  V30 26 1 1 24
M  V30 27 1 1 25
M  V30 28 1 1 26
M  V30 29 1 3 27
M  V30 30 1 3 28
M  V30 31 1 3 29
M  V30 32 1 4 30
M  V30 33 1 7 31
M  V30 34 1 9 32
M  V30 35 1 10 33
M  V30 36 1 14 34
M  V30 37 1 15 35
M  V30 38 1 16 36
M  V30 39 1 18 37
M  V30 40 1 20 38
M  V30 41 1 21 39
M  V30 42 1 23 40
M  V30 END BOND
M  V30 END CTAB
M  END
>  <Dataset>  (19) 
ChEMBL_Kinases

>  <Ligand_Instance>  (19) 
nan

>  <PDB_ID>  (19) 
nan

>  <Standardized_SMILES>  (19) 
CN(C)C(C(=O)Nc1ccc2c(=O)[nH]ccc2c1)c1ccsc1

>  <Name>  (19) 
VEROSUDIL

>  <Pocket>  (19) 
nan

>  <ATP_Site>  (19) 
nan

>  <Peripheral>  (19) 
nan

>  <Num_H_Atoms_ProtBoundConf>  (19) 
nan

>  <Num_Resolved_Atoms>  (19) 
nan

>  <Num_Not_Resolved_Atoms>  (19) 
nan

$$$$
CHEMBL3809565
     RDKit          3D

  0  0  0  0  0  0  0  0  0  0999 V3000
M  V30 BEGIN CTAB
M  V30 COUNTS 50 54 0 0 0
M  V30 BEGIN ATOM
M  V30 1 C -5.367212 -0.628827 -0.672621 0
M  V30 2 C -4.232709 -0.817873 0.254441 0
M  V30 3 N -4.029623 -1.014718 1.575887 0
M  V30 4 C -2.780443 -1.156184 2.038662 0
M  V30 5 C -2.639318 -1.353998 3.395680 0
M  V30 6 C -1.349536 -1.506522 3.922503 0
M  V30 7 C -0.179497 -1.470331 3.148995 0
M  V30 8 C -0.394941 -1.269812 1.805450 0
M  V30 9 C -1.650438 -1.117723 1.264385 0
M  V30 10 N -1.914045 -0.921822 -0.023121 0
M  V30 11 C -3.118716 -0.774318 -0.546068 0
M  V30 12 N -2.799004 -0.596269 -1.946436 0
M  V30 13 C -1.943506 0.511325 -2.400744 0
M  V30 14 C -0.964373 0.009208 -3.430647 0 CFG=1
M  V30 15 C -1.719125 -0.350784 -4.681480 0
M  V30 16 C 0.122788 0.965753 -3.711684 0
M  V30 17 C 1.127758 1.203260 -2.624027 0
M  V30 18 C 1.984202 0.049117 -2.257965 0 CFG=1
M  V30 19 C 3.462520 0.457882 -2.336141 0
M  V30 20 N 4.298073 -0.701830 -1.963281 0
M  V30 21 C 4.092254 -1.313331 -0.669965 0
M  V30 22 O 4.987107 -1.920189 0.008310 0
M  V30 23 C 2.723470 -1.191193 -0.152202 0
M  V30 24 C 2.149639 -1.627357 1.049185 0
M  V30 25 C 0.839402 -1.239700 1.050083 0
M  V30 26 N 0.748716 -0.622796 -0.116580 0
M  V30 27 C 1.799793 -0.526502 -0.929882 0
M  V30 28 H -5.410929 -1.405157 -1.463551 0
M  V30 29 H -6.285662 -0.774425 -0.068006 0
M  V30 30 H -5.356419 0.390652 -1.058626 0
M  V30 31 H -3.485132 -1.395926 4.068509 0
M  V30 32 H -1.290767 -1.661104 5.004947 0
M  V30 33 H 0.797889 -1.593192 3.595297 0
M  V30 34 H -3.366687 -1.422785 -2.191745 0
M  V30 35 H -2.607853 1.237120 -2.994042 0
M  V30 36 H -1.540163 1.109746 -1.592351 0
M  V30 37 H -0.514769 -0.971291 -3.018913 0
M  V30 38 H -2.482010 -1.122162 -4.407863 0
M  V30 39 H -1.067685 -0.704988 -5.492727 0
M  V30 40 H -2.324621 0.547818 -4.982637 0
M  V30 41 H -0.365104 1.972959 -3.884243 0
M  V30 42 H 0.664877 0.777726 -4.663170 0
M  V30 43 H 0.560265 1.636696 -1.770582 0
M  V30 44 H 1.764413 2.057065 -2.987215 0
M  V30 45 H 1.801887 -0.734664 -3.064088 0
M  V30 46 H 3.708203 0.803884 -3.342142 0
M  V30 47 H 3.583215 1.291092 -1.613196 0
M  V30 48 H 5.056121 -1.158423 -2.539133 0
M  V30 49 H 2.567849 -2.170455 1.882919 0
M  V30 50 H 0.024533 -0.130908 -0.616689 0
M  V30 END ATOM
M  V30 BEGIN BOND
M  V30 1 1 1 2
M  V30 2 2 2 3
M  V30 3 1 3 4
M  V30 4 2 4 5
M  V30 5 1 5 6
M  V30 6 2 6 7
M  V30 7 1 7 8
M  V30 8 2 8 9
M  V30 9 1 9 10
M  V30 10 2 10 11
M  V30 11 1 11 12
M  V30 12 1 12 13
M  V30 13 1 13 14
M  V30 14 1 14 15
M  V30 15 1 14 16
M  V30 16 1 16 17
M  V30 17 1 17 18
M  V30 18 1 18 19
M  V30 19 1 19 20
M  V30 20 1 20 21
M  V30 21 2 21 22
M  V30 22 1 21 23
M  V30 23 1 23 24
M  V30 24 2 24 25
M  V30 25 1 25 26
M  V30 26 1 26 27
M  V30 27 1 11 2
M  V30 28 1 27 18
M  V30 29 1 9 4
M  V30 30 2 27 23
M  V30 31 1 25 8
M  V30 32 1 1 28
M  V30 33 1 1 29
M  V30 34 1 1 30
M  V30 35 1 5 31
M  V30 36 1 6 32
M  V30 37 1 7 33
M  V30 38 1 12 34
M  V30 39 1 13 35
M  V30 40 1 13 36
M  V30 41 1 14 37 CFG=1
M  V30 42 1 15 38
M  V30 43 1 15 39
M  V30 44 1 15 40
M  V30 45 1 16 41
M  V30 46 1 16 42
M  V30 47 1 17 43
M  V30 48 1 17 44
M  V30 49 1 18 45 CFG=3
M  V30 50 1 19 46
M  V30 51 1 19 47
M  V30 52 1 20 48
M  V30 53 1 24 49
M  V30 54 1 26 50
M  V30 END BOND
M  V30 END CTAB
M  END
>  <Dataset>  (20) 
ChEMBL_Kinases

>  <Ligand_Instance>  (20) 
nan

>  <PDB_ID>  (20) 
nan

>  <Standardized_SMILES>  (20) 
Cc1nc2cccc3c2nc1NC[C@@H](C)CC[C@H]1CNC(=O)c2cc-3[nH]c21

>  <Name>  (20) 
nan

>  <Pocket>  (20) 
nan

>  <ATP_Site>  (20) 
nan

>  <Peripheral>  (20) 
nan

>  <Num_H_Atoms_ProtBoundConf>  (20) 
nan

>  <Num_Resolved_Atoms>  (20) 
nan

>  <Num_Not_Resolved_Atoms>  (20) 
nan

$$$$
CHEMBL3809584
     RDKit          3D

  0  0  0  0  0  0  0  0  0  0999 V3000
M  V30 BEGIN CTAB
M  V30 COUNTS 69 73 0 0 0
M  V30 BEGIN ATOM
M  V30 1 C -0.496766 0.931611 5.420238 0
M  V30 2 C -0.993719 -0.351163 4.840001 0
M  V30 3 C -0.447315 -0.835980 3.717409 0
M  V30 4 C 0.626317 -0.181499 3.005105 0
M  V30 5 O 0.943117 -0.880666 1.976418 0
M  V30 6 N 1.522380 0.886585 2.889010 0
M  V30 7 C 2.516206 1.035752 1.832680 0
M  V30 8 C 1.866942 2.104845 3.568936 0
M  V30 9 C 1.211568 3.260322 3.193549 0
M  V30 10 C 1.422761 4.522548 3.749018 0
M  V30 11 C 2.372259 4.564511 4.748927 0
M  V30 12 N 2.830870 5.582284 5.497980 0
M  V30 13 N 3.750229 5.155027 6.342104 0
M  V30 14 C 3.911979 3.823199 6.155608 0
M  V30 15 C 3.044663 3.434138 5.148379 0
M  V30 16 C 2.820805 2.197178 4.586416 0
M  V30 17 C -0.976295 -2.135532 3.145211 0
M  V30 18 C -1.456548 -1.921391 1.751968 0
M  V30 19 C -2.582444 -1.121401 1.672254 0
M  V30 20 C -3.114463 -0.872488 0.424280 0
M  V30 21 C -2.492389 -1.435715 -0.665967 0
M  V30 22 F -3.021821 -1.185033 -1.877897 0
M  V30 23 C -1.381463 -2.231225 -0.641919 0
M  V30 24 C -0.672075 -2.852801 -1.731541 0
M  V30 25 O 0.338615 -3.600190 -1.552135 0
M  V30 26 N -0.925903 -2.771284 -3.113646 0
M  V30 27 C -0.098539 -3.472950 -4.086765 0
M  V30 28 C -0.630327 -3.166886 -5.429204 0
M  V30 29 C -0.302519 -1.885979 -5.886036 0
M  V30 30 C 0.492269 -0.844613 -5.187667 0
M  V30 31 C -0.743162 -1.475800 -7.133808 0
M  V30 32 C -1.503117 -2.291055 -7.955976 0
M  V30 33 C -1.793131 -3.540745 -7.450077 0
M  V30 34 C -1.378668 -4.012002 -6.201630 0
M  V30 35 C -1.698127 -5.342982 -5.680943 0
M  V30 36 C -0.863080 -2.467541 0.634682 0
M  V30 37 N -2.012034 -2.637597 3.993522 0
M  V30 38 C -2.613638 -2.158910 5.177681 0
M  V30 39 O -3.533255 -2.794081 5.728563 0
M  V30 40 N -2.042120 -0.935813 5.597785 0
M  V30 41 H -1.077910 1.237896 6.337312 0
M  V30 42 H -0.696585 1.714309 4.692798 0
M  V30 43 H 0.539566 0.871507 5.742319 0
M  V30 44 H 2.303928 1.897114 1.157885 0
M  V30 45 H 3.563252 1.016831 2.193672 0
M  V30 46 H 2.379199 0.127221 1.187509 0
M  V30 47 H 0.470813 3.201975 2.407948 0
M  V30 48 H 0.871231 5.370948 3.400103 0
M  V30 49 H 2.481672 6.565110 5.395794 0
M  V30 50 H 4.603897 3.183665 6.706753 0
M  V30 51 H 3.324462 1.285063 4.868326 0
M  V30 52 H -0.127008 -2.843585 3.141335 0
M  V30 53 H -3.074430 -0.677411 2.520090 0
M  V30 54 H -3.992879 -0.256705 0.285301 0
M  V30 55 H -1.744329 -2.176420 -3.410709 0
M  V30 56 H -0.195213 -4.544419 -3.820056 0
M  V30 57 H 0.956363 -3.212762 -3.941490 0
M  V30 58 H 1.262785 -0.466324 -5.919558 0
M  V30 59 H 1.077445 -1.219159 -4.337094 0
M  V30 60 H -0.110881 0.057674 -4.930119 0
M  V30 61 H -0.534864 -0.488776 -7.574641 0
M  V30 62 H -1.866207 -2.005410 -8.937799 0
M  V30 63 H -2.391611 -4.232079 -8.055068 0
M  V30 64 H -2.543545 -5.288488 -4.938290 0
M  V30 65 H -2.163574 -5.915145 -6.538279 0
M  V30 66 H -0.865403 -5.948616 -5.330106 0
M  V30 67 H 0.012805 -3.095190 0.765045 0
M  V30 68 H -2.317695 -3.546244 3.560095 0
M  V30 69 H -2.434505 -0.513037 6.472741 0
M  V30 END ATOM
M  V30 BEGIN BOND
M  V30 1 1 1 2
M  V30 2 2 2 3
M  V30 3 1 3 4
M  V30 4 2 4 5
M  V30 5 1 4 6
M  V30 6 1 6 7
M  V30 7 1 6 8
M  V30 8 2 8 9
M  V30 9 1 9 10
M  V30 10 2 10 11
M  V30 11 1 11 12
M  V30 12 1 12 13
M  V30 13 2 13 14
M  V30 14 1 14 15
M  V30 15 2 15 16
M  V30 16 1 3 17
M  V30 17 1 17 18
M  V30 18 2 18 19
M  V30 19 1 19 20
M  V30 20 2 20 21
M  V30 21 1 21 22
M  V30 22 1 21 23
M  V30 23 1 23 24
M  V30 24 2 24 25
M  V30 25 1 24 26
M  V30 26 1 26 27
M  V30 27 1 27 28
M  V30 28 2 28 29
M  V30 29 1 29 30
M  V30 30 1 29 31
M  V30 31 2 31 32
M  V30 32 1 32 33
M  V30 33 2 33 34
M  V30 34 1 34 35
M  V30 35 2 23 36
M  V30 36 1 17 37
M  V30 37 1 37 38
M  V30 38 2 38 39
M  V30 39 1 38 40
M  V30 40 1 40 2
M  V30 41 1 16 8
M  V30 42 1 36 18
M  V30 43 1 15 11
M  V30 44 1 34 28
M  V30 45 1 1 41
M  V30 46 1 1 42
M  V30 47 1 1 43
M  V30 48 1 7 44
M  V30 49 1 7 45
M  V30 50 1 7 46
M  V30 51 1 9 47
M  V30 52 1 10 48
M  V30 53 1 12 49
M  V30 54 1 14 50
M  V30 55 1 16 51
M  V30 56 1 17 52
M  V30 57 1 19 53
M  V30 58 1 20 54
M  V30 59 1 26 55
M  V30 60 1 27 56
M  V30 61 1 27 57
M  V30 62 1 30 58
M  V30 63 1 30 59
M  V30 64 1 30 60
M  V30 65 1 31 61
M  V30 66 1 32 62
M  V30 67 1 33 63
M  V30 68 1 35 64
M  V30 69 1 35 65
M  V30 70 1 35 66
M  V30 71 1 36 67
M  V30 72 1 37 68
M  V30 73 1 40 69
M  V30 END BOND
M  V30 END CTAB
M  END
>  <Dataset>  (21) 
ChEMBL_Kinases

>  <Ligand_Instance>  (21) 
nan

>  <PDB_ID>  (21) 
nan

>  <Standardized_SMILES>  (21) 
CC1=C(C(=O)N(C)c2ccc3[nH]ncc3c2)C(c2ccc(F)c(C(=O)NCc3c(C)cccc3C)c2)NC(=O)N1

>  <Name>  (21) 
nan

>  <Pocket>  (21) 
nan

>  <ATP_Site>  (21) 
nan

>  <Peripheral>  (21) 
nan

>  <Num_H_Atoms_ProtBoundConf>  (21) 
nan

>  <Num_Resolved_Atoms>  (21) 
nan

>  <Num_Not_Resolved_Atoms>  (21) 
nan

$$$$
CHEMBL3809623
     RDKit          3D

  0  0  0  0  0  0  0  0  0  0999 V3000
M  V30 BEGIN CTAB
M  V30 COUNTS 49 52 0 0 0
M  V30 BEGIN ATOM
M  V30 1 C 1.251603 -2.867284 4.077654 0
M  V30 2 C 1.751075 -3.222473 2.698530 0
M  V30 3 C 0.610394 -3.349430 1.703966 0
M  V30 4 C 1.110845 -3.707088 0.307404 0
M  V30 5 N 0.012808 -3.815965 -0.613747 0
M  V30 6 C -0.820696 -2.756526 -1.011297 0
M  V30 7 N -0.728730 -1.476447 -0.628301 0
M  V30 8 C -1.568001 -0.523588 -1.069269 0
M  V30 9 C -1.471519 0.789878 -0.671346 0
M  V30 10 C -0.432908 1.248658 0.237220 0
M  V30 11 C 0.635087 0.618610 0.829864 0
M  V30 12 C 1.364295 1.484021 1.617954 0
M  V30 13 C 0.718176 2.697249 1.505412 0
M  V30 14 N -0.323849 2.516647 0.691737 0
M  V30 15 C 1.225020 3.891823 2.228637 0
M  V30 16 C 2.057831 3.493693 3.418694 0
M  V30 17 N 3.023960 2.484309 3.125517 0
M  V30 18 C 2.560711 1.307648 2.438977 0
M  V30 19 O 3.134636 0.209204 2.532513 0
M  V30 20 C -2.383485 1.697004 -1.175952 0
M  V30 21 C -3.382732 1.348371 -2.058114 0
M  V30 22 C -3.499724 0.046118 -2.470962 0
M  V30 23 C -2.577789 -0.831786 -1.950847 0
M  V30 24 N -2.713094 -2.124062 -2.371811 0
M  V30 25 C -1.854585 -3.049840 -1.909377 0
M  V30 26 C -2.023513 -4.448016 -2.383177 0
M  V30 27 H 0.947336 -3.797192 4.600010 0
M  V30 28 H 2.099407 -2.429175 4.659751 0
M  V30 29 H 0.389680 -2.152025 4.022706 0
M  V30 30 H 2.240014 -4.214749 2.797085 0
M  V30 31 H 2.473648 -2.449528 2.380150 0
M  V30 32 H -0.077055 -4.171557 2.032997 0
M  V30 33 H 0.055534 -2.397115 1.666692 0
M  V30 34 H 1.739758 -4.606825 0.371689 0
M  V30 35 H 1.795885 -2.879358 -0.042672 0
M  V30 36 H -0.131347 -4.778352 -0.984763 0
M  V30 37 H 0.884664 -0.402281 0.704300 0
M  V30 38 H -0.983359 3.313395 0.446258 0
M  V30 39 H 1.873877 4.449420 1.522816 0
M  V30 40 H 0.383579 4.541105 2.516047 0
M  V30 41 H 1.384932 3.137433 4.225105 0
M  V30 42 H 2.635211 4.390898 3.760931 0
M  V30 43 H 4.055023 2.535091 3.374466 0
M  V30 44 H -2.387009 2.764240 -0.917115 0
M  V30 45 H -4.091777 2.065816 -2.447380 0
M  V30 46 H -4.268181 -0.254140 -3.157698 0
M  V30 47 H -2.201205 -5.108955 -1.493213 0
M  V30 48 H -1.047316 -4.778628 -2.811519 0
M  V30 49 H -2.854211 -4.545698 -3.080924 0
M  V30 END ATOM
M  V30 BEGIN BOND
M  V30 1 1 1 2
M  V30 2 1 2 3
M  V30 3 1 3 4
M  V30 4 1 4 5
M  V30 5 1 5 6
M  V30 6 2 6 7
M  V30 7 1 7 8
M  V30 8 2 8 9
M  V30 9 1 9 10
M  V30 10 2 10 11
M  V30 11 1 11 12
M  V30 12 2 12 13
M  V30 13 1 13 14
M  V30 14 1 13 15
M  V30 15 1 15 16
M  V30 16 1 16 17
M  V30 17 1 17 18
M  V30 18 2 18 19
M  V30 19 1 9 20
M  V30 20 2 20 21
M  V30 21 1 21 22
M  V30 22 2 22 23
M  V30 23 1 23 24
M  V30 24 2 24 25
M  V30 25 1 25 26
M  V30 26 1 25 6
M  V30 27 1 23 8
M  V30 28 1 14 10
M  V30 29 1 18 12
M  V30 30 1 1 27
M  V30 31 1 1 28
M  V30 32 1 1 29
M  V30 33 1 2 30
M  V30 34 1 2 31
M  V30 35 1 3 32
M  V30 36 1 3 33
M  V30 37 1 4 34
M  V30 38 1 4 35
M  V30 39 1 5 36
M  V30 40 1 11 37
M  V30 41 1 14 38
M  V30 42 1 15 39
M  V30 43 1 15 40
M  V30 44 1 16 41
M  V30 45 1 16 42
M  V30 46 1 17 43
M  V30 47 1 20 44
M  V30 48 1 21 45
M  V30 49 1 22 46
M  V30 50 1 26 47
M  V30 51 1 26 48
M  V30 52 1 26 49
M  V30 END BOND
M  V30 END CTAB
M  END
>  <Dataset>  (22) 
ChEMBL_Kinases

>  <Ligand_Instance>  (22) 
nan

>  <PDB_ID>  (22) 
nan

>  <Standardized_SMILES>  (22) 
CCCCNc1nc2c(-c3cc4c([nH]3)CCNC4=O)cccc2nc1C

>  <Name>  (22) 
nan

>  <Pocket>  (22) 
nan

>  <ATP_Site>  (22) 
nan

>  <Peripheral>  (22) 
nan

>  <Num_H_Atoms_ProtBoundConf>  (22) 
nan

>  <Num_Resolved_Atoms>  (22) 
nan

>  <Num_Not_Resolved_Atoms>  (22) 
nan

$$$$
CHEMBL3809691
     RDKit          3D

  0  0  0  0  0  0  0  0  0  0999 V3000
M  V30 BEGIN CTAB
M  V30 COUNTS 48 52 0 0 0
M  V30 BEGIN ATOM
M  V30 1 C 2.560600 -4.279579 2.465844 0
M  V30 2 C 2.172789 -3.815861 1.125905 0
M  V30 3 N 2.331245 -4.102900 -0.202801 0
M  V30 4 C 1.711962 -3.325203 -1.118342 0
M  V30 5 C 1.899326 -3.671330 -2.437332 0
M  V30 6 C 1.246298 -2.867640 -3.377650 0
M  V30 7 C 0.447887 -1.775783 -3.036889 0
M  V30 8 C 0.261588 -1.430080 -1.717740 0
M  V30 9 C 0.916773 -2.242619 -0.836225 0
M  V30 10 N 0.772266 -1.974977 0.460240 0
M  V30 11 C 1.379857 -2.739510 1.367704 0
M  V30 12 N 0.850561 -2.017093 2.446172 0
M  V30 13 C 0.923294 -0.608357 2.879854 0 CFG=2
M  V30 14 C 2.212280 -0.267455 3.558459 0
M  V30 15 C -0.248275 -0.265450 3.700505 0
M  V30 16 C -1.105186 0.721047 3.346833 0
M  V30 17 C -1.133467 1.629188 2.210779 0
M  V30 18 C -2.312277 1.516719 1.280914 0 CFG=1
M  V30 19 C -3.063459 2.794043 1.139649 0
M  V30 20 N -2.904483 3.433847 -0.144555 0
M  V30 21 C -2.259986 2.975350 -1.327264 0
M  V30 22 O -2.225289 3.593705 -2.397466 0
M  V30 23 C -1.601654 1.678353 -1.238346 0
M  V30 24 C -0.875465 0.832929 -2.050571 0
M  V30 25 C -0.533430 -0.293604 -1.293119 0
M  V30 26 N -1.050662 -0.109287 -0.069226 0
M  V30 27 C -1.689401 1.070629 -0.028803 0
M  V30 28 H 3.215847 -3.559918 2.989625 0
M  V30 29 H 1.692999 -4.602980 3.077504 0
M  V30 30 H 3.167805 -5.195974 2.321600 0
M  V30 31 H 2.517583 -4.515916 -2.697778 0
M  V30 32 H 1.407300 -3.159949 -4.426592 0
M  V30 33 H -0.030746 -1.193907 -3.823233 0
M  V30 34 H 0.373701 -2.864853 2.873665 0
M  V30 35 H 0.914474 0.029259 1.947353 0
M  V30 36 H 2.966376 0.167482 2.892773 0
M  V30 37 H 2.585746 -1.214132 4.037146 0
M  V30 38 H 1.996985 0.503276 4.352741 0
M  V30 39 H -0.470081 -0.789538 4.619590 0
M  V30 40 H -1.958631 0.903775 4.018642 0
M  V30 41 H -0.208498 1.545948 1.626801 0
M  V30 42 H -1.218340 2.697845 2.627149 0
M  V30 43 H -2.976702 0.723139 1.640775 0
M  V30 44 H -4.156626 2.573771 1.317494 0
M  V30 45 H -2.726028 3.566914 1.898654 0
M  V30 46 H -3.332460 4.383464 -0.210885 0
M  V30 47 H -0.657477 1.080988 -3.080034 0
M  V30 48 H -1.042894 -0.704991 0.785204 0
M  V30 END ATOM
M  V30 BEGIN BOND
M  V30 1 1 1 2
M  V30 2 2 2 3
M  V30 3 1 3 4
M  V30 4 2 4 5
M  V30 5 1 5 6
M  V30 6 2 6 7
M  V30 7 1 7 8
M  V30 8 2 8 9
M  V30 9 1 9 10
M  V30 10 2 10 11
M  V30 11 1 11 12
M  V30 12 1 12 13
M  V30 13 1 13 14
M  V30 14 1 13 15
M  V30 15 2 15 16
M  V30 16 1 16 17
M  V30 17 1 17 18
M  V30 18 1 18 19
M  V30 19 1 19 20
M  V30 20 1 20 21
M  V30 21 2 21 22
M  V30 22 1 21 23
M  V30 23 1 23 24
M  V30 24 2 24 25
M  V30 25 1 25 26
M  V30 26 1 26 27
M  V30 27 1 11 2
M  V30 28 1 27 18
M  V30 29 1 9 4
M  V30 30 2 27 23
M  V30 31 1 25 8
M  V30 32 1 1 28
M  V30 33 1 1 29
M  V30 34 1 1 30
M  V30 35 1 5 31
M  V30 36 1 6 32
M  V30 37 1 7 33
M  V30 38 1 12 34
M  V30 39 1 13 35 CFG=3
M  V30 40 1 14 36
M  V30 41 1 14 37
M  V30 42 1 14 38
M  V30 43 1 15 39
M  V30 44 1 16 40
M  V30 45 1 17 41
M  V30 46 1 17 42
M  V30 47 1 18 43 CFG=1
M  V30 48 1 19 44
M  V30 49 1 19 45
M  V30 50 1 20 46
M  V30 51 1 24 47
M  V30 52 1 26 48
M  V30 END BOND
M  V30 END CTAB
M  END
>  <Dataset>  (23) 
ChEMBL_Kinases

>  <Ligand_Instance>  (23) 
nan

>  <PDB_ID>  (23) 
nan

>  <Standardized_SMILES>  (23) 
Cc1nc2cccc3c2nc1N[C@H](C)/C=C\C[C@H]1CNC(=O)c2cc-3[nH]c21

>  <Name>  (23) 
nan

>  <Pocket>  (23) 
nan

>  <ATP_Site>  (23) 
nan

>  <Peripheral>  (23) 
nan

>  <Num_H_Atoms_ProtBoundConf>  (23) 
nan

>  <Num_Resolved_Atoms>  (23) 
nan

>  <Num_Not_Resolved_Atoms>  (23) 
nan

$$$$
CHEMBL3545127
     RDKit          3D

  0  0  0  0  0  0  0  0  0  0999 V3000
M  V30 BEGIN CTAB
M  V30 COUNTS 63 66 0 0 0
M  V30 BEGIN ATOM
M  V30 1 C 2.995364 -2.146253 8.060696 0
M  V30 2 C 2.853503 -1.280845 6.846489 0
M  V30 3 C 3.735273 -1.450124 5.788477 0
M  V30 4 C 3.616755 -0.650099 4.646524 0
M  V30 5 C 2.596982 0.276842 4.662220 0
M  V30 6 C 2.499622 1.093354 3.459359 0
M  V30 7 O 1.702973 2.014152 3.146242 0
M  V30 8 O 3.329041 0.999167 2.355024 0
M  V30 9 C 3.176262 1.827599 1.214843 0
M  V30 10 C 1.828927 1.640039 0.600349 0
M  V30 11 C 0.820368 2.466090 0.374496 0
M  V30 12 C -0.553378 2.506548 -0.195738 0
M  V30 13 C -0.904630 1.148596 -0.675835 0
M  V30 14 C -1.440905 0.990803 -2.042321 0 CFG=1
M  V30 15 C -0.598104 1.391094 -3.185437 0
M  V30 16 N -0.240733 2.758754 -3.165279 0
M  V30 17 C -1.987101 -0.407300 -2.157324 0
M  V30 18 O -2.098747 -1.447238 -1.458978 0
M  V30 19 N -2.581205 -0.732101 -3.424771 0
M  V30 20 C -3.081995 -2.085342 -3.463908 0
M  V30 21 C -4.396942 -2.320034 -3.074060 0
M  V30 22 C -4.990576 -3.581587 -3.069627 0
M  V30 23 C -4.205217 -4.654714 -3.482540 0
M  V30 24 C -4.776477 -5.915299 -3.485019 0
M  V30 25 N -4.007296 -6.943990 -3.886015 0
M  V30 26 C -2.723493 -6.797417 -4.278940 0
M  V30 27 C -2.131491 -5.530160 -4.282180 0
M  V30 28 C -2.903826 -4.441701 -3.871229 0
M  V30 29 C -2.313336 -3.176571 -3.874139 0
M  V30 30 C 0.260461 0.250933 -0.400319 0
M  V30 31 C 1.475863 0.283476 0.121919 0
M  V30 32 C 1.690996 0.497747 5.671564 0
M  V30 33 C 0.630138 1.522015 5.586800 0
M  V30 34 C 1.859376 -0.325589 6.776475 0
M  V30 35 H 3.231447 -3.163967 7.682183 0
M  V30 36 H 2.047423 -2.165461 8.625990 0
M  V30 37 H 3.833648 -1.775510 8.677665 0
M  V30 38 H 4.519809 -2.196273 5.830800 0
M  V30 39 H 4.289908 -0.768211 3.820639 0
M  V30 40 H 3.171867 2.876475 1.631294 0
M  V30 41 H 3.986884 1.663527 0.511135 0
M  V30 42 H 1.093771 3.470253 0.737304 0
M  V30 43 H -1.273110 2.841626 0.606479 0
M  V30 44 H -0.531618 3.297046 -0.979511 0
M  V30 45 H -1.706441 0.742570 0.016905 0
M  V30 46 H -2.364963 1.634303 -2.083378 0
M  V30 47 H 0.318721 0.776887 -3.319067 0
M  V30 48 H -1.214905 1.238879 -4.121574 0
M  V30 49 H 0.715639 3.010190 -3.448381 0
M  V30 50 H -0.985714 3.436278 -3.363318 0
M  V30 51 H -2.686490 -0.121725 -4.280216 0
M  V30 52 H -5.025349 -1.487350 -2.747834 0
M  V30 53 H -6.003207 -3.678771 -2.756852 0
M  V30 54 H -5.813628 -6.082524 -3.174750 0
M  V30 55 H -2.119630 -7.652042 -4.600981 0
M  V30 56 H -1.105377 -5.381152 -4.591449 0
M  V30 57 H -1.292740 -2.990518 -4.175912 0
M  V30 58 H -0.016822 -0.739704 -0.762348 0
M  V30 59 H 2.097600 -0.585278 0.174093 0
M  V30 60 H -0.135235 1.342029 6.397560 0
M  V30 61 H 0.022626 1.396841 4.644194 0
M  V30 62 H 0.976555 2.554204 5.618607 0
M  V30 63 H 1.177411 -0.206040 7.613201 0
M  V30 END ATOM
M  V30 BEGIN BOND
M  V30 1 1 1 2
M  V30 2 2 2 3
M  V30 3 1 3 4
M  V30 4 2 4 5
M  V30 5 1 5 6
M  V30 6 2 6 7
M  V30 7 1 6 8
M  V30 8 1 8 9
M  V30 9 1 9 10
M  V30 10 2 10 11
M  V30 11 1 11 12
M  V30 12 1 12 13
M  V30 13 1 13 14
M  V30 14 1 14 15
M  V30 15 1 15 16
M  V30 16 1 14 17
M  V30 17 2 17 18
M  V30 18 1 17 19
M  V30 19 1 19 20
M  V30 20 2 20 21
M  V30 21 1 21 22
M  V30 22 2 22 23
M  V30 23 1 23 24
M  V30 24 2 24 25
M  V30 25 1 25 26
M  V30 26 2 26 27
M  V30 27 1 27 28
M  V30 28 2 28 29
M  V30 29 1 13 30
M  V30 30 2 30 31
M  V30 31 1 5 32
M  V30 32 1 32 33
M  V30 33 2 32 34
M  V30 34 1 34 2
M  V30 35 1 31 10
M  V30 36 1 29 20
M  V30 37 1 28 23
M  V30 38 1 1 35
M  V30 39 1 1 36
M  V30 40 1 1 37
M  V30 41 1 3 38
M  V30 42 1 4 39
M  V30 43 1 9 40
M  V30 44 1 9 41
M  V30 45 1 11 42
M  V30 46 1 12 43
M  V30 47 1 12 44
M  V30 48 1 13 45
M  V30 49 1 14 46 CFG=1
M  V30 50 1 15 47
M  V30 51 1 15 48
M  V30 52 1 16 49
M  V30 53 1 16 50
M  V30 54 1 19 51
M  V30 55 1 21 52
M  V30 56 1 22 53
M  V30 57 1 24 54
M  V30 58 1 26 55
M  V30 59 1 27 56
M  V30 60 1 29 57
M  V30 61 1 30 58
M  V30 62 1 31 59
M  V30 63 1 33 60
M  V30 64 1 33 61
M  V30 65 1 33 62
M  V30 66 1 34 63
M  V30 END BOND
M  V30 END CTAB
M  END
>  <Dataset>  (24) 
ChEMBL_Kinases

>  <Ligand_Instance>  (24) 
nan

>  <PDB_ID>  (24) 
nan

>  <Standardized_SMILES>  (24) 
Cc1ccc(C(=O)OCC2=CCC([C@@H](CN)C(=O)Nc3ccc4cnccc4c3)C=C2)c(C)c1

>  <Name>  (24) 
NETARSUDIL

>  <Pocket>  (24) 
nan

>  <ATP_Site>  (24) 
nan

>  <Peripheral>  (24) 
nan

>  <Num_H_Atoms_ProtBoundConf>  (24) 
nan

>  <Num_Resolved_Atoms>  (24) 
nan

>  <Num_Not_Resolved_Atoms>  (24) 
nan

$$$$
CHEMBL3809697
     RDKit          3D

  0  0  0  0  0  0  0  0  0  0999 V3000
M  V30 BEGIN CTAB
M  V30 COUNTS 62 66 0 0 0
M  V30 BEGIN ATOM
M  V30 1 C 1.675744 1.280830 5.803930 0
M  V30 2 C 1.630619 -0.047947 5.167038 0
M  V30 3 C 1.403254 -0.142929 3.850953 0
M  V30 4 C 1.184471 0.948543 2.927526 0
M  V30 5 O 0.969642 0.802812 1.674026 0
M  V30 6 N 1.105593 2.363893 2.886106 0
M  V30 7 C 0.850343 2.984233 1.631864 0
M  V30 8 C 1.729924 3.411615 0.673121 0
M  V30 9 C 1.271118 3.998488 -0.487780 0
M  V30 10 C -0.080721 4.181207 -0.736195 0
M  V30 11 N -0.771905 4.709642 -1.754811 0
M  V30 12 N -2.053870 4.620770 -1.452260 0
M  V30 13 C -2.235025 4.041352 -0.247296 0
M  V30 14 C -0.960330 3.744624 0.241596 0
M  V30 15 C -0.524067 3.149470 1.421498 0
M  V30 16 C 1.346499 -1.455565 3.097755 0
M  V30 17 C 0.087994 -1.620716 2.341716 0
M  V30 18 C -1.049335 -1.735687 3.129826 0
M  V30 19 C -2.241228 -1.907578 2.461535 0
M  V30 20 C -2.298460 -1.961869 1.093829 0
M  V30 21 F -3.470709 -2.129962 0.453652 0
M  V30 22 C -1.169446 -1.848738 0.289338 0
M  V30 23 C -1.092568 -1.890709 -1.161363 0
M  V30 24 O 0.023723 -1.773557 -1.776369 0
M  V30 25 N -2.121018 -2.052268 -2.104578 0
M  V30 26 C -1.823468 -2.065922 -3.525670 0
M  V30 27 C -0.882405 -3.192277 -3.862761 0
M  V30 28 N 0.435099 -3.009937 -4.115397 0
M  V30 29 C 1.282661 -3.984404 -4.412775 0
M  V30 30 C 0.840095 -5.279945 -4.480272 0
M  V30 31 C -0.496650 -5.483395 -4.226184 0
M  V30 32 C -1.410375 -4.476937 -3.911120 0
M  V30 33 C -2.832662 -4.769904 -3.651083 0
M  V30 34 C 0.011033 -1.677991 0.967690 0
M  V30 35 N 1.544849 -2.477652 4.081583 0
M  V30 36 C 1.794190 -2.523142 5.475320 0
M  V30 37 O 1.952894 -3.594582 6.102446 0
M  V30 38 N 1.825115 -1.199387 5.980354 0
M  V30 39 H 0.689990 1.797634 5.803490 0
M  V30 40 H 1.876086 1.107882 6.910619 0
M  V30 41 H 2.522763 1.913465 5.505922 0
M  V30 42 H 1.254058 2.772782 3.832476 0
M  V30 43 H 2.766027 3.239118 0.930825 0
M  V30 44 H 2.014130 4.321887 -1.220505 0
M  V30 45 H -0.382444 5.125454 -2.644435 0
M  V30 46 H -3.181527 3.835286 0.264530 0
M  V30 47 H -1.332884 2.851726 2.108190 0
M  V30 48 H 2.220072 -1.461014 2.415716 0
M  V30 49 H -1.073333 -1.701899 4.196992 0
M  V30 50 H -3.187499 -2.007607 2.984701 0
M  V30 51 H -3.085484 -2.159022 -1.736619 0
M  V30 52 H -2.777877 -2.244538 -4.078896 0
M  V30 53 H -1.397128 -1.101803 -3.861429 0
M  V30 54 H 2.343746 -3.756570 -4.606497 0
M  V30 55 H 1.496881 -6.105502 -4.719155 0
M  V30 56 H -0.854518 -6.517259 -4.279032 0
M  V30 57 H -2.992652 -5.848764 -3.874667 0
M  V30 58 H -3.426814 -4.183966 -4.405228 0
M  V30 59 H -3.163995 -4.581811 -2.625153 0
M  V30 60 H 0.954998 -1.588093 0.405490 0
M  V30 61 H 1.462217 -3.367267 3.514731 0
M  V30 62 H 2.003386 -1.096838 7.014857 0
M  V30 END ATOM
M  V30 BEGIN BOND
M  V30 1 1 1 2
M  V30 2 2 2 3
M  V30 3 1 3 4
M  V30 4 2 4 5
M  V30 5 1 4 6
M  V30 6 1 6 7
M  V30 7 2 7 8
M  V30 8 1 8 9
M  V30 9 2 9 10
M  V30 10 1 10 11
M  V30 11 1 11 12
M  V30 12 2 12 13
M  V30 13 1 13 14
M  V30 14 2 14 15
M  V30 15 1 3 16
M  V30 16 1 16 17
M  V30 17 2 17 18
M  V30 18 1 18 19
M  V30 19 2 19 20
M  V30 20 1 20 21
M  V30 21 1 20 22
M  V30 22 1 22 23
M  V30 23 2 23 24
M  V30 24 1 23 25
M  V30 25 1 25 26
M  V30 26 1 26 27
M  V30 27 2 27 28
M  V30 28 1 28 29
M  V30 29 2 29 30
M  V30 30 1 30 31
M  V30 31 2 31 32
M  V30 32 1 32 33
M  V30 33 2 22 34
M  V30 34 1 16 35
M  V30 35 1 35 36
M  V30 36 2 36 37
M  V30 37 1 36 38
M  V30 38 1 38 2
M  V30 39 1 15 7
M  V30 40 1 34 17
M  V30 41 1 14 10
M  V30 42 1 32 27
M  V30 43 1 1 39
M  V30 44 1 1 40
M  V30 45 1 1 41
M  V30 46 1 6 42
M  V30 47 1 8 43
M  V30 48 1 9 44
M  V30 49 1 11 45
M  V30 50 1 13 46
M  V30 51 1 15 47
M  V30 52 1 16 48
M  V30 53 1 18 49
M  V30 54 1 19 50
M  V30 55 1 25 51
M  V30 56 1 26 52
M  V30 57 1 26 53
M  V30 58 1 29 54
M  V30 59 1 30 55
M  V30 60 1 31 56
M  V30 61 1 33 57
M  V30 62 1 33 58
M  V30 63 1 33 59
M  V30 64 1 34 60
M  V30 65 1 35 61
M  V30 66 1 38 62
M  V30 END BOND
M  V30 END CTAB
M  END
>  <Dataset>  (25) 
ChEMBL_Kinases

>  <Ligand_Instance>  (25) 
nan

>  <PDB_ID>  (25) 
nan

>  <Standardized_SMILES>  (25) 
CC1=C(C(=O)Nc2ccc3[nH]ncc3c2)C(c2ccc(F)c(C(=O)NCc3ncccc3C)c2)NC(=O)N1

>  <Name>  (25) 
nan

>  <Pocket>  (25) 
nan

>  <ATP_Site>  (25) 
nan

>  <Peripheral>  (25) 
nan

>  <Num_H_Atoms_ProtBoundConf>  (25) 
nan

>  <Num_Resolved_Atoms>  (25) 
nan

>  <Num_Not_Resolved_Atoms>  (25) 
nan

$$$$
CHEMBL3809913
     RDKit          3D

  0  0  0  0  0  0  0  0  0  0999 V3000
M  V30 BEGIN CTAB
M  V30 COUNTS 66 70 0 0 0
M  V30 BEGIN ATOM
M  V30 1 C 5.052522 -2.026456 4.140750 0
M  V30 2 C 3.655274 -2.386719 3.775709 0
M  V30 3 C 2.701423 -1.520217 3.487928 0
M  V30 4 C 2.994666 -0.092128 3.526673 0
M  V30 5 O 4.161752 0.237103 3.831154 0
M  V30 6 N 2.085571 0.946417 3.254770 0
M  V30 7 C 2.256252 2.345208 3.260225 0
M  V30 8 C 3.402944 3.045492 3.546406 0
M  V30 9 C 3.542397 4.410202 3.544952 0
M  V30 10 C 2.432462 5.159603 3.227709 0
M  V30 11 N 2.206032 6.479982 3.129980 0
M  V30 12 N 0.925123 6.674940 2.782675 0
M  V30 13 C 0.317235 5.491804 2.653923 0
M  V30 14 C 1.251630 4.517883 2.930794 0
M  V30 15 C 1.192782 3.159416 2.953446 0
M  V30 16 C 1.346352 -1.851264 3.064336 0
M  V30 17 C 1.133041 -1.542592 1.610924 0
M  V30 18 C 2.022889 -0.930256 0.754346 0
M  V30 19 C 1.679115 -0.702474 -0.558210 0
M  V30 20 C 0.430233 -1.107609 -0.964358 0
M  V30 21 F 0.125673 -0.869366 -2.255219 0
M  V30 22 C -0.513074 -1.723350 -0.175342 0
M  V30 23 C -1.838409 -2.159392 -0.577580 0
M  V30 24 O -2.623333 -2.712578 0.258877 0
M  V30 25 N -2.446997 -2.064670 -1.835997 0
M  V30 26 C -3.803498 -2.570549 -2.024649 0
M  V30 27 C -4.200873 -2.351404 -3.423131 0
M  V30 28 C -3.711932 -3.164256 -4.424226 0
M  V30 29 C -2.778086 -4.255673 -4.028457 0
M  V30 30 C -4.092297 -2.952806 -5.749455 0
M  V30 31 C -4.957213 -1.944221 -6.124573 0
M  V30 32 C -5.439446 -1.137770 -5.113561 0
M  V30 33 C -5.077029 -1.328616 -3.797894 0
M  V30 34 C -5.581983 -0.475165 -2.702121 0
M  V30 35 C -0.125196 -1.931835 1.133956 0
M  V30 36 N 1.078280 -3.257329 3.291657 0
M  V30 37 C 2.018703 -4.280916 3.576095 0
M  V30 38 O 1.702996 -5.496763 3.603794 0
M  V30 39 N 3.331066 -3.793161 3.821628 0
M  V30 40 H 5.113528 -1.449554 5.098735 0
M  V30 41 H 5.660062 -2.940636 4.318350 0
M  V30 42 H 5.589844 -1.503825 3.302100 0
M  V30 43 H 1.129967 0.579725 3.018045 0
M  V30 44 H 4.296410 2.500044 3.799944 0
M  V30 45 H 4.470159 4.893943 3.778636 0
M  V30 46 H 2.885382 7.264984 3.288936 0
M  V30 47 H -0.718881 5.308182 2.382336 0
M  V30 48 H 0.217819 2.713833 2.705691 0
M  V30 49 H 0.599052 -1.272426 3.676370 0
M  V30 50 H 2.975639 -0.653540 1.157167 0
M  V30 51 H 2.370869 -0.224371 -1.231897 0
M  V30 52 H -1.925218 -1.640024 -2.604503 0
M  V30 53 H -4.434594 -1.917185 -1.353345 0
M  V30 54 H -3.945975 -3.594977 -1.648923 0
M  V30 55 H -2.514968 -4.805378 -4.971555 0
M  V30 56 H -3.242215 -4.988868 -3.339752 0
M  V30 57 H -1.837625 -3.898001 -3.591168 0
M  V30 58 H -3.688632 -3.612413 -6.514755 0
M  V30 59 H -5.258247 -1.772091 -7.148497 0
M  V30 60 H -6.116914 -0.332495 -5.331433 0
M  V30 61 H -4.767828 -0.037520 -2.089043 0
M  V30 62 H -6.093082 0.404568 -3.185127 0
M  V30 63 H -6.350787 -0.978892 -2.088357 0
M  V30 64 H -0.848778 -2.420669 1.801460 0
M  V30 65 H 0.054502 -3.540231 3.237043 0
M  V30 66 H 4.080244 -4.495002 4.042845 0
M  V30 END ATOM
M  V30 BEGIN BOND
M  V30 1 1 1 2
M  V30 2 2 2 3
M  V30 3 1 3 4
M  V30 4 2 4 5
M  V30 5 1 4 6
M  V30 6 1 6 7
M  V30 7 2 7 8
M  V30 8 1 8 9
M  V30 9 2 9 10
M  V30 10 1 10 11
M  V30 11 1 11 12
M  V30 12 2 12 13
M  V30 13 1 13 14
M  V30 14 2 14 15
M  V30 15 1 3 16
M  V30 16 1 16 17
M  V30 17 2 17 18
M  V30 18 1 18 19
M  V30 19 2 19 20
M  V30 20 1 20 21
M  V30 21 1 20 22
M  V30 22 1 22 23
M  V30 23 2 23 24
M  V30 24 1 23 25
M  V30 25 1 25 26
M  V30 26 1 26 27
M  V30 27 2 27 28
M  V30 28 1 28 29
M  V30 29 1 28 30
M  V30 30 2 30 31
M  V30 31 1 31 32
M  V30 32 2 32 33
M  V30 33 1 33 34
M  V30 34 2 22 35
M  V30 35 1 16 36
M  V30 36 1 36 37
M  V30 37 2 37 38
M  V30 38 1 37 39
M  V30 39 1 39 2
M  V30 40 1 15 7
M  V30 41 1 35 17
M  V30 42 1 14 10
M  V30 43 1 33 27
M  V30 44 1 1 40
M  V30 45 1 1 41
M  V30 46 1 1 42
M  V30 47 1 6 43
M  V30 48 1 8 44
M  V30 49 1 9 45
M  V30 50 1 11 46
M  V30 51 1 13 47
M  V30 52 1 15 48
M  V30 53 1 16 49
M  V30 54 1 18 50
M  V30 55 1 19 51
M  V30 56 1 25 52
M  V30 57 1 26 53
M  V30 58 1 26 54
M  V30 59 1 29 55
M  V30 60 1 29 56
M  V30 61 1 29 57
M  V30 62 1 30 58
M  V30 63 1 31 59
M  V30 64 1 32 60
M  V30 65 1 34 61
M  V30 66 1 34 62
M  V30 67 1 34 63
M  V30 68 1 35 64
M  V30 69 1 36 65
M  V30 70 1 39 66
M  V30 END BOND
M  V30 END CTAB
M  END
>  <Dataset>  (26) 
ChEMBL_Kinases

>  <Ligand_Instance>  (26) 
nan

>  <PDB_ID>  (26) 
nan

>  <Standardized_SMILES>  (26) 
CC1=C(C(=O)Nc2ccc3[nH]ncc3c2)C(c2ccc(F)c(C(=O)NCc3c(C)cccc3C)c2)NC(=O)N1

>  <Name>  (26) 
nan

>  <Pocket>  (26) 
nan

>  <ATP_Site>  (26) 
nan

>  <Peripheral>  (26) 
nan

>  <Num_H_Atoms_ProtBoundConf>  (26) 
nan

>  <Num_Resolved_Atoms>  (26) 
nan

>  <Num_Not_Resolved_Atoms>  (26) 
nan

$$$$
CHEMBL3545308
     RDKit          3D

  0  0  0  0  0  0  0  0  0  0999 V3000
M  V30 BEGIN CTAB
M  V30 COUNTS 68 71 0 0 0
M  V30 BEGIN ATOM
M  V30 1 C 1.160975 -4.520003 0.117959 0
M  V30 2 C 2.269851 -4.016320 -0.444271 0
M  V30 3 C 2.284258 -2.803194 -1.276091 0
M  V30 4 O 3.349880 -2.329439 -1.809465 0
M  V30 5 N 1.171539 -1.991383 -1.612258 0
M  V30 6 C 1.680600 -0.931212 -2.436437 0
M  V30 7 C 1.726995 -1.117612 -3.803402 0
M  V30 8 C 2.224280 -0.087895 -4.580789 0
M  V30 9 C 2.658907 1.084942 -4.015210 0
M  V30 10 C 2.630541 1.315507 -2.650407 0
M  V30 11 N 3.077569 2.489068 -1.987388 0
M  V30 12 C 2.762391 2.985085 -0.696440 0
M  V30 13 N 1.844830 2.450476 0.119423 0
M  V30 14 C 1.561898 2.903583 1.346577 0
M  V30 15 N 0.584975 2.375572 2.225767 0
M  V30 16 C -0.378783 1.378989 1.992649 0
M  V30 17 C -0.627746 0.766842 0.783474 0
M  V30 18 C -1.570551 -0.199943 0.507933 0
M  V30 19 C -2.369904 -0.615376 1.559879 0
M  V30 20 N -3.372922 -1.596326 1.368148 0
M  V30 21 C -3.893998 -2.051319 0.097342 0
M  V30 22 C -3.661378 -3.512812 -0.146755 0
M  V30 23 N -3.398269 -4.266245 1.028871 0
M  V30 24 C -2.476757 -5.345560 0.960257 0
M  V30 25 C -1.997075 -6.296711 1.990592 0
M  V30 26 O -2.117298 -5.336755 -0.244142 0
M  V30 27 C -4.137922 -3.801918 2.154879 0
M  V30 28 C -4.035487 -2.321294 2.422789 0
M  V30 29 C -2.170111 -0.041375 2.792353 0
M  V30 30 C -1.213793 0.922692 3.019810 0
M  V30 31 O -1.049764 1.473868 4.284115 0
M  V30 32 C -1.806184 1.122080 5.409381 0
M  V30 33 N 2.269875 3.970418 1.750897 0
M  V30 34 C 3.207045 4.576941 1.011764 0
M  V30 35 C 3.471814 4.083808 -0.246864 0
M  V30 36 C 4.490816 4.726338 -1.091089 0
M  V30 37 F 4.015336 5.228881 -2.279589 0
M  V30 38 F 5.578297 3.871950 -1.309999 0
M  V30 39 F 5.023757 5.796834 -0.400214 0
M  V30 40 C 2.129830 0.265303 -1.921298 0
M  V30 41 H 0.254782 -3.967309 -0.081284 0
M  V30 42 H 1.303520 -5.416678 0.702284 0
M  V30 43 H 3.251737 -4.474203 -0.323291 0
M  V30 44 H 0.233303 -2.289506 -1.224590 0
M  V30 45 H 1.393425 -2.026244 -4.284929 0
M  V30 46 H 2.287387 -0.170725 -5.653974 0
M  V30 47 H 3.055767 1.906398 -4.631637 0
M  V30 48 H 3.723695 2.996207 -2.601341 0
M  V30 49 H 0.566658 2.784219 3.209609 0
M  V30 50 H -0.034700 1.062715 -0.068647 0
M  V30 51 H -1.669520 -0.607977 -0.491404 0
M  V30 52 H -3.472578 -1.467159 -0.756186 0
M  V30 53 H -5.013055 -1.889890 0.134049 0
M  V30 54 H -4.560871 -3.949068 -0.654207 0
M  V30 55 H -2.828292 -3.655586 -0.867262 0
M  V30 56 H -0.867941 -6.342292 1.998080 0
M  V30 57 H -2.416597 -7.307065 1.737413 0
M  V30 58 H -2.403723 -5.997430 2.959113 0
M  V30 59 H -3.749504 -4.356250 3.059126 0
M  V30 60 H -5.203415 -4.124064 2.057087 0
M  V30 61 H -5.067428 -1.898282 2.546832 0
M  V30 62 H -3.511601 -2.143808 3.367273 0
M  V30 63 H -2.756552 -0.308683 3.673739 0
M  V30 64 H -1.882919 0.011646 5.564455 0
M  V30 65 H -2.840643 1.512358 5.365097 0
M  V30 66 H -1.334964 1.587719 6.307656 0
M  V30 67 H 3.767313 5.434892 1.352142 0
M  V30 68 H 2.061176 0.308721 -0.853187 0
M  V30 END ATOM
M  V30 BEGIN BOND
M  V30 1 2 1 2
M  V30 2 1 2 3
M  V30 3 2 3 4
M  V30 4 1 3 5
M  V30 5 1 5 6
M  V30 6 2 6 7
M  V30 7 1 7 8
M  V30 8 2 8 9
M  V30 9 1 9 10
M  V30 10 1 10 11
M  V30 11 1 11 12
M  V30 12 2 12 13
M  V30 13 1 13 14
M  V30 14 1 14 15
M  V30 15 1 15 16
M  V30 16 2 16 17
M  V30 17 1 17 18
M  V30 18 2 18 19
M  V30 19 1 19 20
M  V30 20 1 20 21
M  V30 21 1 21 22
M  V30 22 1 22 23
M  V30 23 1 23 24
M  V30 24 1 24 25
M  V30 25 2 24 26
M  V30 26 1 23 27
M  V30 27 1 27 28
M  V30 28 1 19 29
M  V30 29 2 29 30
M  V30 30 1 30 31
M  V30 31 1 31 32
M  V30 32 2 14 33
M  V30 33 1 33 34
M  V30 34 2 34 35
M  V30 35 1 35 36
M  V30 36 1 36 37
M  V30 37 1 36 38
M  V30 38 1 36 39
M  V30 39 2 10 40
M  V30 40 1 40 6
M  V30 41 1 35 12
M  V30 42 1 30 16
M  V30 43 1 28 20
M  V30 44 1 1 41
M  V30 45 1 1 42
M  V30 46 1 2 43
M  V30 47 1 5 44
M  V30 48 1 7 45
M  V30 49 1 8 46
M  V30 50 1 9 47
M  V30 51 1 11 48
M  V30 52 1 15 49
M  V30 53 1 17 50
M  V30 54 1 18 51
M  V30 55 1 21 52
M  V30 56 1 21 53
M  V30 57 1 22 54
M  V30 58 1 22 55
M  V30 59 1 25 56
M  V30 60 1 25 57
M  V30 61 1 25 58
M  V30 62 1 27 59
M  V30 63 1 27 60
M  V30 64 1 28 61
M  V30 65 1 28 62
M  V30 66 1 29 63
M  V30 67 1 32 64
M  V30 68 1 32 65
M  V30 69 1 32 66
M  V30 70 1 34 67
M  V30 71 1 40 68
M  V30 END BOND
M  V30 END CTAB
M  END
>  <Dataset>  (27) 
ChEMBL_Kinases

>  <Ligand_Instance>  (27) 
nan

>  <PDB_ID>  (27) 
nan

>  <Standardized_SMILES>  (27) 
C=CC(=O)Nc1cccc(Nc2nc(Nc3ccc(N4CCN(C(C)=O)CC4)cc3OC)ncc2C(F)(F)F)c1

>  <Name>  (27) 
ROCILETINIB

>  <Pocket>  (27) 
nan

>  <ATP_Site>  (27) 
nan

>  <Peripheral>  (27) 
nan

>  <Num_H_Atoms_ProtBoundConf>  (27) 
nan

>  <Num_Resolved_Atoms>  (27) 
nan

>  <Num_Not_Resolved_Atoms>  (27) 
nan

$$$$
CHEMBL3809489
     RDKit          3D

  0  0  0  0  0  0  0  0  0  0999 V3000
M  V30 BEGIN CTAB
M  V30 COUNTS 72 78 0 0 0
M  V30 BEGIN ATOM
M  V30 1 N 2.633667 -4.818975 3.667891 0
M  V30 2 C 2.048118 -3.545817 3.472121 0
M  V30 3 N 2.180056 -2.526476 4.337522 0
M  V30 4 C 1.501449 -1.466500 3.853749 0
M  V30 5 N 1.389447 -0.183361 4.458595 0
M  V30 6 C 0.671275 0.943905 3.976491 0
M  V30 7 C 0.709685 2.158456 4.672046 0
M  V30 8 C 0.015013 3.242269 4.202812 0
M  V30 9 C -0.736940 3.210490 3.062524 0
M  V30 10 C -0.794233 2.028689 2.356534 0
M  V30 11 C -0.097885 0.954418 2.832980 0
M  V30 12 C -1.530037 1.735900 1.111046 0
M  V30 13 C -1.191665 2.615016 -0.044861 0
M  V30 14 C -0.972022 4.065737 0.314790 0 CFG=1
M  V30 15 N -1.256553 4.836121 -0.893937 0
M  V30 16 C -0.359234 4.347904 -1.930726 0
M  V30 17 C -0.566423 5.384202 -3.022969 0
M  V30 18 C -0.803744 6.651517 -2.232336 0
M  V30 19 C -0.868627 6.230742 -0.766638 0
M  V30 20 C -2.019430 4.454499 1.345203 0
M  V30 21 C -1.404489 4.493297 2.734419 0
M  V30 22 N 0.980940 -1.899887 2.698541 0
M  V30 23 N 1.283896 -3.149711 2.425369 0
M  V30 24 C 0.880957 -3.869653 1.270273 0
M  V30 25 C 1.222746 -5.174145 1.013137 0
M  V30 26 C 0.771764 -5.776189 -0.146595 0
M  V30 27 C -0.024462 -5.100606 -1.073559 0
M  V30 28 N -0.323809 -3.826226 -0.763473 0
M  V30 29 N 0.112411 -3.257100 0.349984 0
M  V30 30 C -0.625093 -5.479661 -2.346402 0
M  V30 31 C -1.347958 -4.420470 -2.907172 0
M  V30 32 C -1.975887 -4.626563 -4.114947 0
M  V30 33 C -1.877560 -5.855505 -4.732656 0
M  V30 34 C -1.162183 -6.894175 -4.172029 0
M  V30 35 C -0.514231 -6.719780 -2.950047 0
M  V30 36 C 0.222959 -7.928254 -2.458785 0
M  V30 37 C 0.161363 -8.029067 -0.949060 0
M  V30 38 C 1.226267 -7.184271 -0.275935 0
M  V30 39 H 3.604304 -5.019596 3.331434 0
M  V30 40 H 1.905738 -5.403030 4.175723 0
M  V30 41 H 1.901799 -0.047183 5.381235 0
M  V30 42 H 1.299894 2.226291 5.586639 0
M  V30 43 H 0.051986 4.180942 4.752912 0
M  V30 44 H -0.182235 0.061224 2.239891 0
M  V30 45 H -2.642533 1.773650 1.268640 0
M  V30 46 H -1.304821 0.681393 0.801959 0
M  V30 47 H -0.282092 2.208597 -0.575186 0
M  V30 48 H -2.051935 2.592307 -0.768192 0
M  V30 49 H 0.050954 4.201234 0.682039 0
M  V30 50 H 0.685601 4.355345 -1.578613 0
M  V30 51 H -0.660749 3.327239 -2.236575 0
M  V30 52 H 0.332967 5.437441 -3.653648 0
M  V30 53 H -1.495498 5.114308 -3.560828 0
M  V30 54 H 0.056238 7.354333 -2.393434 0
M  V30 55 H -1.769590 7.089003 -2.508796 0
M  V30 56 H -1.647484 6.775037 -0.217887 0
M  V30 57 H 0.145943 6.369248 -0.343775 0
M  V30 58 H -2.393871 5.482612 1.161065 0
M  V30 59 H -2.895698 3.792787 1.321960 0
M  V30 60 H -0.663148 5.324814 2.755504 0
M  V30 61 H -2.205907 4.744630 3.449220 0
M  V30 62 H 1.823016 -5.730650 1.679539 0
M  V30 63 H -1.358882 -3.488689 -2.330597 0
M  V30 64 H -2.516291 -3.764454 -4.489131 0
M  V30 65 H -2.386039 -5.973468 -5.678050 0
M  V30 66 H -1.088328 -7.859732 -4.661437 0
M  V30 67 H 1.270488 -7.914905 -2.769217 0
M  V30 68 H -0.264436 -8.846256 -2.871286 0
M  V30 69 H -0.826750 -7.617553 -0.640282 0
M  V30 70 H 0.207948 -9.083333 -0.634209 0
M  V30 71 H 1.444827 -7.656775 0.703227 0
M  V30 72 H 2.177307 -7.225709 -0.883113 0
M  V30 END ATOM
M  V30 BEGIN BOND
M  V30 1 1 1 2
M  V30 2 2 2 3
M  V30 3 1 3 4
M  V30 4 1 4 5
M  V30 5 1 5 6
M  V30 6 2 6 7
M  V30 7 1 7 8
M  V30 8 2 8 9
M  V30 9 1 9 10
M  V30 10 2 10 11
M  V30 11 1 10 12
M  V30 12 1 12 13
M  V30 13 1 13 14
M  V30 14 1 14 15
M  V30 15 1 15 16
M  V30 16 1 16 17
M  V30 17 1 17 18
M  V30 18 1 18 19
M  V30 19 1 14 20
M  V30 20 1 20 21
M  V30 21 2 4 22
M  V30 22 1 22 23
M  V30 23 1 23 24
M  V30 24 2 24 25
M  V30 25 1 25 26
M  V30 26 2 26 27
M  V30 27 1 27 28
M  V30 28 2 28 29
M  V30 29 1 27 30
M  V30 30 2 30 31
M  V30 31 1 31 32
M  V30 32 2 32 33
M  V30 33 1 33 34
M  V30 34 2 34 35
M  V30 35 1 35 36
M  V30 36 1 36 37
M  V30 37 1 37 38
M  V30 38 1 23 2
M  V30 39 1 29 24
M  V30 40 1 35 30
M  V30 41 1 11 6
M  V30 42 1 19 15
M  V30 43 1 38 26
M  V30 44 1 21 9
M  V30 45 1 1 39
M  V30 46 1 1 40
M  V30 47 1 5 41
M  V30 48 1 7 42
M  V30 49 1 8 43
M  V30 50 1 11 44
M  V30 51 1 12 45
M  V30 52 1 12 46
M  V30 53 1 13 47
M  V30 54 1 13 48
M  V30 55 1 14 49 CFG=1
M  V30 56 1 16 50
M  V30 57 1 16 51
M  V30 58 1 17 52
M  V30 59 1 17 53
M  V30 60 1 18 54
M  V30 61 1 18 55
M  V30 62 1 19 56
M  V30 63 1 19 57
M  V30 64 1 20 58
M  V30 65 1 20 59
M  V30 66 1 21 60
M  V30 67 1 21 61
M  V30 68 1 25 62
M  V30 69 1 31 63
M  V30 70 1 32 64
M  V30 71 1 33 65
M  V30 72 1 34 66
M  V30 73 1 36 67
M  V30 74 1 36 68
M  V30 75 1 37 69
M  V30 76 1 37 70
M  V30 77 1 38 71
M  V30 78 1 38 72
M  V30 END BOND
M  V30 END CTAB
M  END
>  <Dataset>  (28) 
ChEMBL_Kinases

>  <Ligand_Instance>  (28) 
nan

>  <PDB_ID>  (28) 
nan

>  <Standardized_SMILES>  (28) 
Nc1nc(Nc2ccc3c(c2)CC[C@@H](N2CCCC2)CC3)nn1-c1cc2c(nn1)-c1ccccc1CCC2

>  <Name>  (28) 
BEMCENTINIB

>  <Pocket>  (28) 
nan

>  <ATP_Site>  (28) 
nan

>  <Peripheral>  (28) 
nan

>  <Num_H_Atoms_ProtBoundConf>  (28) 
nan

>  <Num_Resolved_Atoms>  (28) 
nan

>  <Num_Not_Resolved_Atoms>  (28) 
nan

$$$$
CHEMBL3808669
     RDKit          3D

  0  0  0  0  0  0  0  0  0  0999 V3000
M  V30 BEGIN CTAB
M  V30 COUNTS 47 51 0 0 0
M  V30 BEGIN ATOM
M  V30 1 C 4.823586 -0.942124 0.921185 0
M  V30 2 C 3.699257 -1.566286 0.199866 0
M  V30 3 N 3.516904 -2.566816 -0.718007 0
M  V30 4 C 2.267730 -2.856225 -1.124271 0
M  V30 5 C 2.030347 -3.858595 -2.035057 0
M  V30 6 C 0.717401 -4.112205 -2.402529 0
M  V30 7 C -0.408610 -3.440820 -1.932865 0
M  V30 8 C -0.165227 -2.439250 -1.022653 0
M  V30 9 C 1.144943 -2.206170 -0.674751 0
M  V30 10 N 1.408846 -1.249541 0.210719 0
M  V30 11 C 2.607627 -0.897911 0.667596 0
M  V30 12 N 2.355552 0.130979 1.569272 0
M  V30 13 C 1.990568 1.513733 1.622279 0
M  V30 14 C 1.408866 1.890555 2.989938 0
M  V30 15 C 0.116985 1.104661 3.219513 0
M  V30 16 C -0.908561 1.437385 2.171609 0
M  V30 17 C -2.153391 0.581000 2.254222 0 CFG=1
M  V30 18 C -3.429667 1.372630 2.373739 0
M  V30 19 N -4.485010 0.908072 1.484094 0
M  V30 20 C -4.424588 0.084035 0.298350 0
M  V30 21 O -5.324238 -0.116689 -0.523020 0
M  V30 22 C -3.146601 -0.574433 0.066752 0
M  V30 23 C -2.549027 -1.421112 -0.843202 0
M  V30 24 C -1.251023 -1.665071 -0.450620 0
M  V30 25 N -1.110428 -0.960540 0.682379 0
M  V30 26 C -2.221027 -0.290841 1.025766 0
M  V30 27 H 5.742040 -1.470940 0.645960 0
M  V30 28 H 4.925250 0.147430 0.687276 0
M  V30 29 H 4.721662 -1.107561 2.035052 0
M  V30 30 H 2.870728 -4.409237 -2.429407 0
M  V30 31 H 0.585908 -4.926095 -3.135441 0
M  V30 32 H -1.417468 -3.660517 -2.237469 0
M  V30 33 H 2.590484 -0.499548 2.366691 0
M  V30 34 H 1.388857 1.866417 0.792264 0
M  V30 35 H 2.945580 2.129850 1.580343 0
M  V30 36 H 2.095801 1.666927 3.799345 0
M  V30 37 H 1.151863 2.963857 2.927226 0
M  V30 38 H -0.276675 1.452208 4.204541 0
M  V30 39 H 0.354383 0.054780 3.344277 0
M  V30 40 H -0.459893 1.261844 1.177978 0
M  V30 41 H -1.206349 2.516015 2.223976 0
M  V30 42 H -2.072269 -0.089967 3.115043 0
M  V30 43 H -3.837399 1.312755 3.425443 0
M  V30 44 H -3.207624 2.447400 2.210069 0
M  V30 45 H -5.461848 1.222486 1.742423 0
M  V30 46 H -3.047260 -1.813054 -1.713386 0
M  V30 47 H -0.306898 -0.867742 1.329090 0
M  V30 END ATOM
M  V30 BEGIN BOND
M  V30 1 1 1 2
M  V30 2 2 2 3
M  V30 3 1 3 4
M  V30 4 2 4 5
M  V30 5 1 5 6
M  V30 6 2 6 7
M  V30 7 1 7 8
M  V30 8 2 8 9
M  V30 9 1 9 10
M  V30 10 2 10 11
M  V30 11 1 11 12
M  V30 12 1 12 13
M  V30 13 1 13 14
M  V30 14 1 14 15
M  V30 15 1 15 16
M  V30 16 1 16 17
M  V30 17 1 17 18
M  V30 18 1 18 19
M  V30 19 1 19 20
M  V30 20 2 20 21
M  V30 21 1 20 22
M  V30 22 1 22 23
M  V30 23 2 23 24
M  V30 24 1 24 25
M  V30 25 1 25 26
M  V30 26 1 11 2
M  V30 27 1 26 17
M  V30 28 1 9 4
M  V30 29 2 26 22
M  V30 30 1 24 8
M  V30 31 1 1 27
M  V30 32 1 1 28
M  V30 33 1 1 29
M  V30 34 1 5 30
M  V30 35 1 6 31
M  V30 36 1 7 32
M  V30 37 1 12 33
M  V30 38 1 13 34
M  V30 39 1 13 35
M  V30 40 1 14 36
M  V30 41 1 14 37
M  V30 42 1 15 38
M  V30 43 1 15 39
M  V30 44 1 16 40
M  V30 45 1 16 41
M  V30 46 1 17 42 CFG=1
M  V30 47 1 18 43
M  V30 48 1 18 44
M  V30 49 1 19 45
M  V30 50 1 23 46
M  V30 51 1 25 47
M  V30 END BOND
M  V30 END CTAB
M  END
>  <Dataset>  (29) 
ChEMBL_Kinases

>  <Ligand_Instance>  (29) 
nan

>  <PDB_ID>  (29) 
nan

>  <Standardized_SMILES>  (29) 
Cc1nc2cccc3c2nc1NCCCC[C@H]1CNC(=O)c2cc-3[nH]c21

>  <Name>  (29) 
nan

>  <Pocket>  (29) 
nan

>  <ATP_Site>  (29) 
nan

>  <Peripheral>  (29) 
nan

>  <Num_H_Atoms_ProtBoundConf>  (29) 
nan

>  <Num_Resolved_Atoms>  (29) 
nan

>  <Num_Not_Resolved_Atoms>  (29) 
nan

$$$$
CHEMBL4088668
     RDKit          3D

  0  0  0  0  0  0  0  0  0  0999 V3000
M  V30 BEGIN CTAB
M  V30 COUNTS 47 51 0 0 0
M  V30 BEGIN ATOM
M  V30 1 C -2.508043 -2.642483 4.169252 0
M  V30 2 C -1.396758 -3.223089 3.372392 0
M  V30 3 C -0.839172 -2.556024 2.328296 0
M  V30 4 C 0.190764 -3.019446 1.539648 0
M  V30 5 C 0.822488 -2.331525 0.420187 0
M  V30 6 C 1.292354 -3.178331 -0.594816 0
M  V30 7 C 1.930740 -2.757274 -1.738914 0
M  V30 8 C 2.109157 -1.405668 -1.873677 0
M  V30 9 N 2.741938 -0.993667 -3.003889 0
M  V30 10 C 2.954962 0.319906 -3.204049 0
M  V30 11 C 2.506030 1.166740 -2.226923 0
M  V30 12 N 2.573507 2.494786 -2.140984 0
M  V30 13 N 2.016595 2.865315 -1.028191 0
M  V30 14 N 1.537293 1.835356 -0.287583 0
M  V30 15 C 0.892025 2.043485 0.974860 0 CFG=2
M  V30 16 C 1.662691 1.746692 2.215261 0
M  V30 17 C -0.571645 1.916973 1.032085 0
M  V30 18 C -1.404398 1.252202 1.907422 0
M  V30 19 C -2.775393 1.223403 1.816769 0
M  V30 20 C -3.417966 1.886419 0.801827 0
M  V30 21 F -4.757446 1.800556 0.796139 0
M  V30 22 C -2.637504 2.569725 -0.105069 0
M  V30 23 C -1.262894 2.583918 0.006971 0
M  V30 24 C 1.860323 0.800087 -1.065699 0
M  V30 25 C 1.671610 -0.539899 -0.916699 0
M  V30 26 C 1.042776 -0.987310 0.204135 0
M  V30 27 C 0.652512 -4.290451 1.900669 0
M  V30 28 C 0.109634 -4.987566 2.949122 0
M  V30 29 N -0.897688 -4.448462 3.662908 0
M  V30 30 H -2.810205 -1.675352 3.721665 0
M  V30 31 H -3.412132 -3.285699 4.194442 0
M  V30 32 H -2.168794 -2.429065 5.200049 0
M  V30 33 H -1.222280 -1.597300 2.088634 0
M  V30 34 H 1.168256 -4.252639 -0.524056 0
M  V30 35 H 2.277796 -3.439895 -2.497630 0
M  V30 36 H 3.450495 0.723881 -4.077038 0
M  V30 37 H 0.926663 3.210456 1.069219 0
M  V30 38 H 1.271603 2.315930 3.104062 0
M  V30 39 H 1.823054 0.748588 2.543021 0
M  V30 40 H 2.681757 2.216571 2.060876 0
M  V30 41 H -0.848046 0.748621 2.684696 0
M  V30 42 H -3.259609 0.644604 2.601915 0
M  V30 43 H -3.152089 3.089540 -0.901867 0
M  V30 44 H -0.744319 3.157690 -0.767589 0
M  V30 45 H 0.636130 -0.484850 1.035356 0
M  V30 46 H 1.443042 -4.808256 1.406598 0
M  V30 47 H 0.430273 -5.971463 3.267793 0
M  V30 END ATOM
M  V30 BEGIN BOND
M  V30 1 1 1 2
M  V30 2 2 2 3
M  V30 3 1 3 4
M  V30 4 1 4 5
M  V30 5 2 5 6
M  V30 6 1 6 7
M  V30 7 2 7 8
M  V30 8 1 8 9
M  V30 9 2 9 10
M  V30 10 1 10 11
M  V30 11 1 11 12
M  V30 12 2 12 13
M  V30 13 1 13 14
M  V30 14 1 14 15
M  V30 15 1 15 16
M  V30 16 1 15 17
M  V30 17 2 17 18
M  V30 18 1 18 19
M  V30 19 2 19 20
M  V30 20 1 20 21
M  V30 21 1 20 22
M  V30 22 2 22 23
M  V30 23 1 14 24
M  V30 24 1 24 25
M  V30 25 2 25 26
M  V30 26 2 4 27
M  V30 27 1 27 28
M  V30 28 2 28 29
M  V30 29 1 29 2
M  V30 30 1 26 5
M  V30 31 1 25 8
M  V30 32 2 24 11
M  V30 33 1 23 17
M  V30 34 1 1 30
M  V30 35 1 1 31
M  V30 36 1 1 32
M  V30 37 1 3 33
M  V30 38 1 6 34
M  V30 39 1 7 35
M  V30 40 1 10 36
M  V30 41 1 15 37 CFG=1
M  V30 42 1 16 38
M  V30 43 1 16 39
M  V30 44 1 16 40
M  V30 45 1 18 41
M  V30 46 1 19 42
M  V30 47 1 22 43
M  V30 48 1 23 44
M  V30 49 1 26 45
M  V30 50 1 27 46
M  V30 51 1 28 47
M  V30 END BOND
M  V30 END CTAB
M  END
>  <Dataset>  (30) 
ChEMBL_Kinases

>  <Ligand_Instance>  (30) 
nan

>  <PDB_ID>  (30) 
nan

>  <Standardized_SMILES>  (30) 
Cc1cc(-c2ccc3ncc4nnn([C@H](C)c5ccc(F)cc5)c4c3c2)ccn1

>  <Name>  (30) 
nan

>  <Pocket>  (30) 
nan

>  <ATP_Site>  (30) 
nan

>  <Peripheral>  (30) 
nan

>  <Num_H_Atoms_ProtBoundConf>  (30) 
nan

>  <Num_Resolved_Atoms>  (30) 
nan

>  <Num_Not_Resolved_Atoms>  (30) 
nan

$$$$
CHEMBL4088654
     RDKit          3D

  0  0  0  0  0  0  0  0  0  0999 V3000
M  V30 BEGIN CTAB
M  V30 COUNTS 48 50 0 0 0
M  V30 BEGIN ATOM
M  V30 1 C -0.724640 -1.578883 -5.821463 0
M  V30 2 N 0.610441 -2.030772 -5.461509 0
M  V30 3 C 1.107301 -3.197239 -4.820168 0
M  V30 4 C 1.243613 -3.218064 -3.437506 0
M  V30 5 C 1.715291 -4.298304 -2.719312 0
M  V30 6 O 1.825482 -4.247282 -1.327932 0
M  V30 7 C 1.440649 -3.059306 -0.677468 0
M  V30 8 C 2.304531 -2.015779 -0.425489 0
M  V30 9 C 1.805068 -0.886222 0.228470 0
M  V30 10 C 0.474848 -0.865008 0.591736 0
M  V30 11 N 0.096530 0.339444 1.248072 0
M  V30 12 C 0.141884 0.579560 2.631906 0
M  V30 13 O 0.527353 -0.244776 3.495809 0
M  V30 14 N -0.305067 1.884717 2.958890 0
M  V30 15 C -0.371148 2.412476 4.280734 0
M  V30 16 C 0.727480 3.075743 4.796086 0
M  V30 17 C 0.760969 3.621085 6.063189 0
M  V30 18 C -0.387521 3.467269 6.810228 0
M  V30 19 Cl -0.421113 4.132568 8.428234 0
M  V30 20 C -1.529009 2.819100 6.372411 0
M  V30 21 C -2.731932 2.693998 7.240540 0
M  V30 22 F -3.226481 3.934608 7.598636 0
M  V30 23 F -2.482312 1.947617 8.368875 0
M  V30 24 F -3.686050 2.004408 6.515617 0
M  V30 25 C -1.483972 2.297799 5.086460 0
M  V30 26 C -0.402489 -1.901175 0.346729 0
M  V30 27 C -1.817086 -1.779851 0.778635 0
M  V30 28 C 0.097098 -3.015306 -0.300144 0
M  V30 29 N 2.063183 -5.400193 -3.420278 0
M  V30 30 C 1.926132 -5.369255 -4.770094 0
M  V30 31 N 1.471965 -4.331479 -5.471164 0
M  V30 32 H -0.899211 -0.530297 -5.496319 0
M  V30 33 H -0.832103 -1.591617 -6.921396 0
M  V30 34 H -1.471279 -2.191141 -5.290935 0
M  V30 35 H 1.353369 -1.337966 -5.741125 0
M  V30 36 H 0.966974 -2.337285 -2.861639 0
M  V30 37 H 3.329258 -2.130522 -0.750735 0
M  V30 38 H 2.506860 -0.088739 0.409978 0
M  V30 39 H -0.210384 0.981570 0.506255 0
M  V30 40 H -0.637607 2.618584 2.299937 0
M  V30 41 H 1.619421 3.181625 4.183571 0
M  V30 42 H 1.604359 4.141297 6.485142 0
M  V30 43 H -2.350938 1.794784 4.728365 0
M  V30 44 H -2.162775 -0.720804 0.762046 0
M  V30 45 H -2.440388 -2.329799 0.015672 0
M  V30 46 H -2.020392 -2.288499 1.725823 0
M  V30 47 H -0.608218 -3.817557 -0.482919 0
M  V30 48 H 2.226082 -6.292341 -5.265725 0
M  V30 END ATOM
M  V30 BEGIN BOND
M  V30 1 1 1 2
M  V30 2 1 2 3
M  V30 3 2 3 4
M  V30 4 1 4 5
M  V30 5 1 5 6
M  V30 6 1 6 7
M  V30 7 2 7 8
M  V30 8 1 8 9
M  V30 9 2 9 10
M  V30 10 1 10 11
M  V30 11 1 11 12
M  V30 12 2 12 13
M  V30 13 1 12 14
M  V30 14 1 14 15
M  V30 15 2 15 16
M  V30 16 1 16 17
M  V30 17 2 17 18
M  V30 18 1 18 19
M  V30 19 1 18 20
M  V30 20 1 20 21
M  V30 21 1 21 22
M  V30 22 1 21 23
M  V30 23 1 21 24
M  V30 24 2 20 25
M  V30 25 1 10 26
M  V30 26 1 26 27
M  V30 27 2 26 28
M  V30 28 2 5 29
M  V30 29 1 29 30
M  V30 30 2 30 31
M  V30 31 1 31 3
M  V30 32 1 28 7
M  V30 33 1 25 15
M  V30 34 1 1 32
M  V30 35 1 1 33
M  V30 36 1 1 34
M  V30 37 1 2 35
M  V30 38 1 4 36
M  V30 39 1 8 37
M  V30 40 1 9 38
M  V30 41 1 11 39
M  V30 42 1 14 40
M  V30 43 1 16 41
M  V30 44 1 17 42
M  V30 45 1 25 43
M  V30 46 1 27 44
M  V30 47 1 27 45
M  V30 48 1 27 46
M  V30 49 1 28 47
M  V30 50 1 30 48
M  V30 END BOND
M  V30 END CTAB
M  END
>  <Dataset>  (31) 
ChEMBL_Kinases

>  <Ligand_Instance>  (31) 
nan

>  <PDB_ID>  (31) 
nan

>  <Standardized_SMILES>  (31) 
CNc1cc(Oc2ccc(NC(=O)Nc3ccc(Cl)c(C(F)(F)F)c3)c(C)c2)ncn1

>  <Name>  (31) 
nan

>  <Pocket>  (31) 
nan

>  <ATP_Site>  (31) 
nan

>  <Peripheral>  (31) 
nan

>  <Num_H_Atoms_ProtBoundConf>  (31) 
nan

>  <Num_Resolved_Atoms>  (31) 
nan

>  <Num_Not_Resolved_Atoms>  (31) 
nan

$$$$
CHEMBL4088616
     RDKit          3D

  0  0  0  0  0  0  0  0  0  0999 V3000
M  V30 BEGIN CTAB
M  V30 COUNTS 31 33 0 0 0
M  V30 BEGIN ATOM
M  V30 1 N -0.338634 0.942717 3.668295 0
M  V30 2 C 0.562939 0.978199 2.943468 0
M  V30 3 C 1.691242 1.028421 2.067404 0
M  V30 4 C 2.852167 1.712686 2.400098 0
M  V30 5 N 3.742261 1.570506 1.401486 0
M  V30 6 C 3.205216 0.817175 0.426252 0
M  V30 7 N 3.631393 0.349229 -0.773403 0
M  V30 8 C 2.819842 -0.424936 -1.534895 0
M  V30 9 N 3.284350 -0.907972 -2.791127 0
M  V30 10 N 1.591069 -0.729029 -1.101884 0
M  V30 11 C 1.080944 -0.300774 0.090675 0
M  V30 12 C -0.269871 -0.737441 0.393407 0
M  V30 13 C -1.417145 -0.074995 0.770236 0
M  V30 14 C -2.588063 -0.750780 1.030139 0
M  V30 15 C -2.691961 -2.121859 0.931454 0
M  V30 16 C -4.029427 -2.687014 1.247571 0
M  V30 17 O -4.120685 -2.989934 2.614012 0
M  V30 18 C -1.560992 -2.814442 0.555460 0
M  V30 19 C -0.391068 -2.132740 0.296777 0
M  V30 20 C 1.934308 0.479306 0.832856 0
M  V30 21 H 3.049335 2.277647 3.300300 0
M  V30 22 H 4.721528 1.964534 1.337813 0
M  V30 23 H 2.783356 -0.623295 -3.662261 0
M  V30 24 H 4.127803 -1.550045 -2.858210 0
M  V30 25 H -1.270860 0.991164 0.812212 0
M  V30 26 H -3.395541 -0.079446 1.314980 0
M  V30 27 H -4.851113 -2.066966 0.891246 0
M  V30 28 H -4.138905 -3.680057 0.737022 0
M  V30 29 H -3.592609 -2.267084 3.073774 0
M  V30 30 H -1.676926 -3.883608 0.487778 0
M  V30 31 H 0.410682 -2.813478 0.012528 0
M  V30 END ATOM
M  V30 BEGIN BOND
M  V30 1 3 1 2
M  V30 2 1 2 3
M  V30 3 2 3 4
M  V30 4 1 4 5
M  V30 5 1 5 6
M  V30 6 2 6 7
M  V30 7 1 7 8
M  V30 8 1 8 9
M  V30 9 2 8 10
M  V30 10 1 10 11
M  V30 11 1 11 12
M  V30 12 2 12 13
M  V30 13 1 13 14
M  V30 14 2 14 15
M  V30 15 1 15 16
M  V30 16 1 16 17
M  V30 17 1 15 18
M  V30 18 2 18 19
M  V30 19 2 11 20
M  V30 20 1 20 3
M  V30 21 1 20 6
M  V30 22 1 19 12
M  V30 23 1 4 21
M  V30 24 1 5 22
M  V30 25 1 9 23
M  V30 26 1 9 24
M  V30 27 1 13 25
M  V30 28 1 14 26
M  V30 29 1 16 27
M  V30 30 1 16 28
M  V30 31 1 17 29
M  V30 32 1 18 30
M  V30 33 1 19 31
M  V30 END BOND
M  V30 END CTAB
M  END
>  <Dataset>  (32) 
ChEMBL_Kinases

>  <Ligand_Instance>  (32) 
nan

>  <PDB_ID>  (32) 
nan

>  <Standardized_SMILES>  (32) 
N#Cc1c[nH]c2nc(N)nc(-c3ccc(CO)cc3)c12

>  <Name>  (32) 
nan

>  <Pocket>  (32) 
nan

>  <ATP_Site>  (32) 
nan

>  <Peripheral>  (32) 
nan

>  <Num_H_Atoms_ProtBoundConf>  (32) 
nan

>  <Num_Resolved_Atoms>  (32) 
nan

>  <Num_Not_Resolved_Atoms>  (32) 
nan

$$$$
CHEMBL4088518
     RDKit          3D

  0  0  0  0  0  0  0  0  0  0999 V3000
M  V30 BEGIN CTAB
M  V30 COUNTS 61 64 0 0 0
M  V30 BEGIN ATOM
M  V30 1 C 2.646642 -0.300692 0.219325 0
M  V30 2 C 1.630636 -0.568495 1.255600 0
M  V30 3 C 2.028905 -0.539824 2.572533 0
M  V30 4 C 1.118276 -0.785894 3.575801 0
M  V30 5 O 1.277847 -0.808396 4.967998 0
M  V30 6 C 0.964680 0.379702 5.666788 0
M  V30 7 C 0.521219 1.508458 4.992512 0
M  V30 8 C 0.200418 2.682304 5.603058 0
M  V30 9 N -0.229485 3.764363 4.800299 0
M  V30 10 C 0.007983 3.934321 3.399738 0
M  V30 11 C -1.277765 3.992812 2.587265 0
M  V30 12 O -1.939919 5.139627 2.986552 0
M  V30 13 C -2.247841 5.035379 4.330551 0
M  V30 14 C -1.030649 4.923384 5.229042 0
M  V30 15 N 0.340055 2.689883 6.934003 0
M  V30 16 C 0.760756 1.645450 7.652240 0
M  V30 17 N 1.070614 0.499086 7.022449 0
M  V30 18 C -0.215410 -1.065139 3.235998 0
M  V30 19 C -0.558063 -1.080674 1.897830 0
M  V30 20 C 0.336850 -0.835602 0.857448 0
M  V30 21 N -0.091643 -0.859072 -0.496141 0
M  V30 22 C -0.186059 -1.883785 -1.441468 0
M  V30 23 O 0.178954 -2.999455 -1.034892 0
M  V30 24 N -0.670074 -1.612263 -2.746340 0
M  V30 25 C -0.754708 -2.654799 -3.704210 0
M  V30 26 C -0.398558 -3.959142 -3.620165 0
M  V30 27 C -0.694524 -4.527136 -4.834167 0
M  V30 28 C -0.533728 -5.901193 -5.335997 0
M  V30 29 C 0.824505 -6.033728 -6.017564 0
M  V30 30 C -1.586093 -6.265159 -6.359496 0
M  V30 31 C -0.528122 -6.920009 -4.207991 0
M  V30 32 O -1.207946 -3.572667 -5.598117 0
M  V30 33 N -1.249493 -2.452984 -4.938057 0
M  V30 34 H 3.389938 0.410172 0.634598 0
M  V30 35 H 3.192258 -1.221144 -0.092471 0
M  V30 36 H 2.180576 0.169152 -0.668511 0
M  V30 37 H 3.017045 -0.337627 2.949241 0
M  V30 38 H 0.442015 1.396821 3.920477 0
M  V30 39 H 0.651952 3.161658 2.954516 0
M  V30 40 H 0.502773 4.922116 3.218126 0
M  V30 41 H -0.965998 4.042470 1.520527 0
M  V30 42 H -1.932248 3.132406 2.723256 0
M  V30 43 H -2.978633 4.193524 4.504771 0
M  V30 44 H -2.814431 5.960398 4.605964 0
M  V30 45 H -0.457948 5.859803 5.111168 0
M  V30 46 H -1.413730 4.787236 6.260397 0
M  V30 47 H 0.841416 1.739707 8.723664 0
M  V30 48 H -1.037958 -1.279494 3.918821 0
M  V30 49 H -1.586390 -1.294017 1.585586 0
M  V30 50 H -0.353997 0.153091 -0.673600 0
M  V30 51 H -0.940562 -0.637479 -2.943152 0
M  V30 52 H 0.029406 -4.481610 -2.799546 0
M  V30 53 H 1.575748 -5.337490 -5.624472 0
M  V30 54 H 0.747090 -5.826222 -7.116473 0
M  V30 55 H 1.252922 -7.050523 -5.926778 0
M  V30 56 H -1.780471 -5.387705 -6.997234 0
M  V30 57 H -1.120353 -7.044600 -7.027077 0
M  V30 58 H -2.524146 -6.645781 -5.899271 0
M  V30 59 H -1.495395 -7.032655 -3.708578 0
M  V30 60 H -0.248215 -7.908164 -4.664582 0
M  V30 61 H 0.291260 -6.673317 -3.506361 0
M  V30 END ATOM
M  V30 BEGIN BOND
M  V30 1 1 1 2
M  V30 2 2 2 3
M  V30 3 1 3 4
M  V30 4 1 4 5
M  V30 5 1 5 6
M  V30 6 2 6 7
M  V30 7 1 7 8
M  V30 8 1 8 9
M  V30 9 1 9 10
M  V30 10 1 10 11
M  V30 11 1 11 12
M  V30 12 1 12 13
M  V30 13 1 13 14
M  V30 14 2 8 15
M  V30 15 1 15 16
M  V30 16 2 16 17
M  V30 17 2 4 18
M  V30 18 1 18 19
M  V30 19 2 19 20
M  V30 20 1 20 21
M  V30 21 1 21 22
M  V30 22 2 22 23
M  V30 23 1 22 24
M  V30 24 1 24 25
M  V30 25 1 25 26
M  V30 26 2 26 27
M  V30 27 1 27 28
M  V30 28 1 28 29
M  V30 29 1 28 30
M  V30 30 1 28 31
M  V30 31 1 27 32
M  V30 32 1 32 33
M  V30 33 1 20 2
M  V30 34 2 33 25
M  V30 35 1 17 6
M  V30 36 1 14 9
M  V30 37 1 1 34
M  V30 38 1 1 35
M  V30 39 1 1 36
M  V30 40 1 3 37
M  V30 41 1 7 38
M  V30 42 1 10 39
M  V30 43 1 10 40
M  V30 44 1 11 41
M  V30 45 1 11 42
M  V30 46 1 13 43
M  V30 47 1 13 44
M  V30 48 1 14 45
M  V30 49 1 14 46
M  V30 50 1 16 47
M  V30 51 1 18 48
M  V30 52 1 19 49
M  V30 53 1 21 50
M  V30 54 1 24 51
M  V30 55 1 26 52
M  V30 56 1 29 53
M  V30 57 1 29 54
M  V30 58 1 29 55
M  V30 59 1 30 56
M  V30 60 1 30 57
M  V30 61 1 30 58
M  V30 62 1 31 59
M  V30 63 1 31 60
M  V30 64 1 31 61
M  V30 END BOND
M  V30 END CTAB
M  END
>  <Dataset>  (33) 
ChEMBL_Kinases

>  <Ligand_Instance>  (33) 
nan

>  <PDB_ID>  (33) 
nan

>  <Standardized_SMILES>  (33) 
Cc1cc(Oc2cc(N3CCOCC3)ncn2)ccc1NC(=O)Nc1cc(C(C)(C)C)on1

>  <Name>  (33) 
nan

>  <Pocket>  (33) 
nan

>  <ATP_Site>  (33) 
nan

>  <Peripheral>  (33) 
nan

>  <Num_H_Atoms_ProtBoundConf>  (33) 
nan

>  <Num_Resolved_Atoms>  (33) 
nan

>  <Num_Not_Resolved_Atoms>  (33) 
nan

$$$$
CHEMBL3808887
     RDKit          3D

  0  0  0  0  0  0  0  0  0  0999 V3000
M  V30 BEGIN CTAB
M  V30 COUNTS 48 52 0 0 0
M  V30 BEGIN ATOM
M  V30 1 C 4.994333 -1.012432 0.339959 0
M  V30 2 C 3.630360 -1.250956 -0.200013 0
M  V30 3 N 3.449862 -1.990720 -1.329814 0
M  V30 4 C 2.181874 -2.152181 -1.742611 0
M  V30 5 C 1.890785 -2.889445 -2.884378 0
M  V30 6 C 0.610023 -3.089743 -3.357761 0
M  V30 7 C -0.502026 -2.561779 -2.719493 0
M  V30 8 C -0.210026 -1.832347 -1.589280 0
M  V30 9 C 1.078440 -1.626174 -1.105944 0
M  V30 10 N 1.278815 -0.904706 -0.000731 0
M  V30 11 C 2.531986 -0.720785 0.443686 0
M  V30 12 N 2.760622 0.050754 1.629588 0
M  V30 13 C 1.830273 0.954998 2.274665 0 CFG=2
M  V30 14 C 2.434573 1.591159 3.508330 0
M  V30 15 C 0.584411 0.244848 2.683603 0
M  V30 16 C -0.701954 0.492620 2.865092 0
M  V30 17 C -1.824609 -0.383702 3.290947 0
M  V30 18 C -2.931936 -0.475716 2.270628 0 CFG=1
M  V30 19 C -3.835728 0.762309 2.370927 0
M  V30 20 N -4.845647 0.685680 1.336456 0
M  V30 21 C -4.376419 0.504338 -0.015903 0
M  V30 22 O -5.003792 0.939322 -1.009465 0
M  V30 23 C -3.122966 -0.215183 -0.207340 0
M  V30 24 C -2.419054 -0.556700 -1.343610 0
M  V30 25 C -1.321498 -1.236421 -0.855724 0
M  V30 26 N -1.387580 -1.285705 0.488489 0
M  V30 27 C -2.479880 -0.666696 0.900577 0
M  V30 28 H 5.306291 0.037851 0.236237 0
M  V30 29 H 5.081666 -1.385758 1.381038 0
M  V30 30 H 5.696421 -1.629253 -0.254721 0
M  V30 31 H 2.739065 -3.322843 -3.417122 0
M  V30 32 H 0.422814 -3.677148 -4.261341 0
M  V30 33 H -1.529784 -2.671387 -3.023160 0
M  V30 34 H 3.714656 -0.048826 2.089177 0
M  V30 35 H 1.585084 1.823989 1.595182 0
M  V30 36 H 3.469215 1.907695 3.352105 0
M  V30 37 H 2.447608 0.893161 4.372962 0
M  V30 38 H 1.796716 2.451302 3.801151 0
M  V30 39 H 0.748196 -0.823955 2.915716 0
M  V30 40 H -1.112791 1.502499 2.694802 0
M  V30 41 H -2.266952 0.045434 4.213000 0
M  V30 42 H -1.480633 -1.403868 3.514534 0
M  V30 43 H -3.570717 -1.335927 2.559683 0
M  V30 44 H -4.249377 0.835721 3.375795 0
M  V30 45 H -3.166787 1.636616 2.142215 0
M  V30 46 H -5.889936 0.749187 1.471415 0
M  V30 47 H -2.626323 -0.367546 -2.377117 0
M  V30 48 H -0.663645 -1.758792 1.072292 0
M  V30 END ATOM
M  V30 BEGIN BOND
M  V30 1 1 1 2
M  V30 2 2 2 3
M  V30 3 1 3 4
M  V30 4 2 4 5
M  V30 5 1 5 6
M  V30 6 2 6 7
M  V30 7 1 7 8
M  V30 8 2 8 9
M  V30 9 1 9 10
M  V30 10 2 10 11
M  V30 11 1 11 12
M  V30 12 1 12 13
M  V30 13 1 13 14
M  V30 14 1 13 15
M  V30 15 2 15 16
M  V30 16 1 16 17
M  V30 17 1 17 18
M  V30 18 1 18 19
M  V30 19 1 19 20
M  V30 20 1 20 21
M  V30 21 2 21 22
M  V30 22 1 21 23
M  V30 23 1 23 24
M  V30 24 2 24 25
M  V30 25 1 25 26
M  V30 26 1 26 27
M  V30 27 1 11 2
M  V30 28 1 27 18
M  V30 29 1 9 4
M  V30 30 2 27 23
M  V30 31 1 25 8
M  V30 32 1 1 28
M  V30 33 1 1 29
M  V30 34 1 1 30
M  V30 35 1 5 31
M  V30 36 1 6 32
M  V30 37 1 7 33
M  V30 38 1 12 34
M  V30 39 1 13 35 CFG=3
M  V30 40 1 14 36
M  V30 41 1 14 37
M  V30 42 1 14 38
M  V30 43 1 15 39
M  V30 44 1 16 40
M  V30 45 1 17 41
M  V30 46 1 17 42
M  V30 47 1 18 43 CFG=1
M  V30 48 1 19 44
M  V30 49 1 19 45
M  V30 50 1 20 46
M  V30 51 1 24 47
M  V30 52 1 26 48
M  V30 END BOND
M  V30 END CTAB
M  END
>  <Dataset>  (34) 
ChEMBL_Kinases

>  <Ligand_Instance>  (34) 
nan

>  <PDB_ID>  (34) 
nan

>  <Standardized_SMILES>  (34) 
Cc1nc2cccc3c2nc1N[C@H](C)/C=C/C[C@H]1CNC(=O)c2cc-3[nH]c21

>  <Name>  (34) 
nan

>  <Pocket>  (34) 
nan

>  <ATP_Site>  (34) 
nan

>  <Peripheral>  (34) 
nan

>  <Num_H_Atoms_ProtBoundConf>  (34) 
nan

>  <Num_Resolved_Atoms>  (34) 
nan

>  <Num_Not_Resolved_Atoms>  (34) 
nan

$$$$
CHEMBL3808918
     RDKit          3D

  0  0  0  0  0  0  0  0  0  0999 V3000
M  V30 BEGIN CTAB
M  V30 COUNTS 69 73 0 0 0
M  V30 BEGIN ATOM
M  V30 1 C 4.705026 -2.019025 5.103715 0
M  V30 2 C 3.232602 -2.039936 5.114088 0
M  V30 3 C 2.465594 -1.314429 4.275388 0
M  V30 4 C 3.290841 -0.516635 3.381523 0
M  V30 5 O 4.519791 -0.405036 3.261575 0
M  V30 6 N 2.721008 0.333040 2.428285 0
M  V30 7 C 3.183389 1.225928 1.424131 0
M  V30 8 C 3.409035 2.557110 1.728602 0
M  V30 9 C 3.859281 3.482343 0.798204 0
M  V30 10 C 4.070114 2.992953 -0.457307 0
M  V30 11 N 4.499917 3.625626 -1.569388 0
M  V30 12 N 4.570388 2.784542 -2.591706 0
M  V30 13 C 4.188858 1.544452 -2.207677 0
M  V30 14 C 3.873831 1.685996 -0.854702 0
M  V30 15 C 3.421877 0.797860 0.115364 0
M  V30 16 C 0.990574 -1.338360 4.201553 0
M  V30 17 C 0.516496 -2.072343 2.968954 0
M  V30 18 C 0.868613 -3.407701 3.038608 0
M  V30 19 C 0.501698 -4.250974 2.006040 0
M  V30 20 C -0.199871 -3.718256 0.952898 0
M  V30 21 F -0.560099 -4.513769 -0.051078 0
M  V30 22 C -0.565559 -2.399289 0.851542 0
M  V30 23 C -1.306415 -1.716733 -0.194141 0
M  V30 24 O -1.530733 -0.465260 -0.162071 0
M  V30 25 N -1.880171 -2.267299 -1.362907 0
M  V30 26 C -2.621925 -1.603805 -2.409881 0
M  V30 27 C -3.878741 -0.959541 -1.884193 0
M  V30 28 C -4.647483 -0.281102 -2.959253 0
M  V30 29 C -5.385490 -1.056794 -3.818381 0
M  V30 30 C -5.500506 -2.516569 -3.781062 0
M  V30 31 C -6.113070 -0.435524 -4.839409 0
M  V30 32 C -6.114746 0.941097 -5.014401 0
M  V30 33 C -5.344496 1.636873 -4.103417 0
M  V30 34 C -4.608888 1.092360 -3.081657 0
M  V30 35 C -3.818976 1.958135 -2.168306 0
M  V30 36 C -0.184225 -1.589471 1.896236 0
M  V30 37 N 0.496505 -2.084519 5.377184 0
M  V30 38 C 1.193155 -2.894423 6.306363 0
M  V30 39 O 0.566065 -3.552060 7.149492 0
M  V30 40 N 2.601477 -2.838807 6.134614 0
M  V30 41 H 5.089100 -2.721291 5.896126 0
M  V30 42 H 5.105075 -1.036235 5.394914 0
M  V30 43 H 5.157351 -2.421144 4.165820 0
M  V30 44 H 1.703927 0.490632 2.273640 0
M  V30 45 H 3.221050 2.867393 2.736516 0
M  V30 46 H 4.031363 4.526048 1.055669 0
M  V30 47 H 4.775100 4.634834 -1.745368 0
M  V30 48 H 4.119602 0.614847 -2.765113 0
M  V30 49 H 3.248294 -0.254766 -0.144367 0
M  V30 50 H 0.492007 -0.374896 4.208709 0
M  V30 51 H 1.425391 -3.911797 3.840200 0
M  V30 52 H 0.740960 -5.305757 1.990002 0
M  V30 53 H -1.742508 -3.314809 -1.476861 0
M  V30 54 H -1.964853 -0.817884 -2.895449 0
M  V30 55 H -2.831830 -2.320746 -3.230715 0
M  V30 56 H -4.547675 -1.706571 -1.411587 0
M  V30 57 H -3.611098 -0.252268 -1.084532 0
M  V30 58 H -6.600163 -2.778431 -3.790033 0
M  V30 59 H -5.116871 -3.026704 -4.709787 0
M  V30 60 H -5.104839 -2.991868 -2.883907 0
M  V30 61 H -6.724096 -1.000800 -5.560213 0
M  V30 62 H -6.677317 1.410328 -5.802693 0
M  V30 63 H -5.330692 2.720008 -4.222177 0
M  V30 64 H -4.431888 2.269477 -1.279338 0
M  V30 65 H -3.635467 2.927830 -2.707132 0
M  V30 66 H -2.887797 1.497939 -1.824617 0
M  V30 67 H -0.406976 -0.534100 1.953546 0
M  V30 68 H -0.550147 -1.983640 5.528898 0
M  V30 69 H 3.179096 -3.412062 6.790756 0
M  V30 END ATOM
M  V30 BEGIN BOND
M  V30 1 1 1 2
M  V30 2 2 2 3
M  V30 3 1 3 4
M  V30 4 2 4 5
M  V30 5 1 4 6
M  V30 6 1 6 7
M  V30 7 2 7 8
M  V30 8 1 8 9
M  V30 9 2 9 10
M  V30 10 1 10 11
M  V30 11 1 11 12
M  V30 12 2 12 13
M  V30 13 1 13 14
M  V30 14 2 14 15
M  V30 15 1 3 16
M  V30 16 1 16 17
M  V30 17 2 17 18
M  V30 18 1 18 19
M  V30 19 2 19 20
M  V30 20 1 20 21
M  V30 21 1 20 22
M  V30 22 1 22 23
M  V30 23 2 23 24
M  V30 24 1 23 25
M  V30 25 1 25 26
M  V30 26 1 26 27
M  V30 27 1 27 28
M  V30 28 2 28 29
M  V30 29 1 29 30
M  V30 30 1 29 31
M  V30 31 2 31 32
M  V30 32 1 32 33
M  V30 33 2 33 34
M  V30 34 1 34 35
M  V30 35 2 22 36
M  V30 36 1 16 37
M  V30 37 1 37 38
M  V30 38 2 38 39
M  V30 39 1 38 40
M  V30 40 1 40 2
M  V30 41 1 15 7
M  V30 42 1 36 17
M  V30 43 1 14 10
M  V30 44 1 34 28
M  V30 45 1 1 41
M  V30 46 1 1 42
M  V30 47 1 1 43
M  V30 48 1 6 44
M  V30 49 1 8 45
M  V30 50 1 9 46
M  V30 51 1 11 47
M  V30 52 1 13 48
M  V30 53 1 15 49
M  V30 54 1 16 50
M  V30 55 1 18 51
M  V30 56 1 19 52
M  V30 57 1 25 53
M  V30 58 1 26 54
M  V30 59 1 26 55
M  V30 60 1 27 56
M  V30 61 1 27 57
M  V30 62 1 30 58
M  V30 63 1 30 59
M  V30 64 1 30 60
M  V30 65 1 31 61
M  V30 66 1 32 62
M  V30 67 1 33 63
M  V30 68 1 35 64
M  V30 69 1 35 65
M  V30 70 1 35 66
M  V30 71 1 36 67
M  V30 72 1 37 68
M  V30 73 1 40 69
M  V30 END BOND
M  V30 END CTAB
M  END
>  <Dataset>  (35) 
ChEMBL_Kinases

>  <Ligand_Instance>  (35) 
nan

>  <PDB_ID>  (35) 
nan

>  <Standardized_SMILES>  (35) 
CC1=C(C(=O)Nc2ccc3[nH]ncc3c2)C(c2ccc(F)c(C(=O)NCCc3c(C)cccc3C)c2)NC(=O)N1

>  <Name>  (35) 
nan

>  <Pocket>  (35) 
nan

>  <ATP_Site>  (35) 
nan

>  <Peripheral>  (35) 
nan

>  <Num_H_Atoms_ProtBoundConf>  (35) 
nan

>  <Num_Resolved_Atoms>  (35) 
nan

>  <Num_Not_Resolved_Atoms>  (35) 
nan

$$$$
CHEMBL4088026
     RDKit          3D

  0  0  0  0  0  0  0  0  0  0999 V3000
M  V30 BEGIN CTAB
M  V30 COUNTS 73 77 0 0 0
M  V30 BEGIN ATOM
M  V30 1 C 1.274201 -2.201448 1.641471 0
M  V30 2 N 1.925315 -3.382452 1.159551 0
M  V30 3 C 3.262943 -3.483700 1.232531 0
M  V30 4 C 4.445588 -2.709019 1.675194 0
M  V30 5 N 5.132277 -1.974467 0.677312 0
M  V30 6 C 4.982344 -0.866953 -0.166737 0
M  V30 7 C 5.987047 -0.478642 -1.071736 0
M  V30 8 C 5.793245 0.626170 -1.859352 0
M  V30 9 C 4.648608 1.384563 -1.807218 0
M  V30 10 C 3.629255 1.057485 -0.944349 0
M  V30 11 C 2.410042 1.835796 -0.854296 0
M  V30 12 O 1.468820 1.465380 -0.113086 0
M  V30 13 N 2.234228 3.037156 -1.591244 0
M  V30 14 C 1.069412 3.875758 -1.573914 0
M  V30 15 C -0.171970 3.232164 -2.032508 0
M  V30 16 C -0.216359 3.069945 -3.392312 0
M  V30 17 F 0.765905 3.450887 -4.246475 0
M  V30 18 C -1.297973 2.487351 -4.048183 0
M  V30 19 C -2.358055 2.063450 -3.273688 0
M  V30 20 C -2.336530 2.217905 -1.883125 0
M  V30 21 C -1.246594 2.799104 -1.280871 0
M  V30 22 F -1.132548 3.001339 0.061782 0
M  V30 23 C 3.841003 -0.056059 -0.160448 0
M  V30 24 N 3.592501 -4.705038 0.715929 0
M  V30 25 N 2.474673 -5.303784 0.349316 0
M  V30 26 C 1.412835 -4.521882 0.605192 0
M  V30 27 C -0.040461 -4.569786 0.462328 0
M  V30 28 C -0.784741 -5.437618 1.267169 0
M  V30 29 C -2.156452 -5.432337 1.104313 0
M  V30 30 N -2.785309 -4.639029 0.218258 0
M  V30 31 C -2.054772 -3.792664 -0.566619 0
M  V30 32 N -2.655291 -2.906328 -1.524354 0
M  V30 33 C -2.677957 -1.662766 -0.789743 0
M  V30 34 C -3.429160 -1.705805 0.497570 0
M  V30 35 C -3.383385 -0.341670 1.194155 0
M  V30 36 C -4.116307 -0.359420 2.471722 0
M  V30 37 C -5.456462 -0.036889 2.401454 0
M  V30 38 C -6.142243 -0.051301 3.612553 0
M  V30 39 C -5.521612 -0.368086 4.808015 0
M  V30 40 C -4.169557 -0.685387 4.823583 0
M  V30 41 C -3.467722 -0.679253 3.643179 0
M  V30 42 C -0.705570 -3.764691 -0.440652 0
M  V30 43 H 1.892321 -1.595658 2.296582 0
M  V30 44 H 0.814397 -1.633362 0.802574 0
M  V30 45 H 0.396343 -2.565663 2.257273 0
M  V30 46 H 4.034961 -1.918968 2.396639 0
M  V30 47 H 5.121025 -3.290102 2.319078 0
M  V30 48 H 6.082894 -2.450538 0.534961 0
M  V30 49 H 6.894875 -1.043253 -1.143399 0
M  V30 50 H 6.598862 0.878849 -2.535643 0
M  V30 51 H 4.613989 2.220076 -2.467571 0
M  V30 52 H 2.999514 3.373448 -2.215583 0
M  V30 53 H 1.184885 4.801768 -2.149808 0
M  V30 54 H 0.866457 4.168181 -0.497474 0
M  V30 55 H -1.348534 2.351955 -5.128498 0
M  V30 56 H -3.235991 1.598949 -3.737295 0
M  V30 57 H -3.154416 1.895379 -1.263484 0
M  V30 58 H 3.040852 -0.288867 0.504263 0
M  V30 59 H -0.276029 -6.073626 1.978534 0
M  V30 60 H -2.769243 -6.106074 1.724252 0
M  V30 61 H -2.970040 -3.170856 -2.489442 0
M  V30 62 H -3.088348 -0.857438 -1.467953 0
M  V30 63 H -1.638546 -1.291218 -0.547382 0
M  V30 64 H -4.523394 -1.926178 0.342112 0
M  V30 65 H -2.948675 -2.444893 1.167647 0
M  V30 66 H -2.302157 -0.134021 1.447069 0
M  V30 67 H -3.740903 0.470764 0.565837 0
M  V30 68 H -5.942671 0.212645 1.460332 0
M  V30 69 H -7.202251 0.195155 3.621472 0
M  V30 70 H -6.048519 -0.382306 5.761762 0
M  V30 71 H -3.682671 -0.932740 5.757677 0
M  V30 72 H -2.405892 -0.933783 3.694854 0
M  V30 73 H -0.065577 -3.121231 -1.027926 0
M  V30 END ATOM
M  V30 BEGIN BOND
M  V30 1 1 1 2
M  V30 2 1 2 3
M  V30 3 1 3 4
M  V30 4 1 4 5
M  V30 5 1 5 6
M  V30 6 2 6 7
M  V30 7 1 7 8
M  V30 8 2 8 9
M  V30 9 1 9 10
M  V30 10 1 10 11
M  V30 11 2 11 12
M  V30 12 1 11 13
M  V30 13 1 13 14
M  V30 14 1 14 15
M  V30 15 2 15 16
M  V30 16 1 16 17
M  V30 17 1 16 18
M  V30 18 2 18 19
M  V30 19 1 19 20
M  V30 20 2 20 21
M  V30 21 1 21 22
M  V30 22 2 10 23
M  V30 23 2 3 24
M  V30 24 1 24 25
M  V30 25 2 25 26
M  V30 26 1 26 27
M  V30 27 2 27 28
M  V30 28 1 28 29
M  V30 29 2 29 30
M  V30 30 1 30 31
M  V30 31 1 31 32
M  V30 32 1 32 33
M  V30 33 1 33 34
M  V30 34 1 34 35
M  V30 35 1 35 36
M  V30 36 2 36 37
M  V30 37 1 37 38
M  V30 38 2 38 39
M  V30 39 1 39 40
M  V30 40 2 40 41
M  V30 41 2 31 42
M  V30 42 1 26 2
M  V30 43 1 42 27
M  V30 44 1 23 6
M  V30 45 1 41 36
M  V30 46 1 21 15
M  V30 47 1 1 43
M  V30 48 1 1 44
M  V30 49 1 1 45
M  V30 50 1 4 46
M  V30 51 1 4 47
M  V30 52 1 5 48
M  V30 53 1 7 49
M  V30 54 1 8 50
M  V30 55 1 9 51
M  V30 56 1 13 52
M  V30 57 1 14 53
M  V30 58 1 14 54
M  V30 59 1 18 55
M  V30 60 1 19 56
M  V30 61 1 20 57
M  V30 62 1 23 58
M  V30 63 1 28 59
M  V30 64 1 29 60
M  V30 65 1 32 61
M  V30 66 1 33 62
M  V30 67 1 33 63
M  V30 68 1 34 64
M  V30 69 1 34 65
M  V30 70 1 35 66
M  V30 71 1 35 67
M  V30 72 1 37 68
M  V30 73 1 38 69
M  V30 74 1 39 70
M  V30 75 1 40 71
M  V30 76 1 41 72
M  V30 77 1 42 73
M  V30 END BOND
M  V30 END CTAB
M  END
>  <Dataset>  (36) 
ChEMBL_Kinases

>  <Ligand_Instance>  (36) 
nan

>  <PDB_ID>  (36) 
nan

>  <Standardized_SMILES>  (36) 
Cn1c(CNc2cccc(C(=O)NCc3c(F)cccc3F)c2)nnc1-c1ccnc(NCCCc2ccccc2)c1

>  <Name>  (36) 
nan

>  <Pocket>  (36) 
nan

>  <ATP_Site>  (36) 
nan

>  <Peripheral>  (36) 
nan

>  <Num_H_Atoms_ProtBoundConf>  (36) 
nan

>  <Num_Resolved_Atoms>  (36) 
nan

>  <Num_Not_Resolved_Atoms>  (36) 
nan

$$$$
CHEMBL343227
     RDKit          3D

  0  0  0  0  0  0  0  0  0  0999 V3000
M  V30 BEGIN CTAB
M  V30 COUNTS 72 76 0 0 0
M  V30 BEGIN ATOM
M  V30 1 C 4.166351 -0.631135 4.653679 0
M  V30 2 C 3.107300 0.135728 3.955370 0
M  V30 3 C 1.756817 -0.054268 4.154446 0
M  V30 4 C 0.829740 0.707591 3.458669 0
M  V30 5 C 1.247143 1.678931 2.545738 0
M  V30 6 N 0.277809 2.464636 1.828425 0
M  V30 7 N -0.671349 3.199632 2.389084 0
M  V30 8 C -1.403675 3.805037 1.412524 0
M  V30 9 C -2.572646 4.726969 1.489859 0
M  V30 10 C -2.921445 4.963395 2.949938 0
M  V30 11 C -3.789728 4.069263 0.858336 0
M  V30 12 C -2.291412 6.074707 0.879000 0
M  V30 13 C -0.891390 3.433856 0.171525 0
M  V30 14 C 0.162084 2.592860 0.476841 0
M  V30 15 N 1.071886 1.897635 -0.401465 0
M  V30 16 C 0.730637 0.594543 -0.842487 0
M  V30 17 O -0.368604 0.092741 -0.442334 0
M  V30 18 N 1.508890 -0.228769 -1.706439 0
M  V30 19 C 0.928177 -1.505854 -1.993626 0
M  V30 20 C 1.259650 -2.522722 -1.137557 0
M  V30 21 C 0.686605 -3.730271 -1.441795 0
M  V30 22 C -0.157439 -4.035084 -2.473171 0
M  V30 23 O -0.797360 -5.118316 -2.921740 0
M  V30 24 C -0.996474 -6.417721 -2.657466 0
M  V30 25 C -1.694766 -6.846153 -1.408930 0
M  V30 26 C -1.092684 -6.449438 -0.135656 0
M  V30 27 C -0.110608 -7.122900 0.554744 0
M  V30 28 C 0.366304 -6.668334 1.764979 0
M  V30 29 C -0.108843 -5.516421 2.355699 0
M  V30 30 N -1.065557 -4.855541 1.688486 0
M  V30 31 C -1.539338 -5.288479 0.507072 0
M  V30 32 C -0.444652 -2.940398 -3.300173 0
M  V30 33 C -1.269512 -2.955916 -4.421196 0
M  V30 34 C -1.537937 -1.877942 -5.215877 0
M  V30 35 C -0.968767 -0.682112 -4.912762 0
M  V30 36 C -0.144620 -0.561056 -3.834612 0
M  V30 37 C 0.089792 -1.663699 -3.076613 0
M  V30 38 C 2.604080 1.853197 2.361232 0
M  V30 39 C 3.531356 1.088687 3.059476 0
M  V30 40 H 3.789992 -1.211032 5.520382 0
M  V30 41 H 4.949489 0.094940 4.956393 0
M  V30 42 H 4.664314 -1.358713 3.951811 0
M  V30 43 H 1.472605 -0.813320 4.867175 0
M  V30 44 H -0.238923 0.534834 3.637113 0
M  V30 45 H -2.576933 4.089525 3.518221 0
M  V30 46 H -4.011817 5.066379 3.100612 0
M  V30 47 H -2.364588 5.861675 3.332584 0
M  V30 48 H -4.709124 4.377997 1.379040 0
M  V30 49 H -3.681226 2.969524 0.965493 0
M  V30 50 H -3.913581 4.327607 -0.214105 0
M  V30 51 H -1.941059 6.781609 1.659454 0
M  V30 52 H -3.262046 6.479981 0.503463 0
M  V30 53 H -1.600416 6.020108 0.017452 0
M  V30 54 H -1.158538 3.672422 -0.836607 0
M  V30 55 H 1.996319 2.201513 -0.796179 0
M  V30 56 H 2.409708 0.166502 -2.042205 0
M  V30 57 H 1.898152 -2.459096 -0.290369 0
M  V30 58 H 0.913202 -4.582713 -0.820142 0
M  V30 59 H -0.012587 -7.001145 -2.774430 0
M  V30 60 H -1.650479 -6.842329 -3.501920 0
M  V30 61 H -1.802182 -7.972044 -1.369273 0
M  V30 62 H -2.757219 -6.500576 -1.472360 0
M  V30 63 H 0.270515 -8.027857 0.102197 0
M  V30 64 H 1.141494 -7.215952 2.291997 0
M  V30 65 H 0.221027 -5.110375 3.295374 0
M  V30 66 H -2.318846 -4.654269 0.070616 0
M  V30 67 H -1.727222 -3.913518 -4.666536 0
M  V30 68 H -2.197103 -2.007829 -6.065092 0
M  V30 69 H -1.198171 0.151036 -5.556954 0
M  V30 70 H 0.284802 0.389274 -3.625025 0
M  V30 71 H 2.903800 2.599119 1.660512 0
M  V30 72 H 4.603093 1.261711 2.880721 0
M  V30 END ATOM
M  V30 BEGIN BOND
M  V30 1 1 1 2
M  V30 2 2 2 3
M  V30 3 1 3 4
M  V30 4 2 4 5
M  V30 5 1 5 6
M  V30 6 1 6 7
M  V30 7 2 7 8
M  V30 8 1 8 9
M  V30 9 1 9 10
M  V30 10 1 9 11
M  V30 11 1 9 12
M  V30 12 1 8 13
M  V30 13 2 13 14
M  V30 14 1 14 15
M  V30 15 1 15 16
M  V30 16 2 16 17
M  V30 17 1 16 18
M  V30 18 1 18 19
M  V30 19 2 19 20
M  V30 20 1 20 21
M  V30 21 2 21 22
M  V30 22 1 22 23
M  V30 23 1 23 24
M  V30 24 1 24 25
M  V30 25 1 25 26
M  V30 26 2 26 27
M  V30 27 1 27 28
M  V30 28 2 28 29
M  V30 29 1 29 30
M  V30 30 2 30 31
M  V30 31 1 22 32
M  V30 32 2 32 33
M  V30 33 1 33 34
M  V30 34 2 34 35
M  V30 35 1 35 36
M  V30 36 2 36 37
M  V30 37 1 5 38
M  V30 38 2 38 39
M  V30 39 1 39 2
M  V30 40 1 14 6
M  V30 41 1 37 19
M  V30 42 1 31 26
M  V30 43 1 37 32
M  V30 44 1 1 40
M  V30 45 1 1 41
M  V30 46 1 1 42
M  V30 47 1 3 43
M  V30 48 1 4 44
M  V30 49 1 10 45
M  V30 50 1 10 46
M  V30 51 1 10 47
M  V30 52 1 11 48
M  V30 53 1 11 49
M  V30 54 1 11 50
M  V30 55 1 12 51
M  V30 56 1 12 52
M  V30 57 1 12 53
M  V30 58 1 13 54
M  V30 59 1 15 55
M  V30 60 1 18 56
M  V30 61 1 20 57
M  V30 62 1 21 58
M  V30 63 1 24 59
M  V30 64 1 24 60
M  V30 65 1 25 61
M  V30 66 1 25 62
M  V30 67 1 27 63
M  V30 68 1 28 64
M  V30 69 1 29 65
M  V30 70 1 31 66
M  V30 71 1 33 67
M  V30 72 1 34 68
M  V30 73 1 35 69
M  V30 74 1 36 70
M  V30 75 1 38 71
M  V30 76 1 39 72
M  V30 END BOND
M  V30 END CTAB
M  END
>  <Dataset>  (37) 
ChEMBL_Kinases

>  <Ligand_Instance>  (37) 
nan

>  <PDB_ID>  (37) 
nan

>  <Standardized_SMILES>  (37) 
Cc1ccc(-n2nc(C(C)(C)C)cc2NC(=O)Nc2ccc(OCCc3cccnc3)c3ccccc23)cc1

>  <Name>  (37) 
nan

>  <Pocket>  (37) 
nan

>  <ATP_Site>  (37) 
nan

>  <Peripheral>  (37) 
nan

>  <Num_H_Atoms_ProtBoundConf>  (37) 
nan

>  <Num_Resolved_Atoms>  (37) 
nan

>  <Num_Not_Resolved_Atoms>  (37) 
nan

$$$$
CHEMBL4087456
     RDKit          3D

  0  0  0  0  0  0  0  0  0  0999 V3000
M  V30 BEGIN CTAB
M  V30 COUNTS 29 31 0 0 0
M  V30 BEGIN ATOM
M  V30 1 N 0.598315 -2.499331 4.923630 0
M  V30 2 C 0.405728 -3.018724 3.612474 0
M  V30 3 N 0.273403 -4.347295 3.402732 0
M  V30 4 C 0.089722 -4.850454 2.157831 0
M  V30 5 C 0.049058 -3.906582 1.131707 0
M  V30 6 C 0.180711 -2.545537 1.312457 0
M  V30 7 C 0.124034 -1.635625 0.170672 0
M  V30 8 C -0.055919 -1.985035 -1.151004 0
M  V30 9 N -0.046977 -0.852724 -1.878466 0
M  V30 10 C 0.134053 0.211069 -1.055564 0
M  V30 11 C 0.204244 1.549215 -1.395065 0
M  V30 12 C 0.397807 2.475181 -0.364857 0
M  V30 13 C 0.473673 3.912353 -0.725280 0
M  V30 14 F 1.407854 4.532430 0.063382 0
M  V30 15 F -0.788142 4.454113 -0.585882 0
M  V30 16 F 0.916349 4.013496 -2.049918 0
M  V30 17 C 0.509953 2.013276 0.942268 0
M  V30 18 C 0.437770 0.666805 1.270306 0
M  V30 19 C 0.244787 -0.263967 0.248580 0
M  V30 20 N 0.359057 -2.140682 2.580739 0
M  V30 21 H 1.336917 -2.047674 5.506852 0
M  V30 22 H -0.356925 -2.672731 5.354697 0
M  V30 23 H -0.022024 -5.911167 1.937119 0
M  V30 24 H -0.098117 -4.267093 0.104097 0
M  V30 25 H -0.184171 -3.004114 -1.545190 0
M  V30 26 H -0.164196 -0.833520 -2.914885 0
M  V30 27 H 0.110712 1.858986 -2.431602 0
M  V30 28 H 0.660848 2.734409 1.745851 0
M  V30 29 H 0.524370 0.308524 2.281012 0
M  V30 END ATOM
M  V30 BEGIN BOND
M  V30 1 1 1 2
M  V30 2 2 2 3
M  V30 3 1 3 4
M  V30 4 2 4 5
M  V30 5 1 5 6
M  V30 6 1 6 7
M  V30 7 2 7 8
M  V30 8 1 8 9
M  V30 9 1 9 10
M  V30 10 2 10 11
M  V30 11 1 11 12
M  V30 12 1 12 13
M  V30 13 1 13 14
M  V30 14 1 13 15
M  V30 15 1 13 16
M  V30 16 2 12 17
M  V30 17 1 17 18
M  V30 18 2 18 19
M  V30 19 2 6 20
M  V30 20 1 20 2
M  V30 21 1 19 7
M  V30 22 1 19 10
M  V30 23 1 1 21
M  V30 24 1 1 22
M  V30 25 1 4 23
M  V30 26 1 5 24
M  V30 27 1 8 25
M  V30 28 1 9 26
M  V30 29 1 11 27
M  V30 30 1 17 28
M  V30 31 1 18 29
M  V30 END BOND
M  V30 END CTAB
M  END
>  <Dataset>  (38) 
ChEMBL_Kinases

>  <Ligand_Instance>  (38) 
nan

>  <PDB_ID>  (38) 
nan

>  <Standardized_SMILES>  (38) 
Nc1nccc(-c2c[nH]c3cc(C(F)(F)F)ccc23)n1

>  <Name>  (38) 
nan

>  <Pocket>  (38) 
nan

>  <ATP_Site>  (38) 
nan

>  <Peripheral>  (38) 
nan

>  <Num_H_Atoms_ProtBoundConf>  (38) 
nan

>  <Num_Resolved_Atoms>  (38) 
nan

>  <Num_Not_Resolved_Atoms>  (38) 
nan

$$$$
CHEMBL3437678
     RDKit          3D

  0  0  0  0  0  0  0  0  0  0999 V3000
M  V30 BEGIN CTAB
M  V30 COUNTS 33 35 0 0 0
M  V30 BEGIN ATOM
M  V30 1 C 1.643540 -2.893046 4.346868 0
M  V30 2 N 1.502162 -2.992241 2.916650 0
M  V30 3 C 1.553789 -4.176892 2.135924 0
M  V30 4 N 1.729496 -5.416748 2.520618 0
M  V30 5 N 1.362819 -3.851861 0.752392 0
M  V30 6 C 1.188060 -2.444261 0.654044 0
M  V30 7 O 0.997073 -1.820869 -0.419232 0
M  V30 8 C 1.277015 -1.912143 2.018558 0
M  V30 9 C 1.189258 -0.624974 2.262508 0
M  V30 10 C 0.952498 0.478080 1.342057 0
M  V30 11 C 1.502164 1.728926 1.044582 0
M  V30 12 C 0.691221 2.187389 0.031630 0
M  V30 13 C -0.286247 1.271746 -0.265933 0
M  V30 14 C -1.326521 1.405431 -1.277741 0
M  V30 15 C -2.189607 0.301934 -1.357856 0
M  V30 16 C -3.255889 0.277910 -2.266855 0
M  V30 17 C -3.365552 1.430798 -3.058535 0
M  V30 18 F -4.427291 1.352663 -3.930158 0
M  V30 19 C -2.533145 2.521284 -2.997990 0
M  V30 20 C -1.504385 2.491020 -2.089864 0
M  V30 21 O -0.072513 0.292126 0.540542 0
M  V30 22 H 1.981287 -3.874651 4.735026 0
M  V30 23 H 0.648434 -2.676221 4.796922 0
M  V30 24 H 2.415598 -2.149985 4.658338 0
M  V30 25 H 1.860875 -5.663693 3.544945 0
M  V30 26 H 1.347740 -4.503701 -0.088489 0
M  V30 27 H 1.315303 -0.381206 3.331480 0
M  V30 28 H 2.353463 2.025473 1.620682 0
M  V30 29 H 0.891697 3.153884 -0.400697 0
M  V30 30 H -2.103981 -0.605400 -0.737679 0
M  V30 31 H -3.922576 -0.567055 -2.331453 0
M  V30 32 H -2.683291 3.363414 -3.637056 0
M  V30 33 H -0.791513 3.290800 -1.959121 0
M  V30 END ATOM
M  V30 BEGIN BOND
M  V30 1 1 1 2
M  V30 2 1 2 3
M  V30 3 2 3 4 CFG=2
M  V30 4 1 3 5
M  V30 5 1 5 6
M  V30 6 2 6 7
M  V30 7 1 6 8
M  V30 8 2 8 9
M  V30 9 1 9 10
M  V30 10 2 10 11
M  V30 11 1 11 12
M  V30 12 2 12 13
M  V30 13 1 13 14
M  V30 14 2 14 15
M  V30 15 1 15 16
M  V30 16 2 16 17
M  V30 17 1 17 18
M  V30 18 1 17 19
M  V30 19 2 19 20
M  V30 20 1 13 21
M  V30 21 1 8 2
M  V30 22 1 21 10
M  V30 23 1 20 14
M  V30 24 1 1 22
M  V30 25 1 1 23
M  V30 26 1 1 24
M  V30 27 1 4 25
M  V30 28 1 5 26
M  V30 29 1 9 27
M  V30 30 1 11 28
M  V30 31 1 12 29
M  V30 32 1 15 30
M  V30 33 1 16 31
M  V30 34 1 19 32
M  V30 35 1 20 33
M  V30 END BOND
M  V30 END CTAB
M  END
>  <Dataset>  (39) 
ChEMBL_Kinases

>  <Ligand_Instance>  (39) 
nan

>  <PDB_ID>  (39) 
nan

>  <Standardized_SMILES>  (39) 
CN1C(=N)NC(=O)/C1=C\c1ccc(-c2ccc(F)cc2)o1

>  <Name>  (39) 
nan

>  <Pocket>  (39) 
nan

>  <ATP_Site>  (39) 
nan

>  <Peripheral>  (39) 
nan

>  <Num_H_Atoms_ProtBoundConf>  (39) 
nan

>  <Num_Resolved_Atoms>  (39) 
nan

>  <Num_Not_Resolved_Atoms>  (39) 
nan

$$$$
CHEMBL3809020
     RDKit          3D

  0  0  0  0  0  0  0  0  0  0999 V3000
M  V30 BEGIN CTAB
M  V30 COUNTS 68 72 0 0 0
M  V30 BEGIN ATOM
M  V30 1 C 0.124889 -3.222277 6.451602 0
M  V30 2 O 0.656485 -2.250027 5.609665 0
M  V30 3 C 1.668209 -2.455282 4.701045 0
M  V30 4 C 2.352317 -3.617608 4.432235 0
M  V30 5 C 3.359036 -3.765484 3.508933 0
M  V30 6 C 3.721321 -2.654271 2.785048 0
M  V30 7 C 3.094757 -1.432735 2.978765 0
M  V30 8 O 3.473450 -0.335618 2.245053 0
M  V30 9 C 4.500153 -0.456486 1.295865 0
M  V30 10 C 2.076011 -1.356330 3.936374 0
M  V30 11 C 1.390705 -0.036070 4.173012 0
M  V30 12 N 0.049249 -0.025812 3.650228 0
M  V30 13 C -0.436004 -0.242873 2.345037 0
M  V30 14 O 0.510994 -0.491717 1.535192 0
M  V30 15 C -1.807541 -0.212770 1.871520 0
M  V30 16 C -2.029912 -0.620044 0.580507 0
M  V30 17 C -3.278182 -0.650340 0.012068 0
M  V30 18 C -3.606629 -1.072504 -1.399943 0
M  V30 19 N -4.617907 -2.130379 -1.207211 0
M  V30 20 C -4.464220 -3.498689 -1.633359 0
M  V30 21 O -5.364367 -4.320447 -1.384339 0
M  V30 22 N -3.245691 -3.744967 -2.316322 0
M  V30 23 C -2.222031 -2.783979 -2.586247 0
M  V30 24 C -1.000941 -3.206405 -3.327262 0
M  V30 25 C -2.435828 -1.536497 -2.141280 0
M  V30 26 C -1.406215 -0.558563 -2.464715 0
M  V30 27 O -0.348402 -0.840342 -3.119349 0
M  V30 28 N -1.369659 0.824573 -2.142315 0
M  V30 29 C -0.278121 1.644437 -2.539283 0
M  V30 30 C -0.499460 2.209697 -3.779830 0
M  V30 31 C 0.461797 3.050173 -4.348445 0
M  V30 32 C 1.640264 3.343019 -3.711762 0
M  V30 33 N 2.703273 4.083266 -4.001023 0
M  V30 34 N 3.557486 3.994186 -2.995753 0
M  V30 35 C 3.051380 3.187123 -2.035412 0
M  V30 36 C 1.829902 2.756364 -2.463745 0
M  V30 37 C 0.898116 1.922181 -1.877887 0
M  V30 38 C -4.408089 -0.261821 0.728611 0
M  V30 39 C -4.206174 0.153803 2.036927 0
M  V30 40 C -2.938783 0.164791 2.554954 0
M  V30 41 F -2.784872 0.582170 3.825339 0
M  V30 42 H 0.771289 -4.101818 6.467757 0
M  V30 43 H -0.072695 -2.830798 7.489089 0
M  V30 44 H -0.913985 -3.435038 6.068010 0
M  V30 45 H 2.075715 -4.489232 4.993525 0
M  V30 46 H 3.842961 -4.705442 3.356619 0
M  V30 47 H 4.511219 -2.752545 2.054806 0
M  V30 48 H 4.607941 0.547266 0.797564 0
M  V30 49 H 4.277609 -1.194340 0.507497 0
M  V30 50 H 5.471062 -0.676937 1.779336 0
M  V30 51 H 1.405272 0.235015 5.228574 0
M  V30 52 H 1.974244 0.756103 3.649140 0
M  V30 53 H -0.694449 0.175449 4.373029 0
M  V30 54 H -1.208823 -0.945091 -0.042000 0
M  V30 55 H -4.149679 -0.219325 -1.848594 0
M  V30 56 H -5.501062 -1.884129 -0.739954 0
M  V30 57 H -3.101342 -4.732015 -2.644082 0
M  V30 58 H -0.071169 -3.103018 -2.714650 0
M  V30 59 H -1.098992 -4.295402 -3.526784 0
M  V30 60 H -0.924084 -2.727046 -4.324586 0
M  V30 61 H -2.207095 1.197651 -1.598477 0
M  V30 62 H -1.385016 2.080024 -4.421203 0
M  V30 63 H 0.310013 3.510822 -5.333913 0
M  V30 64 H 2.872770 4.646970 -4.854819 0
M  V30 65 H 3.516966 2.930934 -1.112719 0
M  V30 66 H 0.987848 1.449612 -0.933734 0
M  V30 67 H -5.439198 -0.232005 0.412915 0
M  V30 68 H -5.045312 0.478024 2.669922 0
M  V30 END ATOM
M  V30 BEGIN BOND
M  V30 1 1 1 2
M  V30 2 1 2 3
M  V30 3 2 3 4
M  V30 4 1 4 5
M  V30 5 2 5 6
M  V30 6 1 6 7
M  V30 7 1 7 8
M  V30 8 1 8 9
M  V30 9 2 7 10
M  V30 10 1 10 11
M  V30 11 1 11 12
M  V30 12 1 12 13
M  V30 13 2 13 14
M  V30 14 1 13 15
M  V30 15 2 15 16
M  V30 16 1 16 17
M  V30 17 1 17 18
M  V30 18 1 18 19
M  V30 19 1 19 20
M  V30 20 2 20 21
M  V30 21 1 20 22
M  V30 22 1 22 23
M  V30 23 1 23 24
M  V30 24 2 23 25
M  V30 25 1 25 26
M  V30 26 2 26 27
M  V30 27 1 26 28
M  V30 28 1 28 29
M  V30 29 2 29 30
M  V30 30 1 30 31
M  V30 31 2 31 32
M  V30 32 1 32 33
M  V30 33 1 33 34
M  V30 34 2 34 35
M  V30 35 1 35 36
M  V30 36 2 36 37
M  V30 37 2 17 38
M  V30 38 1 38 39
M  V30 39 2 39 40
M  V30 40 1 40 41
M  V30 41 1 10 3
M  V30 42 1 40 15
M  V30 43 1 25 18
M  V30 44 1 37 29
M  V30 45 1 36 32
M  V30 46 1 1 42
M  V30 47 1 1 43
M  V30 48 1 1 44
M  V30 49 1 4 45
M  V30 50 1 5 46
M  V30 51 1 6 47
M  V30 52 1 9 48
M  V30 53 1 9 49
M  V30 54 1 9 50
M  V30 55 1 11 51
M  V30 56 1 11 52
M  V30 57 1 12 53
M  V30 58 1 16 54
M  V30 59 1 18 55
M  V30 60 1 19 56
M  V30 61 1 22 57
M  V30 62 1 24 58
M  V30 63 1 24 59
M  V30 64 1 24 60
M  V30 65 1 28 61
M  V30 66 1 30 62
M  V30 67 1 31 63
M  V30 68 1 33 64
M  V30 69 1 35 65
M  V30 70 1 37 66
M  V30 71 1 38 67
M  V30 72 1 39 68
M  V30 END BOND
M  V30 END CTAB
M  END
>  <Dataset>  (40) 
ChEMBL_Kinases

>  <Ligand_Instance>  (40) 
nan

>  <PDB_ID>  (40) 
nan

>  <Standardized_SMILES>  (40) 
COc1cccc(OC)c1CNC(=O)c1cc(C2NC(=O)NC(C)=C2C(=O)Nc2ccc3[nH]ncc3c2)ccc1F

>  <Name>  (40) 
nan

>  <Pocket>  (40) 
nan

>  <ATP_Site>  (40) 
nan

>  <Peripheral>  (40) 
nan

>  <Num_H_Atoms_ProtBoundConf>  (40) 
nan

>  <Num_Resolved_Atoms>  (40) 
nan

>  <Num_Not_Resolved_Atoms>  (40) 
nan

$$$$
CHEMBL345800
     RDKit          3D

  0  0  0  0  0  0  0  0  0  0999 V3000
M  V30 BEGIN CTAB
M  V30 COUNTS 37 39 0 0 0
M  V30 BEGIN ATOM
M  V30 1 C 0.577823 -4.601610 2.339764 0
M  V30 2 O 0.349263 -3.630613 1.350891 0
M  V30 3 C 1.350005 -2.819265 0.847749 0
M  V30 4 C 2.674452 -2.845758 1.232367 0
M  V30 5 C 3.610085 -1.997687 0.678434 0
M  V30 6 C 3.225652 -1.094529 -0.286207 0
M  V30 7 C 1.905533 -1.062608 -0.675091 0
M  V30 8 C 0.942124 -1.914262 -0.125621 0
M  V30 9 C -0.438788 -1.773395 -0.640985 0
M  V30 10 C -1.091199 -0.667753 -0.971291 0
M  V30 11 N -0.734818 0.707754 -0.956818 0
M  V30 12 C -0.538981 1.591867 0.137754 0
M  V30 13 C -0.211656 2.910069 -0.082479 0
M  V30 14 C -0.015894 3.788259 0.954433 0
M  V30 15 Cl 0.395796 5.440310 0.523279 0
M  V30 16 C -0.152598 3.333376 2.255534 0
M  V30 17 O 0.065700 4.299484 3.230636 0
M  V30 18 C -0.479174 2.021087 2.486171 0
M  V30 19 Cl -0.623121 1.561673 4.169617 0
M  V30 20 C -0.672621 1.148891 1.424545 0
M  V30 21 C -2.428541 -1.014836 -1.437611 0
M  V30 22 O -3.373060 -0.277134 -1.845064 0
M  V30 23 N -2.565910 -2.444021 -1.373671 0
M  V30 24 C -1.327031 -2.914652 -0.878284 0
M  V30 25 O -1.161163 -4.156409 -0.718899 0
M  V30 26 H -0.325953 -4.738190 2.984427 0
M  V30 27 H 0.759465 -5.573842 1.829109 0
M  V30 28 H 1.427913 -4.394996 3.005930 0
M  V30 29 H 2.969602 -3.556814 1.989942 0
M  V30 30 H 4.632467 -2.068494 1.023591 0
M  V30 31 H 3.953247 -0.404656 -0.745017 0
M  V30 32 H 1.656148 -0.342359 -1.429248 0
M  V30 33 H -0.607978 1.079039 -1.942399 0
M  V30 34 H -0.110978 3.238503 -1.125956 0
M  V30 35 H 0.315727 4.048713 4.172291 0
M  V30 36 H -0.922546 0.153930 1.690535 0
M  V30 37 H -3.431342 -2.985498 -1.649388 0
M  V30 END ATOM
M  V30 BEGIN BOND
M  V30 1 1 1 2
M  V30 2 1 2 3
M  V30 3 2 3 4
M  V30 4 1 4 5
M  V30 5 2 5 6
M  V30 6 1 6 7
M  V30 7 2 7 8
M  V30 8 1 8 9
M  V30 9 2 9 10
M  V30 10 1 10 11
M  V30 11 1 11 12
M  V30 12 2 12 13
M  V30 13 1 13 14
M  V30 14 1 14 15
M  V30 15 2 14 16
M  V30 16 1 16 17
M  V30 17 1 16 18
M  V30 18 1 18 19
M  V30 19 2 18 20
M  V30 20 1 10 21
M  V30 21 2 21 22
M  V30 22 1 21 23
M  V30 23 1 23 24
M  V30 24 2 24 25
M  V30 25 1 8 3
M  V30 26 1 24 9
M  V30 27 1 20 12
M  V30 28 1 1 26
M  V30 29 1 1 27
M  V30 30 1 1 28
M  V30 31 1 4 29
M  V30 32 1 5 30
M  V30 33 1 6 31
M  V30 34 1 7 32
M  V30 35 1 11 33
M  V30 36 1 13 34
M  V30 37 1 17 35
M  V30 38 1 20 36
M  V30 39 1 23 37
M  V30 END BOND
M  V30 END CTAB
M  END
>  <Dataset>  (41) 
ChEMBL_Kinases

>  <Ligand_Instance>  (41) 
nan

>  <PDB_ID>  (41) 
nan

>  <Standardized_SMILES>  (41) 
COc1ccccc1C1=C(Nc2cc(Cl)c(O)c(Cl)c2)C(=O)NC1=O

>  <Name>  (41) 
nan

>  <Pocket>  (41) 
nan

>  <ATP_Site>  (41) 
nan

>  <Peripheral>  (41) 
nan

>  <Num_H_Atoms_ProtBoundConf>  (41) 
nan

>  <Num_Resolved_Atoms>  (41) 
nan

>  <Num_Not_Resolved_Atoms>  (41) 
nan

$$$$
CHEMBL346829
     RDKit          3D

  0  0  0  0  0  0  0  0  0  0999 V3000
M  V30 BEGIN CTAB
M  V30 COUNTS 36 38 0 0 0
M  V30 BEGIN ATOM
M  V30 1 C 0.484446 -5.894074 1.177514 0
M  V30 2 O 1.757157 -5.252583 1.352229 0
M  V30 3 C 1.865536 -3.874391 1.390799 0
M  V30 4 C 3.081054 -3.246008 1.542495 0
M  V30 5 C 3.136226 -1.855944 1.578721 0
M  V30 6 C 1.959481 -1.116118 1.458661 0
M  V30 7 C 0.719031 -1.728702 1.304062 0
M  V30 8 C -0.538417 -1.027150 1.131876 0
M  V30 9 C -1.010963 -0.065384 0.379438 0
M  V30 10 N -0.199507 0.600809 -0.611130 0
M  V30 11 C -0.097219 1.995987 -0.864552 0
M  V30 12 C -0.892523 2.570382 -1.844805 0
M  V30 13 C -0.749164 3.951366 -2.042603 0
M  V30 14 C 0.168750 4.659722 -1.253778 0
M  V30 15 C 0.930621 4.047687 -0.300166 0
M  V30 16 Cl 2.101099 4.917362 0.706475 0
M  V30 17 C 0.823156 2.681531 -0.069606 0
M  V30 18 C -2.422706 0.266777 0.641534 0
M  V30 19 O -3.026830 1.168796 0.004864 0
M  V30 20 N -2.777189 -0.639809 1.684793 0
M  V30 21 C -1.653842 -1.443220 2.007747 0
M  V30 22 O -1.829695 -2.306962 2.933827 0
M  V30 23 C 0.707640 -3.116710 1.274250 0
M  V30 24 H -0.269073 -5.583600 1.919760 0
M  V30 25 H 0.582791 -7.006479 1.275130 0
M  V30 26 H 0.108423 -5.722321 0.138884 0
M  V30 27 H 4.004726 -3.791706 1.631703 0
M  V30 28 H 4.104969 -1.353210 1.697455 0
M  V30 29 H 1.969630 -0.056247 1.486325 0
M  V30 30 H 0.394069 0.035885 -1.259827 0
M  V30 31 H -1.573520 1.977005 -2.407797 0
M  V30 32 H -1.334902 4.467692 -2.798634 0
M  V30 33 H 0.311623 5.726947 -1.375202 0
M  V30 34 H 1.400991 2.113316 0.672112 0
M  V30 35 H -3.765716 -0.615405 2.072323 0
M  V30 36 H -0.256486 -3.612110 1.160105 0
M  V30 END ATOM
M  V30 BEGIN BOND
M  V30 1 1 1 2
M  V30 2 1 2 3
M  V30 3 2 3 4
M  V30 4 1 4 5
M  V30 5 2 5 6
M  V30 6 1 6 7
M  V30 7 1 7 8
M  V30 8 2 8 9
M  V30 9 1 9 10
M  V30 10 1 10 11
M  V30 11 2 11 12
M  V30 12 1 12 13
M  V30 13 2 13 14
M  V30 14 1 14 15
M  V30 15 1 15 16
M  V30 16 2 15 17
M  V30 17 1 9 18
M  V30 18 2 18 19
M  V30 19 1 18 20
M  V30 20 1 20 21
M  V30 21 2 21 22
M  V30 22 2 7 23
M  V30 23 1 23 3
M  V30 24 1 21 8
M  V30 25 1 17 11
M  V30 26 1 1 24
M  V30 27 1 1 25
M  V30 28 1 1 26
M  V30 29 1 4 27
M  V30 30 1 5 28
M  V30 31 1 6 29
M  V30 32 1 10 30
M  V30 33 1 12 31
M  V30 34 1 13 32
M  V30 35 1 14 33
M  V30 36 1 17 34
M  V30 37 1 20 35
M  V30 38 1 23 36
M  V30 END BOND
M  V30 END CTAB
M  END
>  <Dataset>  (42) 
ChEMBL_Kinases

>  <Ligand_Instance>  (42) 
nan

>  <PDB_ID>  (42) 
nan

>  <Standardized_SMILES>  (42) 
COc1cccc(C2=C(Nc3cccc(Cl)c3)C(=O)NC2=O)c1

>  <Name>  (42) 
nan

>  <Pocket>  (42) 
nan

>  <ATP_Site>  (42) 
nan

>  <Peripheral>  (42) 
nan

>  <Num_H_Atoms_ProtBoundConf>  (42) 
nan

>  <Num_Resolved_Atoms>  (42) 
nan

>  <Num_Not_Resolved_Atoms>  (42) 
nan

$$$$
CHEMBL34704
     RDKit          3D

  0  0  0  0  0  0  0  0  0  0999 V3000
M  V30 BEGIN CTAB
M  V30 COUNTS 42 43 0 0 0
M  V30 BEGIN ATOM
M  V30 1 N 1.894078 -1.930589 -1.441147 0
M  V30 2 C 1.560363 -1.204779 -0.610057 0
M  V30 3 C 1.127581 -0.319675 0.427416 0
M  V30 4 C 1.828059 0.794473 0.464297 0
M  V30 5 N 1.547334 1.814956 1.437905 0
M  V30 6 S 3.173241 1.448683 -0.466141 0
M  V30 7 C 3.780590 0.421782 -1.771918 0
M  V30 8 C 4.805849 -0.480629 -1.461349 0
M  V30 9 C 5.264903 -1.261466 -2.521446 0
M  V30 10 C 4.711761 -1.117391 -3.780026 0
M  V30 11 C 3.701301 -0.214082 -4.041798 0
M  V30 12 C 3.197351 0.596453 -3.026572 0
M  V30 13 N 2.172885 1.532471 -3.228009 0
M  V30 14 C 0.041551 -0.572613 1.363593 0
M  V30 15 C -0.036180 -1.644757 2.281132 0
M  V30 16 N -0.081520 -2.526284 3.023766 0
M  V30 17 C -0.996460 0.240132 1.407178 0
M  V30 18 N -0.990206 1.350435 0.506648 0
M  V30 19 S -2.472444 0.271185 2.376515 0
M  V30 20 C -2.667551 -1.010567 3.545384 0
M  V30 21 C -2.167042 -0.798207 4.836475 0
M  V30 22 C -2.352167 -1.842002 5.749755 0
M  V30 23 C -3.005237 -3.012870 5.352908 0
M  V30 24 C -3.487855 -3.182682 4.057474 0
M  V30 25 C -3.320407 -2.173004 3.136984 0
M  V30 26 N -3.792522 -2.295358 1.807092 0
M  V30 27 H 1.178441 1.885476 2.413736 0
M  V30 28 H 1.168684 1.828403 2.425471 0
M  V30 29 H 5.178568 -0.528838 -0.457944 0
M  V30 30 H 6.042671 -1.961833 -2.335960 0
M  V30 31 H 5.044583 -1.707328 -4.624044 0
M  V30 32 H 3.261080 -0.092860 -5.022782 0
M  V30 33 H 1.222174 1.113950 -3.291240 0
M  V30 34 H 2.386156 2.545405 -3.302151 0
M  V30 35 H -1.505310 2.253131 0.488091 0
M  V30 36 H -0.963227 2.140177 -0.164591 0
M  V30 37 H -1.672760 0.131195 5.074527 0
M  V30 38 H -1.972362 -1.687043 6.738699 0
M  V30 39 H -3.107160 -3.771794 6.121409 0
M  V30 40 H -3.979966 -4.103172 3.813435 0
M  V30 41 H -3.311804 -3.066876 1.270685 0
M  V30 42 H -4.542131 -1.654156 1.458314 0
M  V30 END ATOM
M  V30 BEGIN BOND
M  V30 1 3 1 2
M  V30 2 1 2 3
M  V30 3 2 3 4
M  V30 4 1 4 5
M  V30 5 1 4 6
M  V30 6 1 6 7
M  V30 7 2 7 8
M  V30 8 1 8 9
M  V30 9 2 9 10
M  V30 10 1 10 11
M  V30 11 2 11 12
M  V30 12 1 12 13
M  V30 13 1 3 14
M  V30 14 1 14 15
M  V30 15 3 15 16
M  V30 16 2 14 17
M  V30 17 1 17 18
M  V30 18 1 17 19
M  V30 19 1 19 20
M  V30 20 2 20 21
M  V30 21 1 21 22
M  V30 22 2 22 23
M  V30 23 1 23 24
M  V30 24 2 24 25
M  V30 25 1 25 26
M  V30 26 1 12 7
M  V30 27 1 25 20
M  V30 28 1 5 27
M  V30 29 1 5 28
M  V30 30 1 8 29
M  V30 31 1 9 30
M  V30 32 1 10 31
M  V30 33 1 11 32
M  V30 34 1 13 33
M  V30 35 1 13 34
M  V30 36 1 18 35
M  V30 37 1 18 36
M  V30 38 1 21 37
M  V30 39 1 22 38
M  V30 40 1 23 39
M  V30 41 1 24 40
M  V30 42 1 26 41
M  V30 43 1 26 42
M  V30 END BOND
M  V30 END CTAB
M  END
>  <Dataset>  (43) 
ChEMBL_Kinases

>  <Ligand_Instance>  (43) 
nan

>  <PDB_ID>  (43) 
nan

>  <Standardized_SMILES>  (43) 
N#CC(=C(/N)Sc1ccccc1N)/C(C#N)=C(\N)Sc1ccccc1N

>  <Name>  (43) 
nan

>  <Pocket>  (43) 
nan

>  <ATP_Site>  (43) 
nan

>  <Peripheral>  (43) 
nan

>  <Num_H_Atoms_ProtBoundConf>  (43) 
nan

>  <Num_Resolved_Atoms>  (43) 
nan

>  <Num_Not_Resolved_Atoms>  (43) 
nan

$$$$
CHEMBL347647
     RDKit          3D

  0  0  0  0  0  0  0  0  0  0999 V3000
M  V30 BEGIN CTAB
M  V30 COUNTS 32 34 0 0 0
M  V30 BEGIN ATOM
M  V30 1 O 0.973981 -0.287465 4.865299 0
M  V30 2 C 1.284734 0.236511 3.769660 0
M  V30 3 N 1.920360 1.487068 3.560248 0
M  V30 4 C 2.059059 1.638615 2.153218 0
M  V30 5 O 2.554646 2.570924 1.479255 0
M  V30 6 C 1.504890 0.476825 1.480437 0
M  V30 7 C 1.409485 0.095510 0.056199 0
M  V30 8 C 1.837299 -1.203136 -0.221457 0
M  V30 9 C 1.774681 -1.687205 -1.538616 0
M  V30 10 C 1.283225 -0.818380 -2.486719 0
M  V30 11 C 0.852329 0.470910 -2.254403 0
M  V30 12 C 0.924625 0.926547 -0.933406 0
M  V30 13 Cl 0.421377 2.516109 -0.473862 0
M  V30 14 C 1.043560 -0.356896 2.436985 0
M  V30 15 N 0.396280 -1.624533 2.197444 0
M  V30 16 C -0.866748 -1.658253 1.534574 0
M  V30 17 C -1.497155 -2.866575 1.248467 0
M  V30 18 C -2.711788 -2.898241 0.600502 0
M  V30 19 C -3.364380 -1.747033 0.202427 0
M  V30 20 C -2.750930 -0.525510 0.479505 0
M  V30 21 C -1.524336 -0.508001 1.134833 0
M  V30 22 H 2.238067 2.184018 4.266529 0
M  V30 23 H 2.230361 -1.862532 0.565456 0
M  V30 24 H 2.090842 -2.690264 -1.789965 0
M  V30 25 H 1.228177 -1.185313 -3.501931 0
M  V30 26 H 0.463625 1.141925 -3.034493 0
M  V30 27 H 0.799870 -2.546150 2.485879 0
M  V30 28 H -1.022556 -3.785006 1.547082 0
M  V30 29 H -3.156590 -3.861364 0.400343 0
M  V30 30 H -4.304171 -1.813099 -0.297280 0
M  V30 31 H -3.264968 0.370303 0.164020 0
M  V30 32 H -1.129965 0.465389 1.311141 0
M  V30 END ATOM
M  V30 BEGIN BOND
M  V30 1 2 1 2
M  V30 2 1 2 3
M  V30 3 1 3 4
M  V30 4 2 4 5
M  V30 5 1 4 6
M  V30 6 1 6 7
M  V30 7 2 7 8
M  V30 8 1 8 9
M  V30 9 2 9 10
M  V30 10 1 10 11
M  V30 11 2 11 12
M  V30 12 1 12 13
M  V30 13 2 6 14
M  V30 14 1 14 15
M  V30 15 1 15 16
M  V30 16 2 16 17
M  V30 17 1 17 18
M  V30 18 2 18 19
M  V30 19 1 19 20
M  V30 20 2 20 21
M  V30 21 1 14 2
M  V30 22 1 21 16
M  V30 23 1 12 7
M  V30 24 1 3 22
M  V30 25 1 8 23
M  V30 26 1 9 24
M  V30 27 1 10 25
M  V30 28 1 11 26
M  V30 29 1 15 27
M  V30 30 1 17 28
M  V30 31 1 18 29
M  V30 32 1 19 30
M  V30 33 1 20 31
M  V30 34 1 21 32
M  V30 END BOND
M  V30 END CTAB
M  END
>  <Dataset>  (44) 
ChEMBL_Kinases

>  <Ligand_Instance>  (44) 
nan

>  <PDB_ID>  (44) 
nan

>  <Standardized_SMILES>  (44) 
O=C1NC(=O)C(c2ccccc2Cl)=C1Nc1ccccc1

>  <Name>  (44) 
nan

>  <Pocket>  (44) 
nan

>  <ATP_Site>  (44) 
nan

>  <Peripheral>  (44) 
nan

>  <Num_H_Atoms_ProtBoundConf>  (44) 
nan

>  <Num_Resolved_Atoms>  (44) 
nan

>  <Num_Not_Resolved_Atoms>  (44) 
nan

$$$$
CHEMBL347702
     RDKit          3D

  0  0  0  0  0  0  0  0  0  0999 V3000
M  V30 BEGIN CTAB
M  V30 COUNTS 33 35 0 0 0
M  V30 BEGIN ATOM
M  V30 1 O 1.839084 -0.147821 4.813277 0
M  V30 2 C 2.096696 -0.465843 3.620767 0
M  V30 3 N 3.352707 -0.938425 3.096494 0
M  V30 4 C 3.209289 -1.185643 1.685268 0
M  V30 5 O 4.234085 -1.603625 1.094158 0
M  V30 6 C 1.826763 -0.847875 1.372659 0
M  V30 7 C 1.358062 -1.043037 0.007317 0
M  V30 8 C 0.261550 -1.787928 -0.422644 0
M  V30 9 C -0.144124 -1.869200 -1.717256 0
M  V30 10 C 0.579147 -1.172845 -2.642681 0
M  V30 11 C 1.684969 -0.404101 -2.317370 0
M  V30 12 C 2.058446 -0.354067 -0.976741 0
M  V30 13 Cl 3.461279 0.629351 -0.614562 0
M  V30 14 C 1.207977 -0.442432 2.467275 0
M  V30 15 N -0.131105 0.007541 2.560143 0
M  V30 16 C -1.245914 -0.024831 1.722101 0
M  V30 17 C -2.246169 -0.968791 1.844512 0
M  V30 18 C -3.308588 -0.979778 0.966467 0
M  V30 19 C -3.358844 -0.021471 -0.050137 0
M  V30 20 O -4.436137 -0.034865 -0.943541 0
M  V30 21 C -2.362984 0.940288 -0.194353 0
M  V30 22 C -1.306957 0.934548 0.696984 0
M  V30 23 H 4.180590 -1.043654 3.756030 0
M  V30 24 H -0.255479 -2.331212 0.348830 0
M  V30 25 H -1.015913 -2.485474 -1.899552 0
M  V30 26 H 0.264970 -1.231634 -3.672566 0
M  V30 27 H 2.228831 0.130644 -3.084230 0
M  V30 28 H -0.516355 0.497869 3.391332 0
M  V30 29 H -2.194312 -1.698659 2.633704 0
M  V30 30 H -4.092777 -1.720590 1.067557 0
M  V30 31 H -4.286112 -0.651581 -1.744692 0
M  V30 32 H -2.469401 1.651167 -1.014109 0
M  V30 33 H -0.532294 1.681904 0.584667 0
M  V30 END ATOM
M  V30 BEGIN BOND
M  V30 1 2 1 2
M  V30 2 1 2 3
M  V30 3 1 3 4
M  V30 4 2 4 5
M  V30 5 1 4 6
M  V30 6 1 6 7
M  V30 7 2 7 8
M  V30 8 1 8 9
M  V30 9 2 9 10
M  V30 10 1 10 11
M  V30 11 2 11 12
M  V30 12 1 12 13
M  V30 13 2 6 14
M  V30 14 1 14 15
M  V30 15 1 15 16
M  V30 16 2 16 17
M  V30 17 1 17 18
M  V30 18 2 18 19
M  V30 19 1 19 20
M  V30 20 1 19 21
M  V30 21 2 21 22
M  V30 22 1 14 2
M  V30 23 1 22 16
M  V30 24 1 12 7
M  V30 25 1 3 23
M  V30 26 1 8 24
M  V30 27 1 9 25
M  V30 28 1 10 26
M  V30 29 1 11 27
M  V30 30 1 15 28
M  V30 31 1 17 29
M  V30 32 1 18 30
M  V30 33 1 20 31
M  V30 34 1 21 32
M  V30 35 1 22 33
M  V30 END BOND
M  V30 END CTAB
M  END
>  <Dataset>  (45) 
ChEMBL_Kinases

>  <Ligand_Instance>  (45) 
nan

>  <PDB_ID>  (45) 
nan

>  <Standardized_SMILES>  (45) 
O=C1NC(=O)C(c2ccccc2Cl)=C1Nc1ccc(O)cc1

>  <Name>  (45) 
nan

>  <Pocket>  (45) 
nan

>  <ATP_Site>  (45) 
nan

>  <Peripheral>  (45) 
nan

>  <Num_H_Atoms_ProtBoundConf>  (45) 
nan

>  <Num_Resolved_Atoms>  (45) 
nan

>  <Num_Not_Resolved_Atoms>  (45) 
nan

$$$$
CHEMBL349540
     RDKit          3D

  0  0  0  0  0  0  0  0  0  0999 V3000
M  V30 BEGIN CTAB
M  V30 COUNTS 40 42 0 0 0
M  V30 BEGIN ATOM
M  V30 1 C -1.815643 -4.301937 1.666337 0
M  V30 2 O -1.219702 -3.382411 0.801063 0
M  V30 3 C 0.082192 -2.939777 0.828754 0
M  V30 4 C 1.072948 -3.309015 1.721125 0
M  V30 5 C 2.328631 -2.759696 1.599223 0
M  V30 6 C 2.622098 -1.849031 0.607558 0
M  V30 7 C 1.639135 -1.489292 -0.269844 0
M  V30 8 C 0.356972 -2.015932 -0.187673 0
M  V30 9 C -0.595152 -1.557995 -1.178703 0
M  V30 10 C -0.844565 -0.377266 -1.718180 0
M  V30 11 N -0.098002 0.756098 -1.334720 0
M  V30 12 C 0.145485 1.448636 -0.117946 0
M  V30 13 C 0.936301 2.575738 -0.106220 0
M  V30 14 C 1.138435 3.206385 1.102084 0
M  V30 15 C 0.595248 2.775398 2.302263 0
M  V30 16 S 1.016937 3.790572 3.711274 0
M  V30 17 C 2.568887 3.178313 4.441614 0
M  V30 18 C -0.200773 1.637434 2.278555 0
M  V30 19 C -0.407822 0.998430 1.065798 0
M  V30 20 C -1.932562 -0.454250 -2.697049 0
M  V30 21 O -2.334943 0.551809 -3.331421 0
M  V30 22 N -2.337808 -1.839640 -2.704045 0
M  V30 23 C -1.507270 -2.532606 -1.759521 0
M  V30 24 O -1.796179 -3.754411 -1.703659 0
M  V30 25 H -1.349411 -4.122011 2.677924 0
M  V30 26 H -2.894544 -3.982707 1.770901 0
M  V30 27 H -1.746524 -5.348924 1.355008 0
M  V30 28 H 0.715682 -4.025704 2.449277 0
M  V30 29 H 3.013295 -3.123108 2.349589 0
M  V30 30 H 3.650481 -1.480343 0.612527 0
M  V30 31 H 1.914501 -0.777719 -1.023653 0
M  V30 32 H 0.374966 1.131379 -2.211304 0
M  V30 33 H 1.366799 2.920978 -1.047391 0
M  V30 34 H 1.779582 4.094111 1.005185 0
M  V30 35 H 2.542475 3.162024 5.550011 0
M  V30 36 H 2.734896 2.130760 4.121393 0
M  V30 37 H 3.440341 3.785264 4.068580 0
M  V30 38 H -0.587380 1.363431 3.244239 0
M  V30 39 H -1.030699 0.140714 1.137171 0
M  V30 40 H -3.133831 -2.072142 -3.370297 0
M  V30 END ATOM
M  V30 BEGIN BOND
M  V30 1 1 1 2
M  V30 2 1 2 3
M  V30 3 2 3 4
M  V30 4 1 4 5
M  V30 5 2 5 6
M  V30 6 1 6 7
M  V30 7 2 7 8
M  V30 8 1 8 9
M  V30 9 2 9 10
M  V30 10 1 10 11
M  V30 11 1 11 12
M  V30 12 2 12 13
M  V30 13 1 13 14
M  V30 14 2 14 15
M  V30 15 1 15 16
M  V30 16 1 16 17
M  V30 17 1 15 18
M  V30 18 2 18 19
M  V30 19 1 10 20
M  V30 20 2 20 21
M  V30 21 1 20 22
M  V30 22 1 22 23
M  V30 23 2 23 24
M  V30 24 1 8 3
M  V30 25 1 23 9
M  V30 26 1 19 12
M  V30 27 1 1 25
M  V30 28 1 1 26
M  V30 29 1 1 27
M  V30 30 1 4 28
M  V30 31 1 5 29
M  V30 32 1 6 30
M  V30 33 1 7 31
M  V30 34 1 11 32
M  V30 35 1 13 33
M  V30 36 1 14 34
M  V30 37 1 17 35
M  V30 38 1 17 36
M  V30 39 1 17 37
M  V30 40 1 18 38
M  V30 41 1 19 39
M  V30 42 1 22 40
M  V30 END BOND
M  V30 END CTAB
M  END
>  <Dataset>  (46) 
ChEMBL_Kinases

>  <Ligand_Instance>  (46) 
nan

>  <PDB_ID>  (46) 
nan

>  <Standardized_SMILES>  (46) 
COc1ccccc1C1=C(Nc2ccc(SC)cc2)C(=O)NC1=O

>  <Name>  (46) 
nan

>  <Pocket>  (46) 
nan

>  <ATP_Site>  (46) 
nan

>  <Peripheral>  (46) 
nan

>  <Num_H_Atoms_ProtBoundConf>  (46) 
nan

>  <Num_Resolved_Atoms>  (46) 
nan

>  <Num_Not_Resolved_Atoms>  (46) 
nan

$$$$
CHEMBL4087517
     RDKit          3D

  0  0  0  0  0  0  0  0  0  0999 V3000
M  V30 BEGIN CTAB
M  V30 COUNTS 40 42 0 0 0
M  V30 BEGIN ATOM
M  V30 1 N -1.025803 -4.544239 1.056553 0
M  V30 2 C 0.189698 -3.859031 1.311908 0
M  V30 3 C 0.120711 -2.351283 1.144900 0
M  V30 4 C -0.268169 -2.038499 -0.252661 0
M  V30 5 C -1.561002 -1.330981 -0.439616 0
M  V30 6 C -1.655602 -0.150950 0.493335 0
M  V30 7 N -0.929491 1.009313 -0.041160 0
M  V30 8 C -1.416837 1.986414 -0.858573 0
M  V30 9 I -3.398009 2.030800 -1.550573 0
M  V30 10 C -0.421698 2.900436 -1.138171 0
M  V30 11 Cl -0.647753 4.309236 -2.157459 0
M  V30 12 C 0.701761 2.459484 -0.467250 0
M  V30 13 C 1.950299 3.055173 -0.448918 0
M  V30 14 Cl 2.317223 4.517451 -1.305796 0
M  V30 15 C 2.952819 2.437299 0.300082 0
M  V30 16 C 2.571938 1.281559 0.946934 0
M  V30 17 C 3.601429 0.610637 1.740474 0
M  V30 18 N 3.418541 -0.579477 2.476531 0
M  V30 19 O 4.794010 0.977310 1.893500 0
M  V30 20 N 1.340023 0.748359 0.892300 0
M  V30 21 C 0.362537 1.305126 0.192599 0
M  V30 22 C -1.329231 -0.440012 1.910194 0
M  V30 23 C -0.723803 -1.764450 2.203595 0
M  V30 24 H -1.773540 -4.043799 0.576452 0
M  V30 25 H -1.334423 -5.190108 1.810852 0
M  V30 26 H 0.525145 -4.131125 2.347962 0
M  V30 27 H 0.961728 -4.301209 0.619330 0
M  V30 28 H 1.185476 -2.015173 1.314950 0
M  V30 29 H -0.320573 -2.969643 -0.888625 0
M  V30 30 H 0.532905 -1.428128 -0.762028 0
M  V30 31 H -2.463283 -1.944192 -0.359063 0
M  V30 32 H -1.534746 -0.881121 -1.475060 0
M  V30 33 H -2.744830 0.147134 0.434521 0
M  V30 34 H 3.963316 2.812048 0.386828 0
M  V30 35 H 3.085461 -0.964060 3.393112 0
M  V30 36 H 3.735787 -1.403015 1.886429 0
M  V30 37 H -0.722400 0.428097 2.303623 0
M  V30 38 H -2.247673 -0.385994 2.567324 0
M  V30 39 H -1.490457 -2.517803 2.517979 0
M  V30 40 H -0.098005 -1.630029 3.128514 0
M  V30 END ATOM
M  V30 BEGIN BOND
M  V30 1 1 1 2
M  V30 2 1 2 3
M  V30 3 1 3 4
M  V30 4 1 4 5
M  V30 5 1 5 6
M  V30 6 1 6 7
M  V30 7 1 7 8
M  V30 8 1 8 9
M  V30 9 2 8 10
M  V30 10 1 10 11
M  V30 11 1 10 12
M  V30 12 2 12 13
M  V30 13 1 13 14
M  V30 14 1 13 15
M  V30 15 2 15 16
M  V30 16 1 16 17
M  V30 17 1 17 18
M  V30 18 2 17 19
M  V30 19 1 16 20
M  V30 20 2 20 21
M  V30 21 1 6 22
M  V30 22 1 22 23
M  V30 23 1 23 3
M  V30 24 1 21 7
M  V30 25 1 21 12
M  V30 26 1 1 24
M  V30 27 1 1 25
M  V30 28 1 2 26
M  V30 29 1 2 27
M  V30 30 1 3 28
M  V30 31 1 4 29
M  V30 32 1 4 30
M  V30 33 1 5 31
M  V30 34 1 5 32
M  V30 35 1 6 33
M  V30 36 1 15 34
M  V30 37 1 18 35
M  V30 38 1 18 36
M  V30 39 1 22 37
M  V30 40 1 22 38
M  V30 41 1 23 39
M  V30 42 1 23 40
M  V30 END BOND
M  V30 END CTAB
M  END
>  <Dataset>  (47) 
ChEMBL_Kinases

>  <Ligand_Instance>  (47) 
nan

>  <PDB_ID>  (47) 
nan

>  <Standardized_SMILES>  (47) 
NCC1CCC(n2c(I)c(Cl)c3c(Cl)cc(C(N)=O)nc32)CC1

>  <Name>  (47) 
nan

>  <Pocket>  (47) 
nan

>  <ATP_Site>  (47) 
nan

>  <Peripheral>  (47) 
nan

>  <Num_H_Atoms_ProtBoundConf>  (47) 
nan

>  <Num_Resolved_Atoms>  (47) 
nan

>  <Num_Not_Resolved_Atoms>  (47) 
nan

$$$$
CHEMBL3808942
     RDKit          3D

  0  0  0  0  0  0  0  0  0  0999 V3000
M  V30 BEGIN CTAB
M  V30 COUNTS 47 51 0 0 0
M  V30 BEGIN ATOM
M  V30 1 C 4.410476 -1.807578 2.117253 0
M  V30 2 C 3.317150 -2.370089 1.326111 0
M  V30 3 N 3.151770 -3.541565 0.651905 0
M  V30 4 C 1.985142 -3.774680 0.030261 0
M  V30 5 C 1.613716 -4.881964 -0.696901 0
M  V30 6 C 0.340974 -4.953361 -1.277986 0
M  V30 7 C -0.643299 -3.988254 -1.203589 0
M  V30 8 C -0.273805 -2.894487 -0.484336 0
M  V30 9 C 0.975933 -2.847823 0.073748 0
M  V30 10 N 1.191353 -1.738237 0.736573 0
M  V30 11 C 2.326855 -1.452206 1.370756 0
M  V30 12 N 2.108212 -0.179668 1.904448 0
M  V30 13 C 1.981486 1.226112 1.602249 0
M  V30 14 C 1.188609 1.944222 2.638143 0
M  V30 15 C -0.243501 1.641917 2.790223 0
M  V30 16 C -1.256506 2.162352 1.868129 0
M  V30 17 C -1.311539 1.827821 0.419822 0 CFG=2
M  V30 18 C -2.531949 2.538949 -0.207580 0
M  V30 19 N -3.750401 1.960930 0.365761 0
M  V30 20 C -3.900615 0.532852 0.177616 0
M  V30 21 O -5.038487 -0.033435 0.128214 0
M  V30 22 C -2.644636 -0.236123 0.045053 0
M  V30 23 C -2.573136 -1.615221 -0.207174 0
M  V30 24 C -1.229057 -1.817015 -0.304615 0
M  V30 25 N -0.623956 -0.651346 -0.125612 0
M  V30 26 C -1.408496 0.383606 0.103008 0
M  V30 27 H 5.284355 -2.490620 2.130070 0
M  V30 28 H 4.738107 -0.794513 1.769132 0
M  V30 29 H 4.060799 -1.689170 3.177924 0
M  V30 30 H 2.358966 -5.658238 -0.776367 0
M  V30 31 H 0.105478 -5.866086 -1.847181 0
M  V30 32 H -1.626848 -3.997919 -1.626027 0
M  V30 33 H 2.101503 -0.616657 2.851203 0
M  V30 34 H 1.743090 1.462104 0.564859 0
M  V30 35 H 3.048213 1.630469 1.724575 0
M  V30 36 H 1.665299 1.797323 3.662948 0
M  V30 37 H 1.281186 3.066389 2.511416 0
M  V30 38 H -0.595140 1.857293 3.854889 0
M  V30 39 H -0.336162 0.493887 2.768490 0
M  V30 40 H -2.265328 1.938484 2.360331 0
M  V30 41 H -1.202923 3.308159 1.974102 0
M  V30 42 H -0.430250 2.233924 -0.092729 0
M  V30 43 H -2.515178 2.468260 -1.291317 0
M  V30 44 H -2.464259 3.589487 0.102210 0
M  V30 45 H -4.537689 2.433572 0.897614 0
M  V30 46 H -3.223734 -2.443518 -0.328816 0
M  V30 47 H 0.238304 -0.102608 -0.107211 0
M  V30 END ATOM
M  V30 BEGIN BOND
M  V30 1 1 1 2
M  V30 2 2 2 3
M  V30 3 1 3 4
M  V30 4 2 4 5
M  V30 5 1 5 6
M  V30 6 2 6 7
M  V30 7 1 7 8
M  V30 8 2 8 9
M  V30 9 1 9 10
M  V30 10 2 10 11
M  V30 11 1 11 12
M  V30 12 1 12 13
M  V30 13 1 13 14
M  V30 14 1 14 15
M  V30 15 1 15 16
M  V30 16 1 16 17
M  V30 17 1 17 18
M  V30 18 1 18 19
M  V30 19 1 19 20
M  V30 20 2 20 21
M  V30 21 1 20 22
M  V30 22 1 22 23
M  V30 23 2 23 24
M  V30 24 1 24 25
M  V30 25 1 25 26
M  V30 26 1 11 2
M  V30 27 1 26 17
M  V30 28 1 9 4
M  V30 29 2 26 22
M  V30 30 1 24 8
M  V30 31 1 1 27
M  V30 32 1 1 28
M  V30 33 1 1 29
M  V30 34 1 5 30
M  V30 35 1 6 31
M  V30 36 1 7 32
M  V30 37 1 12 33
M  V30 38 1 13 34
M  V30 39 1 13 35
M  V30 40 1 14 36
M  V30 41 1 14 37
M  V30 42 1 15 38
M  V30 43 1 15 39
M  V30 44 1 16 40
M  V30 45 1 16 41
M  V30 46 1 17 42 CFG=3
M  V30 47 1 18 43
M  V30 48 1 18 44
M  V30 49 1 19 45
M  V30 50 1 23 46
M  V30 51 1 25 47
M  V30 END BOND
M  V30 END CTAB
M  END
>  <Dataset>  (48) 
ChEMBL_Kinases

>  <Ligand_Instance>  (48) 
nan

>  <PDB_ID>  (48) 
nan

>  <Standardized_SMILES>  (48) 
Cc1nc2cccc3c2nc1NCCCC[C@@H]1CNC(=O)c2cc-3[nH]c21

>  <Name>  (48) 
nan

>  <Pocket>  (48) 
nan

>  <ATP_Site>  (48) 
nan

>  <Peripheral>  (48) 
nan

>  <Num_H_Atoms_ProtBoundConf>  (48) 
nan

>  <Num_Resolved_Atoms>  (48) 
nan

>  <Num_Not_Resolved_Atoms>  (48) 
nan

$$$$
CHEMBL3410047
     RDKit          3D

  0  0  0  0  0  0  0  0  0  0999 V3000
M  V30 BEGIN CTAB
M  V30 COUNTS 54 57 0 0 0
M  V30 BEGIN ATOM
M  V30 1 C 2.640728 -0.842690 5.455426 0
M  V30 2 O 3.010182 -2.004008 4.721576 0
M  V30 3 C 3.222083 -1.961504 3.353700 0
M  V30 4 C 3.583902 -3.055680 2.575542 0
M  V30 5 C 3.788960 -2.992071 1.221516 0
M  V30 6 C 3.636764 -1.791572 0.558449 0
M  V30 7 C 3.280769 -0.661603 1.250669 0
M  V30 8 N 3.102319 0.622495 0.652329 0
M  V30 9 C 4.172732 1.599797 0.521289 0
M  V30 10 C 4.867774 1.374235 -0.791353 0
M  V30 11 O 5.902543 2.286512 -0.963270 0
M  V30 12 C 1.742015 0.623628 0.285506 0
M  V30 13 O 1.646559 -0.566206 0.752169 0
M  V30 14 N 0.761030 1.451237 -0.320251 0
M  V30 15 C -0.559220 0.948141 -0.465255 0
M  V30 16 C -0.887386 0.262354 -1.613877 0
M  V30 17 C -2.179476 -0.205846 -1.708842 0
M  V30 18 C -3.132977 -0.023523 -0.728460 0
M  V30 19 C -4.505797 -0.454939 -0.620430 0
M  V30 20 N -5.398960 0.555328 -0.381202 0
M  V30 21 C -6.719048 0.329815 -0.249067 0
M  V30 22 N -7.252960 -0.902155 -0.342261 0
M  V30 23 C -6.409472 -1.916641 -0.574419 0
M  V30 24 N -6.616754 -3.237895 -0.702313 0
M  V30 25 C -5.418054 -3.842161 -0.912565 0
M  V30 26 C -4.384542 -2.894526 -0.925364 0
M  V30 27 C -2.935992 -3.143773 -1.097343 0
M  V30 28 C -5.057221 -1.711989 -0.712574 0
M  V30 29 C -2.717432 0.687325 0.411905 0
M  V30 30 C -1.440165 1.186797 0.576413 0
M  V30 31 C 3.094244 -0.802958 2.594798 0
M  V30 32 H 1.917679 -0.203231 4.946883 0
M  V30 33 H 2.235604 -1.173196 6.424018 0
M  V30 34 H 3.595860 -0.262697 5.607785 0
M  V30 35 H 3.710226 -4.018384 3.082938 0
M  V30 36 H 4.069041 -3.849662 0.627673 0
M  V30 37 H 3.793392 -1.720577 -0.509463 0
M  V30 38 H 3.775362 2.637684 0.542068 0
M  V30 39 H 4.900280 1.535277 1.328441 0
M  V30 40 H 5.286605 0.342173 -0.821053 0
M  V30 41 H 4.152193 1.501704 -1.631283 0
M  V30 42 H 6.726319 1.838087 -1.302125 0
M  V30 43 H 1.288395 2.322429 -0.540538 0
M  V30 44 H -0.233399 0.066614 -2.421271 0
M  V30 45 H -2.563405 -0.738505 -2.564651 0
M  V30 46 H -7.394404 1.158567 -0.060088 0
M  V30 47 H -7.537899 -3.720492 -0.650196 0
M  V30 48 H -5.294689 -4.900579 -1.049542 0
M  V30 49 H -2.800582 -4.250795 -0.875276 0
M  V30 50 H -2.564782 -3.052524 -2.119549 0
M  V30 51 H -2.317225 -2.673509 -0.305677 0
M  V30 52 H -3.373710 0.907114 1.271043 0
M  V30 53 H -1.130209 1.733033 1.455186 0
M  V30 54 H 2.813160 0.082089 3.150937 0
M  V30 END ATOM
M  V30 BEGIN BOND
M  V30 1 1 1 2
M  V30 2 1 2 3
M  V30 3 2 3 4
M  V30 4 1 4 5
M  V30 5 2 5 6
M  V30 6 1 6 7
M  V30 7 1 7 8
M  V30 8 1 8 9
M  V30 9 1 9 10
M  V30 10 1 10 11
M  V30 11 1 8 12
M  V30 12 2 12 13
M  V30 13 1 12 14
M  V30 14 1 14 15
M  V30 15 2 15 16
M  V30 16 1 16 17
M  V30 17 2 17 18
M  V30 18 1 18 19
M  V30 19 2 19 20
M  V30 20 1 20 21
M  V30 21 2 21 22
M  V30 22 1 22 23
M  V30 23 1 23 24
M  V30 24 1 24 25
M  V30 25 2 25 26
M  V30 26 1 26 27
M  V30 27 1 26 28
M  V30 28 1 18 29
M  V30 29 2 29 30
M  V30 30 2 7 31
M  V30 31 1 31 3
M  V30 32 1 30 15
M  V30 33 1 28 19
M  V30 34 2 28 23
M  V30 35 1 1 32
M  V30 36 1 1 33
M  V30 37 1 1 34
M  V30 38 1 4 35
M  V30 39 1 5 36
M  V30 40 1 6 37
M  V30 41 1 9 38
M  V30 42 1 9 39
M  V30 43 1 10 40
M  V30 44 1 10 41
M  V30 45 1 11 42
M  V30 46 1 14 43
M  V30 47 1 16 44
M  V30 48 1 17 45
M  V30 49 1 21 46
M  V30 50 1 24 47
M  V30 51 1 25 48
M  V30 52 1 27 49
M  V30 53 1 27 50
M  V30 54 1 27 51
M  V30 55 1 29 52
M  V30 56 1 30 53
M  V30 57 1 31 54
M  V30 END BOND
M  V30 END CTAB
M  END
>  <Dataset>  (49) 
ChEMBL_Kinases

>  <Ligand_Instance>  (49) 
nan

>  <PDB_ID>  (49) 
nan

>  <Standardized_SMILES>  (49) 
COc1cccc(N(CCO)C(=O)Nc2ccc(-c3ncnc4[nH]cc(C)c34)cc2)c1

>  <Name>  (49) 
nan

>  <Pocket>  (49) 
nan

>  <ATP_Site>  (49) 
nan

>  <Peripheral>  (49) 
nan

>  <Num_H_Atoms_ProtBoundConf>  (49) 
nan

>  <Num_Resolved_Atoms>  (49) 
nan

>  <Num_Not_Resolved_Atoms>  (49) 
nan

$$$$
CHEMBL4094600
     RDKit          3D

  0  0  0  0  0  0  0  0  0  0999 V3000
M  V30 BEGIN CTAB
M  V30 COUNTS 47 51 0 0 0
M  V30 BEGIN ATOM
M  V30 1 C 0.190487 -3.995302 4.045989 0
M  V30 2 C -0.554604 -4.040610 2.743786 0
M  V30 3 C -0.351280 -3.010643 1.857216 0
M  V30 4 C -0.952924 -2.904749 0.631803 0
M  V30 5 C -0.795816 -1.841019 -0.351965 0
M  V30 6 C -0.916749 -2.257773 -1.686169 0
M  V30 7 C -0.815895 -1.429757 -2.781168 0
M  V30 8 C -0.580508 -0.104920 -2.538186 0
M  V30 9 N -0.481734 0.713111 -3.610012 0
M  V30 10 C -0.252705 2.029749 -3.454990 0
M  V30 11 C -0.132319 2.455498 -2.153690 0
M  V30 12 N 0.089962 3.680906 -1.660967 0
M  V30 13 N 0.122217 3.599068 -0.357033 0
M  V30 14 N -0.072943 2.336691 0.093416 0
M  V30 15 C -0.065649 2.103644 1.513106 0 CFG=1
M  V30 16 C -1.370011 1.719214 2.133486 0
M  V30 17 C 1.148160 1.438904 2.044518 0
M  V30 18 C 1.370115 0.365675 2.848560 0
M  V30 19 C 2.623345 -0.079211 3.200259 0
M  V30 20 C 3.763646 0.549474 2.749462 0
M  V30 21 C 3.576073 1.640916 1.932579 0
M  V30 22 C 2.319707 2.073314 1.590141 0
M  V30 23 C -0.225508 1.659700 -1.034917 0
M  V30 24 C -0.454875 0.349830 -1.247774 0
M  V30 25 C -0.559347 -0.495365 -0.185369 0
M  V30 26 C -1.820639 -3.965629 0.345173 0
M  V30 27 C -2.024003 -4.997940 1.234177 0
M  V30 28 N -1.396694 -5.032187 2.419238 0
M  V30 29 H 1.232929 -4.314519 3.832033 0
M  V30 30 H -0.288167 -4.608039 4.817913 0
M  V30 31 H 0.269270 -2.917128 4.372123 0
M  V30 32 H 0.329107 -2.214107 2.116954 0
M  V30 33 H -1.101929 -3.294379 -1.931394 0
M  V30 34 H -0.914187 -1.785044 -3.793750 0
M  V30 35 H -0.168646 2.707763 -4.290691 0
M  V30 36 H 0.077624 3.142858 2.013680 0
M  V30 37 H -2.072722 1.473941 1.281466 0
M  V30 38 H -1.886149 2.493933 2.714507 0
M  V30 39 H -1.347931 0.808222 2.756584 0
M  V30 40 H 0.430547 -0.071488 3.162326 0
M  V30 41 H 2.657083 -0.935450 3.839220 0
M  V30 42 H 4.721194 0.174483 3.044371 0
M  V30 43 H 4.487910 2.120551 1.589464 0
M  V30 44 H 2.342774 2.956911 0.931741 0
M  V30 45 H -0.491206 -0.347324 0.851640 0
M  V30 46 H -2.383181 -4.062968 -0.558349 0
M  V30 47 H -2.683742 -5.833074 1.051090 0
M  V30 END ATOM
M  V30 BEGIN BOND
M  V30 1 1 1 2
M  V30 2 2 2 3
M  V30 3 1 3 4
M  V30 4 1 4 5
M  V30 5 2 5 6
M  V30 6 1 6 7
M  V30 7 2 7 8
M  V30 8 1 8 9
M  V30 9 2 9 10
M  V30 10 1 10 11
M  V30 11 1 11 12
M  V30 12 2 12 13
M  V30 13 1 13 14
M  V30 14 1 14 15
M  V30 15 1 15 16
M  V30 16 1 15 17
M  V30 17 2 17 18
M  V30 18 1 18 19
M  V30 19 2 19 20
M  V30 20 1 20 21
M  V30 21 2 21 22
M  V30 22 1 14 23
M  V30 23 1 23 24
M  V30 24 2 24 25
M  V30 25 2 4 26
M  V30 26 1 26 27
M  V30 27 2 27 28
M  V30 28 1 28 2
M  V30 29 1 25 5
M  V30 30 1 24 8
M  V30 31 2 23 11
M  V30 32 1 22 17
M  V30 33 1 1 29
M  V30 34 1 1 30
M  V30 35 1 1 31
M  V30 36 1 3 32
M  V30 37 1 6 33
M  V30 38 1 7 34
M  V30 39 1 10 35
M  V30 40 1 15 36 CFG=1
M  V30 41 1 16 37
M  V30 42 1 16 38
M  V30 43 1 16 39
M  V30 44 1 18 40
M  V30 45 1 19 41
M  V30 46 1 20 42
M  V30 47 1 21 43
M  V30 48 1 22 44
M  V30 49 1 25 45
M  V30 50 1 26 46
M  V30 51 1 27 47
M  V30 END BOND
M  V30 END CTAB
M  END
>  <Dataset>  (50) 
ChEMBL_Kinases

>  <Ligand_Instance>  (50) 
nan

>  <PDB_ID>  (50) 
nan

>  <Standardized_SMILES>  (50) 
Cc1cc(-c2ccc3ncc4nnn([C@@H](C)c5ccccc5)c4c3c2)ccn1

>  <Name>  (50) 
nan

>  <Pocket>  (50) 
nan

>  <ATP_Site>  (50) 
nan

>  <Peripheral>  (50) 
nan

>  <Num_H_Atoms_ProtBoundConf>  (50) 
nan

>  <Num_Resolved_Atoms>  (50) 
nan

>  <Num_Not_Resolved_Atoms>  (50) 
nan

$$$$
CHEMBL3799614
     RDKit          3D

  0  0  0  0  0  0  0  0  0  0999 V3000
M  V30 BEGIN CTAB
M  V30 COUNTS 40 43 0 0 0
M  V30 BEGIN ATOM
M  V30 1 O 1.618319 -1.735601 0.624617 0
M  V30 2 C 0.989944 -1.333109 -0.409454 0
M  V30 3 N 1.603979 -1.496014 -1.674991 0
M  V30 4 C 2.916608 -2.088157 -1.920254 0
M  V30 5 C 3.967541 -1.108067 -1.587988 0
M  V30 6 C 4.631898 -0.931154 -0.378277 0
M  V30 7 C 5.598181 0.040089 -0.202238 0
M  V30 8 N 5.859141 0.801063 -1.261730 0
M  V30 9 C 5.278843 0.710452 -2.460499 0
M  V30 10 Cl 5.696040 1.770324 -3.805009 0
M  V30 11 C 4.309953 -0.262157 -2.639510 0
M  V30 12 C -0.324721 -0.727256 -0.238718 0
M  V30 13 C -1.059027 -0.225361 -1.291019 0
M  V30 14 C -2.309516 0.360804 -1.182637 0
M  V30 15 C -2.807302 0.416070 0.119515 0
M  V30 16 N -3.993810 0.925530 0.560729 0
M  V30 17 N -4.063631 0.775051 1.866034 0
M  V30 18 C -2.932726 0.164894 2.329295 0
M  V30 19 C -2.622154 -0.179318 3.711320 0
M  V30 20 C -1.426522 0.018930 4.368602 0
M  V30 21 C -1.296123 -0.367869 5.701295 0
M  V30 22 N -2.303844 -0.931237 6.370280 0
M  V30 23 C -3.471508 -1.139090 5.771802 0
M  V30 24 C -3.640089 -0.764788 4.437424 0
M  V30 25 C -2.136612 -0.062976 1.226567 0
M  V30 26 C -0.884278 -0.636127 1.019827 0
M  V30 27 H 1.121803 -1.183615 -2.540369 0
M  V30 28 H 2.968426 -2.986889 -1.227180 0
M  V30 29 H 3.050454 -2.436494 -2.940739 0
M  V30 30 H 4.336207 -1.607359 0.399023 0
M  V30 31 H 6.077470 0.126485 0.762066 0
M  V30 32 H 3.850011 -0.319258 -3.622008 0
M  V30 33 H -0.672128 -0.267535 -2.307813 0
M  V30 34 H -2.852156 0.741907 -2.030689 0
M  V30 35 H -4.719261 1.365032 -0.074440 0
M  V30 36 H -0.632262 0.486244 3.769850 0
M  V30 37 H -0.315674 -0.181237 6.166816 0
M  V30 38 H -4.223680 -1.599643 6.395413 0
M  V30 39 H -4.631749 -0.964675 4.002521 0
M  V30 40 H -0.352570 -1.016335 1.898393 0
M  V30 END ATOM
M  V30 BEGIN BOND
M  V30 1 2 1 2
M  V30 2 1 2 3
M  V30 3 1 3 4
M  V30 4 1 4 5
M  V30 5 2 5 6
M  V30 6 1 6 7
M  V30 7 2 7 8
M  V30 8 1 8 9
M  V30 9 1 9 10
M  V30 10 2 9 11
M  V30 11 1 2 12
M  V30 12 2 12 13
M  V30 13 1 13 14
M  V30 14 2 14 15
M  V30 15 1 15 16
M  V30 16 1 16 17
M  V30 17 2 17 18
M  V30 18 1 18 19
M  V30 19 2 19 20
M  V30 20 1 20 21
M  V30 21 2 21 22
M  V30 22 1 22 23
M  V30 23 2 23 24
M  V30 24 1 18 25
M  V30 25 2 25 26
M  V30 26 1 11 5
M  V30 27 1 26 12
M  V30 28 1 25 15
M  V30 29 1 24 19
M  V30 30 1 3 27
M  V30 31 1 4 28
M  V30 32 1 4 29
M  V30 33 1 6 30
M  V30 34 1 7 31
M  V30 35 1 11 32
M  V30 36 1 13 33
M  V30 37 1 14 34
M  V30 38 1 16 35
M  V30 39 1 20 36
M  V30 40 1 21 37
M  V30 41 1 23 38
M  V30 42 1 24 39
M  V30 43 1 26 40
M  V30 END BOND
M  V30 END CTAB
M  END
>  <Dataset>  (51) 
ChEMBL_Kinases

>  <Ligand_Instance>  (51) 
nan

>  <PDB_ID>  (51) 
nan

>  <Standardized_SMILES>  (51) 
O=C(NCc1ccnc(Cl)c1)c1ccc2[nH]nc(-c3ccncc3)c2c1

>  <Name>  (51) 
nan

>  <Pocket>  (51) 
nan

>  <ATP_Site>  (51) 
nan

>  <Peripheral>  (51) 
nan

>  <Num_H_Atoms_ProtBoundConf>  (51) 
nan

>  <Num_Resolved_Atoms>  (51) 
nan

>  <Num_Not_Resolved_Atoms>  (51) 
nan

$$$$
CHEMBL3667045
     RDKit          3D

  0  0  0  0  0  0  0  0  0  0999 V3000
M  V30 BEGIN CTAB
M  V30 COUNTS 64 70 0 0 0
M  V30 BEGIN ATOM
M  V30 1 C 2.049334 -1.610940 3.456903 0
M  V30 2 C 2.224355 -0.611156 4.390781 0
M  V30 3 C 2.609892 0.653269 4.010504 0
M  V30 4 C 2.828429 0.941085 2.680113 0
M  V30 5 C 3.233483 2.172588 2.040333 0
M  V30 6 C 4.494518 2.612336 2.457342 0
M  V30 7 N 5.053377 3.746302 1.973376 0
M  V30 8 C 6.207473 4.406776 2.170897 0
M  V30 9 C 6.247369 5.541562 1.385760 0
M  V30 10 N 5.067396 5.532273 0.709393 0
M  V30 11 C 4.348918 4.464377 1.054191 0
M  V30 12 N 3.122648 4.067074 0.627234 0
M  V30 13 C 2.546545 2.938170 1.097644 0
M  V30 14 C 1.262355 2.386469 0.749196 0
M  V30 15 C 0.922811 1.961538 -0.519923 0
M  V30 16 C -0.318243 1.439992 -0.812439 0
M  V30 17 C -1.302513 1.306491 0.135972 0
M  V30 18 C -2.677398 0.767579 -0.000718 0
M  V30 19 N -2.678960 -0.620415 0.289119 0
M  V30 20 C -3.952296 -1.268497 0.289677 0
M  V30 21 C -4.458026 -1.551921 -1.076117 0
M  V30 22 C -3.464069 -2.184048 -1.989229 0
M  V30 23 C -3.253724 -3.629924 -1.779769 0
M  V30 24 N -2.928861 -4.333484 -0.691142 0
M  V30 25 C -2.847829 -5.638050 -0.986817 0
M  V30 26 C -2.543193 -6.728291 -0.182708 0
M  V30 27 C -2.529245 -7.971998 -0.746271 0
M  V30 28 N -2.808535 -8.121274 -2.060689 0
M  V30 29 C -3.106827 -7.087838 -2.865206 0
M  V30 30 C -3.125832 -5.827573 -2.315936 0
M  V30 31 N -3.364826 -4.580421 -2.750207 0
M  V30 32 C -2.148512 -1.446527 -1.901085 0
M  V30 33 C -1.733938 -1.372467 -0.457992 0
M  V30 34 C -0.934422 1.744032 1.414781 0
M  V30 35 C 0.300186 2.268371 1.729179 0
M  V30 36 C 2.651520 -0.064767 1.747337 0
M  V30 37 C 2.259991 -1.356384 2.114995 0
M  V30 38 H 1.745462 -2.601888 3.770003 0
M  V30 39 H 2.071580 -0.759059 5.459690 0
M  V30 40 H 2.779671 1.519995 4.651651 0
M  V30 41 H 5.115166 2.095589 3.185025 0
M  V30 42 H 6.976057 4.051234 2.868873 0
M  V30 43 H 7.075096 6.238060 1.368874 0
M  V30 44 H 1.647368 2.037544 -1.314322 0
M  V30 45 H -0.584297 1.110794 -1.799791 0
M  V30 46 H -3.077188 0.940861 -1.035790 0
M  V30 47 H -3.326589 1.267732 0.751079 0
M  V30 48 H -3.851205 -2.236654 0.825804 0
M  V30 49 H -4.728494 -0.642409 0.800801 0
M  V30 50 H -5.340872 -2.239328 -1.015498 0
M  V30 51 H -4.843492 -0.629035 -1.594266 0
M  V30 52 H -3.812590 -2.020451 -3.040722 0
M  V30 53 H -2.323251 -6.580140 0.868016 0
M  V30 54 H -2.290702 -8.848730 -0.128221 0
M  V30 55 H -3.332984 -7.179125 -3.915996 0
M  V30 56 H -3.615553 -4.367211 -3.754653 0
M  V30 57 H -1.368413 -1.953499 -2.519431 0
M  V30 58 H -2.307015 -0.416609 -2.335157 0
M  V30 59 H -0.684697 -1.006425 -0.344585 0
M  V30 60 H -1.754050 -2.419207 -0.042576 0
M  V30 61 H -1.639521 1.680140 2.229556 0
M  V30 62 H 0.531568 2.590265 2.730931 0
M  V30 63 H 2.784912 0.006331 0.659415 0
M  V30 64 H 2.111150 -2.168465 1.416524 0
M  V30 END ATOM
M  V30 BEGIN BOND
M  V30 1 2 1 2
M  V30 2 1 2 3
M  V30 3 2 3 4
M  V30 4 1 4 5
M  V30 5 2 5 6
M  V30 6 1 6 7
M  V30 7 1 7 8
M  V30 8 2 8 9
M  V30 9 1 9 10
M  V30 10 2 10 11
M  V30 11 1 11 12
M  V30 12 2 12 13
M  V30 13 1 13 14
M  V30 14 2 14 15
M  V30 15 1 15 16
M  V30 16 2 16 17
M  V30 17 1 17 18
M  V30 18 1 18 19
M  V30 19 1 19 20
M  V30 20 1 20 21
M  V30 21 1 21 22
M  V30 22 1 22 23
M  V30 23 2 23 24
M  V30 24 1 24 25
M  V30 25 2 25 26
M  V30 26 1 26 27
M  V30 27 2 27 28
M  V30 28 1 28 29
M  V30 29 2 29 30
M  V30 30 1 30 31
M  V30 31 1 22 32
M  V30 32 1 32 33
M  V30 33 1 17 34
M  V30 34 2 34 35
M  V30 35 1 4 36
M  V30 36 2 36 37
M  V30 37 1 37 1
M  V30 38 1 13 5
M  V30 39 1 35 14
M  V30 40 1 11 7
M  V30 41 1 33 19
M  V30 42 1 31 23
M  V30 43 1 30 25
M  V30 44 1 1 38
M  V30 45 1 2 39
M  V30 46 1 3 40
M  V30 47 1 6 41
M  V30 48 1 8 42
M  V30 49 1 9 43
M  V30 50 1 15 44
M  V30 51 1 16 45
M  V30 52 1 18 46
M  V30 53 1 18 47
M  V30 54 1 20 48
M  V30 55 1 20 49
M  V30 56 1 21 50
M  V30 57 1 21 51
M  V30 58 1 22 52
M  V30 59 1 26 53
M  V30 60 1 27 54
M  V30 61 1 29 55
M  V30 62 1 31 56
M  V30 63 1 32 57
M  V30 64 1 32 58
M  V30 65 1 33 59
M  V30 66 1 33 60
M  V30 67 1 34 61
M  V30 68 1 35 62
M  V30 69 1 36 63
M  V30 70 1 37 64
M  V30 END BOND
M  V30 END CTAB
M  END
>  <Dataset>  (52) 
ChEMBL_Kinases

>  <Ligand_Instance>  (52) 
nan

>  <PDB_ID>  (52) 
nan

>  <Standardized_SMILES>  (52) 
c1ccc(-c2cn3ccnc3nc2-c2ccc(CN3CCC(c4nc5ccncc5[nH]4)CC3)cc2)cc1

>  <Name>  (52) 
nan

>  <Pocket>  (52) 
nan

>  <ATP_Site>  (52) 
nan

>  <Peripheral>  (52) 
nan

>  <Num_H_Atoms_ProtBoundConf>  (52) 
nan

>  <Num_Resolved_Atoms>  (52) 
nan

>  <Num_Not_Resolved_Atoms>  (52) 
nan

$$$$
CHEMBL3667044
     RDKit          3D

  0  0  0  0  0  0  0  0  0  0999 V3000
M  V30 BEGIN CTAB
M  V30 COUNTS 61 67 0 0 0
M  V30 BEGIN ATOM
M  V30 1 Cl 6.395566 -5.904845 1.843928 0
M  V30 2 C 6.209946 -4.288110 2.478314 0
M  V30 3 C 6.907707 -3.630571 3.473310 0
M  V30 4 N 6.397360 -2.399517 3.604475 0
M  V30 5 C 5.375738 -2.232428 2.714534 0
M  V30 6 N 4.559874 -1.192142 2.459123 0
M  V30 7 C 3.592960 -1.266802 1.500440 0
M  V30 8 C 2.807840 -0.046601 1.364887 0
M  V30 9 C 2.106705 0.298441 2.528891 0
M  V30 10 C 1.309845 1.450025 2.543567 0
M  V30 11 C 1.185310 2.281929 1.423145 0
M  V30 12 C 0.337463 3.479481 1.489825 0
M  V30 13 N -1.024513 3.304549 1.119951 0
M  V30 14 C -1.837326 2.382930 1.841508 0
M  V30 15 C -1.877130 1.426457 0.654898 0
M  V30 16 C -3.220194 0.986500 0.239753 0
M  V30 17 N -4.308051 1.803730 0.136648 0
M  V30 18 N -5.350864 1.059002 -0.265622 0
M  V30 19 C -4.912111 -0.200263 -0.408598 0
M  V30 20 C -5.668797 -1.374401 -0.825967 0
M  V30 21 C -7.008076 -1.350673 -1.148032 0
M  V30 22 C -7.725038 -2.452397 -1.541290 0
M  V30 23 C -7.061820 -3.672827 -1.621390 0
M  V30 24 C -5.717977 -3.681328 -1.295245 0
M  V30 25 N -5.036981 -2.563000 -0.907420 0
M  V30 26 N -3.602922 -0.270566 -0.103200 0
M  V30 27 C -1.339558 2.623258 -0.093934 0
M  V30 28 C 1.903508 1.883003 0.309435 0
M  V30 29 C 2.693999 0.752031 0.274792 0
M  V30 30 C 3.489056 -2.454021 0.805768 0
M  V30 31 C 2.434482 -2.459269 -0.201477 0
M  V30 32 C 1.091595 -2.302343 0.159584 0
M  V30 33 C 0.167926 -2.322455 -0.867780 0
M  V30 34 C 0.553253 -2.490344 -2.194270 0
M  V30 35 C 1.900610 -2.643279 -2.511125 0
M  V30 36 C 2.844335 -2.627547 -1.510062 0
M  V30 37 C 4.343236 -3.498065 1.095760 0
M  V30 38 N 5.290388 -3.401699 2.046537 0
M  V30 39 H 7.726010 -4.070340 4.032768 0
M  V30 40 H 2.155060 -0.306342 3.449342 0
M  V30 41 H 0.789386 1.662930 3.484616 0
M  V30 42 H 0.772271 4.264026 0.828094 0
M  V30 43 H 0.372777 3.843497 2.549394 0
M  V30 44 H -2.889278 2.761880 1.987695 0
M  V30 45 H -1.479156 1.952427 2.772221 0
M  V30 46 H -1.155978 0.606788 0.668442 0
M  V30 47 H -7.549853 -0.394209 -1.090698 0
M  V30 48 H -8.760891 -2.456250 -1.794808 0
M  V30 49 H -7.474524 -4.621041 -1.909886 0
M  V30 50 H -5.055870 -4.560192 -1.307851 0
M  V30 51 H -2.952387 -1.072635 -0.103736 0
M  V30 52 H -0.532414 2.446682 -0.811708 0
M  V30 53 H -2.223122 3.142935 -0.569483 0
M  V30 54 H 1.850004 2.476257 -0.574946 0
M  V30 55 H 3.252782 0.444927 -0.597809 0
M  V30 56 H 0.832480 -2.174100 1.204206 0
M  V30 57 H -0.876363 -2.202846 -0.614624 0
M  V30 58 H -0.250911 -2.490787 -2.917110 0
M  V30 59 H 2.149793 -2.772177 -3.570406 0
M  V30 60 H 3.884528 -2.748218 -1.780376 0
M  V30 61 H 4.180499 -4.399671 0.488431 0
M  V30 END ATOM
M  V30 BEGIN BOND
M  V30 1 1 1 2
M  V30 2 2 2 3
M  V30 3 1 3 4
M  V30 4 2 4 5
M  V30 5 1 5 6
M  V30 6 2 6 7
M  V30 7 1 7 8
M  V30 8 2 8 9
M  V30 9 1 9 10
M  V30 10 2 10 11
M  V30 11 1 11 12
M  V30 12 1 12 13
M  V30 13 1 13 14
M  V30 14 1 14 15
M  V30 15 1 15 16
M  V30 16 2 16 17
M  V30 17 1 17 18
M  V30 18 2 18 19
M  V30 19 1 19 20
M  V30 20 2 20 21
M  V30 21 1 21 22
M  V30 22 2 22 23
M  V30 23 1 23 24
M  V30 24 2 24 25
M  V30 25 1 19 26
M  V30 26 1 15 27
M  V30 27 1 11 28
M  V30 28 2 28 29
M  V30 29 1 7 30
M  V30 30 1 30 31
M  V30 31 2 31 32
M  V30 32 1 32 33
M  V30 33 2 33 34
M  V30 34 1 34 35
M  V30 35 2 35 36
M  V30 36 2 30 37
M  V30 37 1 37 38
M  V30 38 1 38 2
M  V30 39 1 38 5
M  V30 40 1 29 8
M  V30 41 1 36 31
M  V30 42 1 27 13
M  V30 43 1 26 16
M  V30 44 1 25 20
M  V30 45 1 3 39
M  V30 46 1 9 40
M  V30 47 1 10 41
M  V30 48 1 12 42
M  V30 49 1 12 43
M  V30 50 1 14 44
M  V30 51 1 14 45
M  V30 52 1 15 46
M  V30 53 1 21 47
M  V30 54 1 22 48
M  V30 55 1 23 49
M  V30 56 1 24 50
M  V30 57 1 26 51
M  V30 58 1 27 52
M  V30 59 1 27 53
M  V30 60 1 28 54
M  V30 61 1 29 55
M  V30 62 1 32 56
M  V30 63 1 33 57
M  V30 64 1 34 58
M  V30 65 1 35 59
M  V30 66 1 36 60
M  V30 67 1 37 61
M  V30 END BOND
M  V30 END CTAB
M  END
>  <Dataset>  (53) 
ChEMBL_Kinases

>  <Ligand_Instance>  (53) 
nan

>  <PDB_ID>  (53) 
nan

>  <Standardized_SMILES>  (53) 
Clc1cnc2nc(-c3ccc(CN4CC(c5nnc(-c6ccccn6)[nH]5)C4)cc3)c(-c3ccccc3)cn12

>  <Name>  (53) 
nan

>  <Pocket>  (53) 
nan

>  <ATP_Site>  (53) 
nan

>  <Peripheral>  (53) 
nan

>  <Num_H_Atoms_ProtBoundConf>  (53) 
nan

>  <Num_Resolved_Atoms>  (53) 
nan

>  <Num_Not_Resolved_Atoms>  (53) 
nan

$$$$
CHEMBL4094447
     RDKit          3D

  0  0  0  0  0  0  0  0  0  0999 V3000
M  V30 BEGIN CTAB
M  V30 COUNTS 54 57 0 0 0
M  V30 BEGIN ATOM
M  V30 1 C 2.551310 -3.753430 -1.495733 0
M  V30 2 N 2.164604 -4.368260 -0.237697 0
M  V30 3 C 2.284733 -3.754324 0.976213 0
M  V30 4 C 2.825151 -2.385852 1.184177 0
M  V30 5 N 1.813102 -1.378661 1.122706 0
M  V30 6 C 2.109391 -0.002129 1.293263 0
M  V30 7 C 3.398079 0.431779 1.527928 0
M  V30 8 C 3.617933 1.778375 1.683759 0
M  V30 9 C 2.624306 2.756912 1.622253 0
M  V30 10 C 1.344364 2.306569 1.387369 0
M  V30 11 C 0.272819 3.293859 1.313305 0
M  V30 12 O 0.609581 4.512978 1.466613 0
M  V30 13 N -1.083001 3.047087 1.092173 0
M  V30 14 C -2.084482 4.087399 1.031689 0
M  V30 15 C -3.408494 3.501398 0.799145 0
M  V30 16 C -3.996619 3.545763 -0.467364 0
M  V30 17 C -5.224108 3.003468 -0.711571 0
M  V30 18 C -5.929217 2.389599 0.290318 0
M  V30 19 C -5.315198 2.367257 1.522235 0
M  V30 20 C -4.067992 2.890848 1.874829 0
M  V30 21 C -3.536952 2.800668 3.226376 0
M  V30 22 F -4.492755 2.124953 4.003133 0
M  V30 23 F -2.377121 2.162563 3.432085 0
M  V30 24 F -3.522234 4.097520 3.760470 0
M  V30 25 C 1.119794 0.955818 1.230546 0
M  V30 26 N 1.827766 -4.616552 1.931489 0
M  V30 27 N 1.428775 -5.749197 1.330157 0
M  V30 28 C 1.642099 -5.581348 -0.004095 0
M  V30 29 C 1.346084 -6.574979 -1.025898 0
M  V30 30 C 0.785939 -7.800711 -0.732765 0
M  V30 31 C 0.523703 -8.716915 -1.754048 0
M  V30 32 N 0.807082 -8.433730 -3.041880 0
M  V30 33 C 1.352623 -7.230247 -3.293314 0
M  V30 34 N 1.608742 -6.342883 -2.320702 0
M  V30 35 H 3.280943 -2.941515 -1.305572 0
M  V30 36 H 1.678487 -3.361311 -2.059825 0
M  V30 37 H 3.061873 -4.461276 -2.180331 0
M  V30 38 H 3.236673 -2.337428 2.236211 0
M  V30 39 H 3.682837 -2.144320 0.528190 0
M  V30 40 H 0.824774 -1.662067 0.946472 0
M  V30 41 H 4.220186 -0.270614 1.588906 0
M  V30 42 H 4.655935 2.081297 1.868438 0
M  V30 43 H 2.913251 3.782270 1.759439 0
M  V30 44 H -1.320829 2.022131 0.967979 0
M  V30 45 H -1.818183 4.702051 0.137666 0
M  V30 46 H -2.041135 4.806362 1.866164 0
M  V30 47 H -3.469467 4.027111 -1.299623 0
M  V30 48 H -5.666116 3.045897 -1.696862 0
M  V30 49 H -6.890139 1.947116 0.166259 0
M  V30 50 H -5.865479 1.880036 2.334653 0
M  V30 51 H 0.115660 0.579993 1.044762 0
M  V30 52 H 0.552760 -8.046440 0.284895 0
M  V30 53 H 0.084049 -9.678833 -1.521782 0
M  V30 54 H 1.635072 -6.859509 -4.274505 0
M  V30 END ATOM
M  V30 BEGIN BOND
M  V30 1 1 1 2
M  V30 2 1 2 3
M  V30 3 1 3 4
M  V30 4 1 4 5
M  V30 5 1 5 6
M  V30 6 2 6 7
M  V30 7 1 7 8
M  V30 8 2 8 9
M  V30 9 1 9 10
M  V30 10 1 10 11
M  V30 11 2 11 12
M  V30 12 1 11 13
M  V30 13 1 13 14
M  V30 14 1 14 15
M  V30 15 2 15 16
M  V30 16 1 16 17
M  V30 17 2 17 18
M  V30 18 1 18 19
M  V30 19 2 19 20
M  V30 20 1 20 21
M  V30 21 1 21 22
M  V30 22 1 21 23
M  V30 23 1 21 24
M  V30 24 2 10 25
M  V30 25 2 3 26
M  V30 26 1 26 27
M  V30 27 2 27 28
M  V30 28 1 28 29
M  V30 29 2 29 30
M  V30 30 1 30 31
M  V30 31 2 31 32
M  V30 32 1 32 33
M  V30 33 2 33 34
M  V30 34 1 28 2
M  V30 35 1 34 29
M  V30 36 1 25 6
M  V30 37 1 20 15
M  V30 38 1 1 35
M  V30 39 1 1 36
M  V30 40 1 1 37
M  V30 41 1 4 38
M  V30 42 1 4 39
M  V30 43 1 5 40
M  V30 44 1 7 41
M  V30 45 1 8 42
M  V30 46 1 9 43
M  V30 47 1 13 44
M  V30 48 1 14 45
M  V30 49 1 14 46
M  V30 50 1 16 47
M  V30 51 1 17 48
M  V30 52 1 18 49
M  V30 53 1 19 50
M  V30 54 1 25 51
M  V30 55 1 30 52
M  V30 56 1 31 53
M  V30 57 1 33 54
M  V30 END BOND
M  V30 END CTAB
M  END
>  <Dataset>  (54) 
ChEMBL_Kinases

>  <Ligand_Instance>  (54) 
nan

>  <PDB_ID>  (54) 
nan

>  <Standardized_SMILES>  (54) 
Cn1c(CNc2cccc(C(=O)NCc3ccccc3C(F)(F)F)c2)nnc1-c1ccncn1

>  <Name>  (54) 
nan

>  <Pocket>  (54) 
nan

>  <ATP_Site>  (54) 
nan

>  <Peripheral>  (54) 
nan

>  <Num_H_Atoms_ProtBoundConf>  (54) 
nan

>  <Num_Resolved_Atoms>  (54) 
nan

>  <Num_Not_Resolved_Atoms>  (54) 
nan

$$$$
CHEMBL4094220
     RDKit          3D

  0  0  0  0  0  0  0  0  0  0999 V3000
M  V30 BEGIN CTAB
M  V30 COUNTS 69 73 0 0 0
M  V30 BEGIN ATOM
M  V30 1 C 6.721649 -2.491985 3.352689 0
M  V30 2 C 5.805427 -2.753804 2.443549 0
M  V30 3 C 5.540074 -1.743373 1.438798 0
M  V30 4 O 4.671235 -1.995183 0.571757 0
M  V30 5 N 6.177495 -0.480182 1.342206 0
M  V30 6 C 5.601401 0.190182 0.197497 0
M  V30 7 C 6.106010 0.121490 -1.060948 0
M  V30 8 C 5.430506 0.808996 -2.058954 0
M  V30 9 C 4.291559 1.542836 -1.826236 0
M  V30 10 C 3.773928 1.616661 -0.550252 0
M  V30 11 C 2.558093 2.390365 -0.360870 0
M  V30 12 O 2.012974 2.898860 -1.364168 0
M  V30 13 N 2.060431 2.522656 0.947898 0
M  V30 14 C 0.945559 3.155208 1.562472 0
M  V30 15 C 0.802182 4.432163 2.045698 0
M  V30 16 C -0.368126 4.860010 2.628264 0
M  V30 17 C -1.448449 4.014299 2.748656 0
M  V30 18 C -1.394128 2.693669 2.283816 0
M  V30 19 N -2.458972 1.756140 2.388619 0
M  V30 20 C -2.309439 0.465185 1.801402 0
M  V30 21 C -2.771205 -0.049173 0.609568 0
M  V30 22 C -2.442542 -1.349584 0.297722 0
M  V30 23 C -2.964810 -1.862873 -0.962033 0
M  V30 24 C -3.737802 -3.024770 -0.842786 0
M  V30 25 C -4.125957 -3.847166 0.325613 0
M  V30 26 C -3.619333 -5.132591 0.224407 0
M  V30 27 C -3.845799 -6.083228 1.198848 0
M  V30 28 C -4.602286 -5.721950 2.298738 0
M  V30 29 F -4.884922 -6.579121 3.314684 0
M  V30 30 C -5.099393 -4.435738 2.382274 0
M  V30 31 C -4.877556 -3.478511 1.412238 0
M  V30 32 N -4.132202 -3.340243 -2.110559 0
M  V30 33 C -3.632120 -2.424711 -2.975621 0
M  V30 34 S -3.810722 -2.318112 -4.757821 0
M  V30 35 C -5.291433 -1.328113 -5.182001 0
M  V30 36 N -2.916093 -1.520728 -2.261790 0
M  V30 37 C -2.170551 -0.343139 -2.658568 0
M  V30 38 C -1.682680 -2.146909 1.114134 0
M  V30 39 C -1.242016 -1.592556 2.296980 0
M  V30 40 N -1.556545 -0.319636 2.615311 0
M  V30 41 C -0.187715 2.341112 1.712673 0
M  V30 42 C 4.450803 0.931795 0.433131 0
M  V30 43 H 7.416026 -2.481534 4.170277 0
M  V30 44 H 7.440931 -2.388532 4.149064 0
M  V30 45 H 5.279404 -3.692098 2.460061 0
M  V30 46 H 6.903940 -0.246610 2.052350 0
M  V30 47 H 6.997930 -0.459199 -1.215081 0
M  V30 48 H 5.817718 0.766735 -3.068520 0
M  V30 49 H 3.829142 2.047515 -2.660802 0
M  V30 50 H 2.460975 2.140894 1.820631 0
M  V30 51 H 1.712451 5.036794 1.909107 0
M  V30 52 H -0.402694 5.866897 2.979857 0
M  V30 53 H -2.377507 4.327140 3.200908 0
M  V30 54 H -3.290433 2.119073 2.912323 0
M  V30 55 H -3.352036 0.661925 0.054838 0
M  V30 56 H -3.009397 -5.518047 -0.608138 0
M  V30 57 H -3.447802 -7.110049 1.132711 0
M  V30 58 H -5.705213 -4.114101 3.244314 0
M  V30 59 H -5.218460 -2.465238 1.389961 0
M  V30 60 H -5.906582 -1.260579 -4.248154 0
M  V30 61 H -4.974993 -0.312122 -5.493972 0
M  V30 62 H -5.870876 -1.806937 -5.979602 0
M  V30 63 H -2.791316 0.573014 -2.621297 0
M  V30 64 H -1.819849 -0.510691 -3.713064 0
M  V30 65 H -1.236539 -0.236322 -2.048429 0
M  V30 66 H -1.491851 -3.165747 0.747951 0
M  V30 67 H -0.641509 -2.236241 2.933021 0
M  V30 68 H -0.151183 1.302525 1.349596 0
M  V30 69 H 4.062032 0.977507 1.437375 0
M  V30 END ATOM
M  V30 BEGIN BOND
M  V30 1 2 1 2
M  V30 2 1 2 3
M  V30 3 2 3 4
M  V30 4 1 3 5
M  V30 5 1 5 6
M  V30 6 2 6 7
M  V30 7 1 7 8
M  V30 8 2 8 9
M  V30 9 1 9 10
M  V30 10 1 10 11
M  V30 11 2 11 12
M  V30 12 1 11 13
M  V30 13 1 13 14
M  V30 14 2 14 15
M  V30 15 1 15 16
M  V30 16 2 16 17
M  V30 17 1 17 18
M  V30 18 1 18 19
M  V30 19 1 19 20
M  V30 20 2 20 21
M  V30 21 1 21 22
M  V30 22 1 22 23
M  V30 23 2 23 24
M  V30 24 1 24 25
M  V30 25 2 25 26
M  V30 26 1 26 27
M  V30 27 2 27 28
M  V30 28 1 28 29
M  V30 29 1 28 30
M  V30 30 2 30 31
M  V30 31 1 24 32
M  V30 32 2 32 33
M  V30 33 1 33 34
M  V30 34 1 34 35
M  V30 35 1 33 36
M  V30 36 1 36 37
M  V30 37 2 22 38
M  V30 38 1 38 39
M  V30 39 2 39 40
M  V30 40 2 18 41
M  V30 41 2 10 42
M  V30 42 1 42 6
M  V30 43 1 41 14
M  V30 44 1 40 20
M  V30 45 1 36 23
M  V30 46 1 31 25
M  V30 47 1 1 43
M  V30 48 1 1 44
M  V30 49 1 2 45
M  V30 50 1 5 46
M  V30 51 1 7 47
M  V30 52 1 8 48
M  V30 53 1 9 49
M  V30 54 1 13 50
M  V30 55 1 15 51
M  V30 56 1 16 52
M  V30 57 1 17 53
M  V30 58 1 19 54
M  V30 59 1 21 55
M  V30 60 1 26 56
M  V30 61 1 27 57
M  V30 62 1 30 58
M  V30 63 1 31 59
M  V30 64 1 35 60
M  V30 65 1 35 61
M  V30 66 1 35 62
M  V30 67 1 37 63
M  V30 68 1 37 64
M  V30 69 1 37 65
M  V30 70 1 38 66
M  V30 71 1 39 67
M  V30 72 1 41 68
M  V30 73 1 42 69
M  V30 END BOND
M  V30 END CTAB
M  END
>  <Dataset>  (55) 
ChEMBL_Kinases

>  <Ligand_Instance>  (55) 
nan

>  <PDB_ID>  (55) 
nan

>  <Standardized_SMILES>  (55) 
C=CC(=O)Nc1cccc(C(=O)Nc2cccc(Nc3cc(-c4c(-c5ccc(F)cc5)nc(SC)n4C)ccn3)c2)c1

>  <Name>  (55) 
nan

>  <Pocket>  (55) 
nan

>  <ATP_Site>  (55) 
nan

>  <Peripheral>  (55) 
nan

>  <Num_H_Atoms_ProtBoundConf>  (55) 
nan

>  <Num_Resolved_Atoms>  (55) 
nan

>  <Num_Not_Resolved_Atoms>  (55) 
nan

$$$$
CHEMBL4094080
     RDKit          3D

  0  0  0  0  0  0  0  0  0  0999 V3000
M  V30 BEGIN CTAB
M  V30 COUNTS 42 46 0 0 0
M  V30 BEGIN ATOM
M  V30 1 N -1.213153 -5.722723 3.022376 0
M  V30 2 C -0.597144 -5.193695 1.823204 0 CFG=1
M  V30 3 C -1.287911 -3.941897 1.322972 0
M  V30 4 C 0.089249 -3.372174 1.029371 0 CFG=2
M  V30 5 O 0.546284 -3.660669 -0.273349 0
M  V30 6 C 1.046200 -2.639362 -1.104902 0
M  V30 7 C 1.509800 -2.845449 -2.387992 0
M  V30 8 C 1.983367 -1.784097 -3.134038 0
M  V30 9 C 2.000950 -0.488359 -2.604007 0
M  V30 10 N 2.395852 0.702065 -3.090559 0
M  V30 11 C 2.183461 1.626970 -2.134055 0
M  V30 12 C 1.643454 0.975236 -1.035390 0
M  V30 13 C 1.234840 1.524052 0.258511 0
M  V30 14 C 1.520291 0.978123 1.493610 0
M  V30 15 C 1.080103 1.587348 2.650552 0
M  V30 16 C 0.345755 2.753882 2.604179 0
M  V30 17 C -0.117307 3.400376 3.747530 0
M  V30 18 N -0.830429 4.535640 3.670443 0
M  V30 19 C -1.122376 5.087852 2.488084 0
M  V30 20 C -0.677680 4.472257 1.320877 0
M  V30 21 C 0.058490 3.303269 1.361441 0
M  V30 22 C 0.489282 2.708551 0.209382 0
M  V30 23 N 1.534160 -0.348214 -1.341994 0
M  V30 24 N 1.083489 -1.369966 -0.637215 0
M  V30 25 C 0.634821 -4.333931 2.066156 0
M  V30 26 H -2.219066 -5.450509 3.085651 0
M  V30 27 H -1.059874 -6.749097 3.074835 0
M  V30 28 H -0.469044 -5.947581 0.998494 0
M  V30 29 H -1.911814 -4.175976 0.446815 0
M  V30 30 H -1.778546 -3.415548 2.164755 0
M  V30 31 H 0.172589 -2.292701 1.294279 0
M  V30 32 H 1.469388 -3.870913 -2.739335 0
M  V30 33 H 2.342815 -1.969722 -4.140329 0
M  V30 34 H 2.379519 2.707217 -2.158444 0
M  V30 35 H 2.098980 0.062440 1.483054 0
M  V30 36 H 1.317636 1.138555 3.605988 0
M  V30 37 H 0.160582 2.891153 4.657074 0
M  V30 38 H -1.705042 6.014076 2.442814 0
M  V30 39 H -0.901625 4.901076 0.345150 0
M  V30 40 H 0.248585 3.162437 -0.747143 0
M  V30 41 H 1.591941 -4.825067 1.801559 0
M  V30 42 H 0.594022 -3.927470 3.091310 0
M  V30 END ATOM
M  V30 BEGIN BOND
M  V30 1 1 1 2
M  V30 2 1 2 3
M  V30 3 1 3 4
M  V30 4 1 4 5
M  V30 5 1 5 6
M  V30 6 1 6 7
M  V30 7 2 7 8
M  V30 8 1 8 9
M  V30 9 2 9 10
M  V30 10 1 10 11
M  V30 11 2 11 12
M  V30 12 1 12 13
M  V30 13 2 13 14
M  V30 14 1 14 15
M  V30 15 2 15 16
M  V30 16 1 16 17
M  V30 17 2 17 18
M  V30 18 1 18 19
M  V30 19 2 19 20
M  V30 20 1 20 21
M  V30 21 2 21 22
M  V30 22 1 12 23
M  V30 23 1 23 24
M  V30 24 1 4 25
M  V30 25 1 25 2
M  V30 26 2 24 6
M  V30 27 1 23 9
M  V30 28 1 22 13
M  V30 29 1 21 16
M  V30 30 1 1 26
M  V30 31 1 1 27
M  V30 32 1 2 28 CFG=3
M  V30 33 1 3 29
M  V30 34 1 3 30
M  V30 35 1 4 31 CFG=1
M  V30 36 1 7 32
M  V30 37 1 8 33
M  V30 38 1 11 34
M  V30 39 1 14 35
M  V30 40 1 15 36
M  V30 41 1 17 37
M  V30 42 1 19 38
M  V30 43 1 20 39
M  V30 44 1 22 40
M  V30 45 1 25 41
M  V30 46 1 25 42
M  V30 END BOND
M  V30 END CTAB
M  END
>  <Dataset>  (56) 
ChEMBL_Kinases

>  <Ligand_Instance>  (56) 
nan

>  <PDB_ID>  (56) 
nan

>  <Standardized_SMILES>  (56) 
N[C@H]1C[C@H](Oc2ccc3ncc(-c4ccc5cnccc5c4)n3n2)C1

>  <Name>  (56) 
nan

>  <Pocket>  (56) 
nan

>  <ATP_Site>  (56) 
nan

>  <Peripheral>  (56) 
nan

>  <Num_H_Atoms_ProtBoundConf>  (56) 
nan

>  <Num_Resolved_Atoms>  (56) 
nan

>  <Num_Not_Resolved_Atoms>  (56) 
nan

$$$$
CHEMBL4093686
     RDKit          3D

  0  0  0  0  0  0  0  0  0  0999 V3000
M  V30 BEGIN CTAB
M  V30 COUNTS 32 34 0 0 0
M  V30 BEGIN ATOM
M  V30 1 Cl -2.278571 -0.176119 3.892570 0
M  V30 2 C -1.163060 -1.502875 3.645002 0
M  V30 3 C -0.524997 -2.076284 4.725228 0
M  V30 4 C 0.347929 -3.117822 4.509659 0
M  V30 5 C 0.602927 -3.601860 3.261294 0
M  V30 6 C -0.018435 -3.054967 2.132428 0
M  V30 7 N 0.236471 -3.559291 0.833833 0
M  V30 8 C -0.272766 -3.133971 -0.437673 0
M  V30 9 C 0.185221 -1.756685 -0.761177 0
M  V30 10 N -0.173736 -0.471673 -0.633205 0
M  V30 11 C 0.729985 0.367099 -1.167743 0
M  V30 12 C 0.514868 1.814062 -1.126386 0
M  V30 13 C 1.441440 2.737849 -0.684096 0
M  V30 14 C 1.178230 4.090382 -0.669758 0
M  V30 15 N -0.022601 4.539351 -1.100275 0
M  V30 16 C -0.943843 3.640906 -1.538284 0
M  V30 17 C -0.725841 2.292160 -1.569967 0
M  V30 18 N 1.701519 -0.433972 -1.653632 0
M  V30 19 N 1.385357 -1.703864 -1.415729 0
M  V30 20 C -0.883695 -2.015132 2.397288 0
M  V30 21 H -0.729037 -1.689444 5.720217 0
M  V30 22 H 0.854016 -3.573496 5.361627 0
M  V30 23 H 1.300059 -4.424002 3.152862 0
M  V30 24 H 0.903463 -4.375031 0.775667 0
M  V30 25 H -0.110027 -3.844911 -1.243110 0
M  V30 26 H -1.406163 -3.057936 -0.351601 0
M  V30 27 H 2.363480 2.263491 -0.364763 0
M  V30 28 H 1.968955 4.717034 -0.306330 0
M  V30 29 H -1.908140 4.025284 -1.881923 0
M  V30 30 H -1.520220 1.652309 -1.935963 0
M  V30 31 H 2.077326 -2.380905 -1.756251 0
M  V30 32 H -1.412228 -1.533986 1.597567 0
M  V30 END ATOM
M  V30 BEGIN BOND
M  V30 1 1 1 2
M  V30 2 2 2 3
M  V30 3 1 3 4
M  V30 4 2 4 5
M  V30 5 1 5 6
M  V30 6 1 6 7
M  V30 7 1 7 8
M  V30 8 1 8 9
M  V30 9 2 9 10
M  V30 10 1 10 11
M  V30 11 1 11 12
M  V30 12 2 12 13
M  V30 13 1 13 14
M  V30 14 2 14 15
M  V30 15 1 15 16
M  V30 16 2 16 17
M  V30 17 2 11 18
M  V30 18 1 18 19
M  V30 19 2 6 20
M  V30 20 1 20 2
M  V30 21 1 19 9
M  V30 22 1 17 12
M  V30 23 1 3 21
M  V30 24 1 4 22
M  V30 25 1 5 23
M  V30 26 1 7 24
M  V30 27 1 8 25
M  V30 28 1 8 26
M  V30 29 1 13 27
M  V30 30 1 14 28
M  V30 31 1 16 29
M  V30 32 1 17 30
M  V30 33 1 19 31
M  V30 34 1 20 32
M  V30 END BOND
M  V30 END CTAB
M  END
>  <Dataset>  (57) 
ChEMBL_Kinases

>  <Ligand_Instance>  (57) 
nan

>  <PDB_ID>  (57) 
nan

>  <Standardized_SMILES>  (57) 
Clc1cccc(NCc2nc(-c3ccncc3)n[nH]2)c1

>  <Name>  (57) 
nan

>  <Pocket>  (57) 
nan

>  <ATP_Site>  (57) 
nan

>  <Peripheral>  (57) 
nan

>  <Num_H_Atoms_ProtBoundConf>  (57) 
nan

>  <Num_Resolved_Atoms>  (57) 
nan

>  <Num_Not_Resolved_Atoms>  (57) 
nan

$$$$
CHEMBL3421973
     RDKit          3D

  0  0  0  0  0  0  0  0  0  0999 V3000
M  V30 BEGIN CTAB
M  V30 COUNTS 52 56 0 0 0
M  V30 BEGIN ATOM
M  V30 1 C -0.711601 -3.316832 -0.965512 0
M  V30 2 N 0.520950 -3.208658 -0.238113 0
M  V30 3 C 0.454589 -3.803405 1.082001 0
M  V30 4 C 1.819956 -3.612616 1.770435 0
M  V30 5 N 2.607842 -2.650108 1.017892 0
M  V30 6 C 3.056347 -1.249864 1.166227 0
M  V30 7 C 3.880733 -0.696820 0.247947 0
M  V30 8 C 3.785480 0.673841 0.261357 0
M  V30 9 C 2.893246 1.197431 1.180567 0
M  V30 10 N 2.695652 2.620032 0.809163 0
M  V30 11 C 1.236084 2.700384 1.018966 0
M  V30 12 N 0.699788 3.473243 1.974224 0
M  V30 13 C -0.627665 3.435161 2.203170 0
M  V30 14 C -1.294790 2.507106 1.344644 0
M  V30 15 Cl -2.913554 2.843752 2.027559 0
M  V30 16 C -0.821339 1.644806 0.313314 0
M  V30 17 C -2.127259 1.154094 0.100374 0
M  V30 18 C -2.605666 1.512773 -1.142877 0
M  V30 19 N -3.793120 0.932131 -1.450388 0
M  V30 20 C -4.106013 0.179452 -0.367159 0
M  V30 21 C -5.162316 -0.621986 0.120088 0
M  V30 22 N -5.114411 -1.132938 1.344593 0
M  V30 23 C -4.121981 -0.982388 2.216703 0
M  V30 24 C -3.027752 -0.206237 1.820967 0
M  V30 25 C -3.099242 0.318326 0.560126 0
M  V30 26 N 0.464852 1.893969 0.299635 0
M  V30 27 C 2.100499 0.531426 2.094762 0
M  V30 28 C 2.161152 -0.880912 2.126832 0
M  V30 29 C 2.902410 -3.198128 -0.341604 0
M  V30 30 C 1.643372 -3.812257 -0.952066 0
M  V30 31 H -0.487136 -3.490406 -2.062747 0
M  V30 32 H -1.200784 -2.299766 -0.974190 0
M  V30 33 H -1.390984 -4.087449 -0.566565 0
M  V30 34 H -0.363070 -3.332975 1.634352 0
M  V30 35 H 0.237002 -4.875996 1.032107 0
M  V30 36 H 1.567946 -3.266426 2.768907 0
M  V30 37 H 2.375772 -4.531836 1.802404 0
M  V30 38 H 4.505045 -1.334560 -0.339442 0
M  V30 39 H 4.422893 1.175630 -0.478258 0
M  V30 40 H 3.275607 3.360358 0.484712 0
M  V30 41 H -0.724271 4.169140 2.968125 0
M  V30 42 H -2.439443 2.094271 -2.048805 0
M  V30 43 H -4.510519 0.891887 -2.244617 0
M  V30 44 H -5.927495 -0.713571 -0.654928 0
M  V30 45 H -4.186029 -1.439635 3.198734 0
M  V30 46 H -2.246632 -0.110271 2.524664 0
M  V30 47 H 1.526214 1.246089 2.730343 0
M  V30 48 H 1.529500 -1.217970 2.864344 0
M  V30 49 H 3.802369 -3.754530 -0.412854 0
M  V30 50 H 3.017370 -2.252449 -0.976812 0
M  V30 51 H 1.668846 -4.888818 -0.890851 0
M  V30 52 H 1.515898 -3.482039 -2.018763 0
M  V30 END ATOM
M  V30 BEGIN BOND
M  V30 1 1 1 2
M  V30 2 1 2 3
M  V30 3 1 3 4
M  V30 4 1 4 5
M  V30 5 1 5 6
M  V30 6 2 6 7
M  V30 7 1 7 8
M  V30 8 2 8 9
M  V30 9 1 9 10
M  V30 10 1 10 11
M  V30 11 2 11 12
M  V30 12 1 12 13
M  V30 13 2 13 14
M  V30 14 1 14 15
M  V30 15 1 14 16
M  V30 16 1 16 17
M  V30 17 2 17 18
M  V30 18 1 18 19
M  V30 19 1 19 20
M  V30 20 2 20 21
M  V30 21 1 21 22
M  V30 22 2 22 23
M  V30 23 1 23 24
M  V30 24 2 24 25
M  V30 25 2 16 26
M  V30 26 1 9 27
M  V30 27 2 27 28
M  V30 28 1 5 29
M  V30 29 1 29 30
M  V30 30 1 30 2
M  V30 31 1 28 6
M  V30 32 1 26 11
M  V30 33 1 25 17
M  V30 34 1 25 20
M  V30 35 1 1 31
M  V30 36 1 1 32
M  V30 37 1 1 33
M  V30 38 1 3 34
M  V30 39 1 3 35
M  V30 40 1 4 36
M  V30 41 1 4 37
M  V30 42 1 7 38
M  V30 43 1 8 39
M  V30 44 1 10 40
M  V30 45 1 13 41
M  V30 46 1 18 42
M  V30 47 1 19 43
M  V30 48 1 21 44
M  V30 49 1 23 45
M  V30 50 1 24 46
M  V30 51 1 27 47
M  V30 52 1 28 48
M  V30 53 1 29 49
M  V30 54 1 29 50
M  V30 55 1 30 51
M  V30 56 1 30 52
M  V30 END BOND
M  V30 END CTAB
M  END
>  <Dataset>  (58) 
ChEMBL_Kinases

>  <Ligand_Instance>  (58) 
nan

>  <PDB_ID>  (58) 
nan

>  <Standardized_SMILES>  (58) 
CN1CCN(c2ccc(Nc3ncc(Cl)c(-c4c[nH]c5cnccc45)n3)cc2)CC1

>  <Name>  (58) 
nan

>  <Pocket>  (58) 
nan

>  <ATP_Site>  (58) 
nan

>  <Peripheral>  (58) 
nan

>  <Num_H_Atoms_ProtBoundConf>  (58) 
nan

>  <Num_Resolved_Atoms>  (58) 
nan

>  <Num_Not_Resolved_Atoms>  (58) 
nan

$$$$
CHEMBL4093545
     RDKit          3D

  0  0  0  0  0  0  0  0  0  0999 V3000
M  V30 BEGIN CTAB
M  V30 COUNTS 61 64 0 0 0
M  V30 BEGIN ATOM
M  V30 1 O 2.716717 -4.292169 -0.495889 0
M  V30 2 C 3.769996 -4.517114 0.171706 0
M  V30 3 C 4.451673 -3.738444 1.266534 0
M  V30 4 N 3.617720 -2.553545 1.459901 0
M  V30 5 C 3.389031 -1.634248 0.398677 0
M  V30 6 O 3.969981 -1.964351 -0.664592 0
M  V30 7 C 2.568442 -0.436279 0.528843 0
M  V30 8 C 1.915804 -0.046755 1.688254 0
M  V30 9 C 1.151280 1.099670 1.752680 0
M  V30 10 C 1.049694 1.867976 0.606490 0
M  V30 11 C 0.222795 3.091408 0.707086 0
M  V30 12 C 0.861613 4.188773 0.114702 0
M  V30 13 N 0.236108 5.384214 0.122786 0
M  V30 14 C -0.983284 5.547386 0.684751 0
M  V30 15 C -1.608450 4.466189 1.266429 0
M  V30 16 C -1.042331 3.209144 1.302990 0
M  V30 17 O -1.413688 2.004383 1.790609 0
M  V30 18 C -2.541329 1.573506 2.452073 0
M  V30 19 C -3.845313 1.698190 1.731473 0
M  V30 20 C -4.943870 1.161864 2.649841 0
M  V30 21 C -6.277102 1.295476 1.908093 0
M  V30 22 N -6.258255 0.347974 0.839187 0
M  V30 23 C -5.221623 0.666148 -0.090514 0
M  V30 24 C -3.857444 0.783987 0.522424 0
M  V30 25 C 1.678596 1.525823 -0.573003 0
M  V30 26 C 2.442833 0.355901 -0.592550 0
M  V30 27 N 4.338463 -5.764217 -0.275200 0
M  V30 28 C 3.502354 -6.302913 -1.319478 0
M  V30 29 C 3.624968 -6.064314 -2.672715 0
M  V30 30 C 2.716856 -6.679028 -3.527347 0
M  V30 31 C 1.727208 -7.500832 -3.025033 0
M  V30 32 C 1.600945 -7.741652 -1.677582 0
M  V30 33 C 2.511401 -7.126249 -0.812276 0
M  V30 34 H 4.450987 -4.308895 2.198262 0
M  V30 35 H 5.473679 -3.494871 0.922716 0
M  V30 36 H 3.165040 -2.356828 2.401838 0
M  V30 37 H 2.022099 -0.674136 2.556631 0
M  V30 38 H 0.674137 1.335381 2.692324 0
M  V30 39 H 1.832519 4.155667 -0.357044 0
M  V30 40 H -1.539208 6.473906 0.726199 0
M  V30 41 H -2.574580 4.468835 1.748707 0
M  V30 42 H -2.374065 0.479310 2.688508 0
M  V30 43 H -2.634267 2.024769 3.486515 0
M  V30 44 H -4.136128 2.717638 1.488083 0
M  V30 45 H -4.720930 0.105236 2.895583 0
M  V30 46 H -5.043784 1.713635 3.583397 0
M  V30 47 H -6.266152 2.314680 1.484044 0
M  V30 48 H -7.085482 1.155900 2.627567 0
M  V30 49 H -6.286242 -0.635269 1.126603 0
M  V30 50 H -5.439677 1.590385 -0.643187 0
M  V30 51 H -5.164753 -0.186022 -0.824567 0
M  V30 52 H -3.178654 1.219250 -0.244009 0
M  V30 53 H -3.423766 -0.172191 0.823092 0
M  V30 54 H 1.562486 2.162417 -1.430229 0
M  V30 55 H 2.917536 0.116879 -1.518903 0
M  V30 56 H 5.232359 -6.153225 0.149306 0
M  V30 57 H 4.423526 -5.413984 -2.957286 0
M  V30 58 H 2.827590 -6.480371 -4.590656 0
M  V30 59 H 1.027982 -7.970321 -3.719212 0
M  V30 60 H 0.797064 -8.400353 -1.353055 0
M  V30 61 H 2.361079 -7.353937 0.234853 0
M  V30 END ATOM
M  V30 BEGIN BOND
M  V30 1 2 1 2
M  V30 2 1 2 3
M  V30 3 1 3 4
M  V30 4 1 4 5
M  V30 5 2 5 6
M  V30 6 1 5 7
M  V30 7 2 7 8
M  V30 8 1 8 9
M  V30 9 2 9 10
M  V30 10 1 10 11
M  V30 11 2 11 12
M  V30 12 1 12 13
M  V30 13 2 13 14
M  V30 14 1 14 15
M  V30 15 2 15 16
M  V30 16 1 16 17
M  V30 17 1 17 18
M  V30 18 1 18 19
M  V30 19 1 19 20
M  V30 20 1 20 21
M  V30 21 1 21 22
M  V30 22 1 22 23
M  V30 23 1 23 24
M  V30 24 1 10 25
M  V30 25 2 25 26
M  V30 26 1 2 27
M  V30 27 1 27 28
M  V30 28 2 28 29
M  V30 29 1 29 30
M  V30 30 2 30 31
M  V30 31 1 31 32
M  V30 32 2 32 33
M  V30 33 1 26 7
M  V30 34 1 33 28
M  V30 35 1 16 11
M  V30 36 1 24 19
M  V30 37 1 3 34
M  V30 38 1 3 35
M  V30 39 1 4 36
M  V30 40 1 8 37
M  V30 41 1 9 38
M  V30 42 1 12 39
M  V30 43 1 14 40
M  V30 44 1 15 41
M  V30 45 1 18 42
M  V30 46 1 18 43
M  V30 47 1 19 44
M  V30 48 1 20 45
M  V30 49 1 20 46
M  V30 50 1 21 47
M  V30 51 1 21 48
M  V30 52 1 22 49
M  V30 53 1 23 50
M  V30 54 1 23 51
M  V30 55 1 24 52
M  V30 56 1 24 53
M  V30 57 1 25 54
M  V30 58 1 26 55
M  V30 59 1 27 56
M  V30 60 1 29 57
M  V30 61 1 30 58
M  V30 62 1 31 59
M  V30 63 1 32 60
M  V30 64 1 33 61
M  V30 END BOND
M  V30 END CTAB
M  END
>  <Dataset>  (59) 
ChEMBL_Kinases

>  <Ligand_Instance>  (59) 
nan

>  <PDB_ID>  (59) 
nan

>  <Standardized_SMILES>  (59) 
O=C(CNC(=O)c1ccc(-c2cnccc2OCC2CCNCC2)cc1)Nc1ccccc1

>  <Name>  (59) 
nan

>  <Pocket>  (59) 
nan

>  <ATP_Site>  (59) 
nan

>  <Peripheral>  (59) 
nan

>  <Num_H_Atoms_ProtBoundConf>  (59) 
nan

>  <Num_Resolved_Atoms>  (59) 
nan

>  <Num_Not_Resolved_Atoms>  (59) 
nan

$$$$
CHEMBL4093503
     RDKit          3D

  0  0  0  0  0  0  0  0  0  0999 V3000
M  V30 BEGIN CTAB
M  V30 COUNTS 48 53 0 0 0
M  V30 BEGIN ATOM
M  V30 1 C -0.311037 2.574574 1.288084 0
M  V30 2 C 1.118745 2.139462 1.350717 0 CFG=1
M  V30 3 C 1.468844 1.146926 2.386769 0
M  V30 4 C 2.836229 1.111569 2.710351 0
M  V30 5 C 3.405933 0.284683 3.653140 0
M  V30 6 C 2.609437 -0.590659 4.356069 0
M  V30 7 F 3.009503 -1.463447 5.308779 0
M  V30 8 C 1.258688 -0.610220 4.090722 0
M  V30 9 C 0.756921 0.239820 3.139190 0
M  V30 10 N 1.815632 2.038087 0.103842 0
M  V30 11 N 2.801461 2.915769 -0.201890 0
M  V30 12 N 3.344372 2.700076 -1.365569 0
M  V30 13 C 2.739475 1.640238 -1.920250 0
M  V30 14 C 2.952131 1.031012 -3.122318 0
M  V30 15 N 2.173656 -0.029034 -3.402365 0
M  V30 16 C 1.233286 -0.436192 -2.498322 0
M  V30 17 C 0.476043 -1.527723 -2.856517 0
M  V30 18 C -0.470607 -1.935393 -1.943144 0
M  V30 19 C -0.697331 -1.316643 -0.705383 0
M  V30 20 C -1.751642 -1.922069 0.098361 0
M  V30 21 C -2.483487 -1.100528 0.938270 0
M  V30 22 C -3.499191 -1.596877 1.733780 0
M  V30 23 C -3.782643 -2.964935 1.677685 0
M  V30 24 O -4.663921 -3.726166 2.293192 0
M  V30 25 C -4.524548 -4.985096 1.883924 0
M  V30 26 C -3.504077 -5.059314 0.955058 0
M  V30 27 C -3.040328 -3.764141 0.833461 0
M  V30 28 C -2.014314 -3.251152 0.032488 0
M  V30 29 C 0.108511 -0.233570 -0.435972 0
M  V30 30 C 1.057097 0.202468 -1.311970 0
M  V30 31 C 1.805925 1.268521 -0.976625 0
M  V30 32 H -0.926329 1.898025 1.910011 0
M  V30 33 H -0.725328 2.440521 0.243460 0
M  V30 34 H -0.529154 3.591232 1.644444 0
M  V30 35 H 1.573466 3.084529 1.858275 0
M  V30 36 H 3.556484 1.752653 2.224437 0
M  V30 37 H 4.448147 0.274165 3.883345 0
M  V30 38 H 0.515917 -1.240231 4.560934 0
M  V30 39 H -0.309652 0.266929 2.888036 0
M  V30 40 H 3.707272 1.385539 -3.809054 0
M  V30 41 H 0.634914 -2.011230 -3.794916 0
M  V30 42 H -1.050406 -2.794395 -2.250765 0
M  V30 43 H -2.256354 -0.039304 0.975230 0
M  V30 44 H -4.097889 -0.972173 2.410188 0
M  V30 45 H -5.171319 -5.783819 2.281365 0
M  V30 46 H -3.182109 -5.980306 0.459052 0
M  V30 47 H -1.480188 -3.921832 -0.596574 0
M  V30 48 H -0.192208 0.102442 0.513701 0
M  V30 END ATOM
M  V30 BEGIN BOND
M  V30 1 1 1 2
M  V30 2 1 2 3
M  V30 3 2 3 4
M  V30 4 1 4 5
M  V30 5 2 5 6
M  V30 6 1 6 7
M  V30 7 1 6 8
M  V30 8 2 8 9
M  V30 9 1 2 10
M  V30 10 1 10 11
M  V30 11 2 11 12
M  V30 12 1 12 13
M  V30 13 2 13 14
M  V30 14 1 14 15
M  V30 15 2 15 16
M  V30 16 1 16 17
M  V30 17 2 17 18
M  V30 18 1 18 19
M  V30 19 1 19 20
M  V30 20 2 20 21
M  V30 21 1 21 22
M  V30 22 2 22 23
M  V30 23 1 23 24
M  V30 24 1 24 25
M  V30 25 2 25 26
M  V30 26 1 26 27
M  V30 27 2 27 28
M  V30 28 2 19 29
M  V30 29 1 29 30
M  V30 30 2 30 31
M  V30 31 1 9 3
M  V30 32 1 31 10
M  V30 33 1 31 13
M  V30 34 1 30 16
M  V30 35 1 28 20
M  V30 36 1 27 23
M  V30 37 1 1 32
M  V30 38 1 1 33
M  V30 39 1 1 34
M  V30 40 1 2 35 CFG=1
M  V30 41 1 4 36
M  V30 42 1 5 37
M  V30 43 1 8 38
M  V30 44 1 9 39
M  V30 45 1 14 40
M  V30 46 1 17 41
M  V30 47 1 18 42
M  V30 48 1 21 43
M  V30 49 1 22 44
M  V30 50 1 25 45
M  V30 51 1 26 46
M  V30 52 1 28 47
M  V30 53 1 29 48
M  V30 END BOND
M  V30 END CTAB
M  END
>  <Dataset>  (60) 
ChEMBL_Kinases

>  <Ligand_Instance>  (60) 
nan

>  <PDB_ID>  (60) 
nan

>  <Standardized_SMILES>  (60) 
C[C@@H](c1ccc(F)cc1)n1nnc2cnc3ccc(-c4ccc5occc5c4)cc3c21

>  <Name>  (60) 
nan

>  <Pocket>  (60) 
nan

>  <ATP_Site>  (60) 
nan

>  <Peripheral>  (60) 
nan

>  <Num_H_Atoms_ProtBoundConf>  (60) 
nan

>  <Num_Resolved_Atoms>  (60) 
nan

>  <Num_Not_Resolved_Atoms>  (60) 
nan

$$$$
CHEMBL409350
     RDKit          3D

  0  0  0  0  0  0  0  0  0  0999 V3000
M  V30 BEGIN CTAB
M  V30 COUNTS 63 67 0 0 0
M  V30 BEGIN ATOM
M  V30 1 C 3.872823 1.129320 1.868780 0
M  V30 2 C 2.774453 0.076784 2.111364 0
M  V30 3 C 1.438662 0.703421 2.039499 0
M  V30 4 O 2.174187 1.693579 1.792910 0
M  V30 5 C 0.002734 0.801716 2.085958 0
M  V30 6 C -0.461604 2.078702 1.834484 0
M  V30 7 C 0.361699 3.211135 1.535846 0
M  V30 8 C 0.689922 3.500341 0.209654 0
M  V30 9 C 1.482327 4.586714 -0.101434 0
M  V30 10 C 1.957549 5.399876 0.915208 0
M  V30 11 C 1.628157 5.107857 2.232345 0
M  V30 12 C 0.836093 4.026336 2.575899 0
M  V30 13 C -1.831003 2.247528 1.881368 0
M  V30 14 C -2.418185 3.475654 1.648289 0
M  V30 15 C -3.787568 3.579502 1.709620 0
M  V30 16 Cl -4.397014 5.209021 1.390042 0
M  V30 17 C -4.576336 2.475224 2.000056 0
M  V30 18 C -3.946336 1.265590 2.226443 0
M  V30 19 C -2.583549 1.130044 2.172438 0
M  V30 20 C -2.099822 -0.139356 2.420806 0
M  V30 21 O -2.855056 -1.094242 2.676485 0
M  V30 22 N -0.736795 -0.285255 2.368970 0
M  V30 23 C -0.193876 -1.595569 2.626586 0
M  V30 24 C -0.093077 -2.447841 1.417564 0
M  V30 25 C -1.041679 -3.331549 0.881140 0
M  V30 26 C -0.493117 -3.909788 -0.267749 0
M  V30 27 C -1.359097 -4.841545 -0.924864 0
M  V30 28 O -2.501541 -5.134018 -0.481625 0
M  V30 29 N -1.208189 -5.599056 -2.098035 0
M  V30 30 C -2.150336 -6.512107 -2.671163 0
M  V30 31 C -1.537304 -7.813838 -3.254239 0
M  V30 32 C -2.164425 -6.731726 -4.156425 0
M  V30 33 N 0.719591 -3.380232 -0.385377 0
M  V30 34 C 1.611548 -3.732467 -1.463526 0
M  V30 35 C 1.353557 -2.777585 -2.599495 0
M  V30 36 F 0.049505 -2.888850 -2.993901 0
M  V30 37 F 2.237675 -2.964091 -3.642931 0
M  V30 38 N 0.949030 -2.541181 0.581726 0
M  V30 39 H 4.867762 0.654863 1.944933 0
M  V30 40 H 3.841274 1.877650 2.684129 0
M  V30 41 H 3.821456 1.557081 0.853386 0
M  V30 42 H 3.015156 -0.300236 3.125613 0
M  V30 43 H 2.853611 -0.678289 1.329652 0
M  V30 44 H 0.334479 2.883981 -0.611029 0
M  V30 45 H 1.740561 4.814978 -1.138493 0
M  V30 46 H 2.582463 6.266399 0.742972 0
M  V30 47 H 1.998565 5.741202 3.021502 0
M  V30 48 H 0.573619 3.790509 3.602639 0
M  V30 49 H -1.723103 4.288304 1.427477 0
M  V30 50 H -5.631154 2.676274 2.020881 0
M  V30 51 H -4.653549 0.460535 2.446290 0
M  V30 52 H 0.757775 -1.565454 3.196681 0
M  V30 53 H -0.896176 -2.103791 3.320555 0
M  V30 54 H -1.989704 -3.393636 1.445048 0
M  V30 55 H -0.319158 -5.491409 -2.616647 0
M  V30 56 H -3.118015 -6.649084 -2.136763 0
M  V30 57 H -0.422027 -7.869379 -3.292810 0
M  V30 58 H -2.136008 -8.746679 -3.140490 0
M  V30 59 H -3.143419 -7.001692 -4.628152 0
M  V30 60 H -1.466628 -6.137543 -4.780333 0
M  V30 61 H 2.650550 -3.447710 -1.064110 0
M  V30 62 H 1.641494 -4.786940 -1.726369 0
M  V30 63 H 1.461108 -1.750550 -2.168985 0
M  V30 END ATOM
M  V30 BEGIN BOND
M  V30 1 1 1 2
M  V30 2 1 2 3
M  V30 3 2 3 4
M  V30 4 1 3 5
M  V30 5 2 5 6
M  V30 6 1 6 7
M  V30 7 2 7 8
M  V30 8 1 8 9
M  V30 9 2 9 10
M  V30 10 1 10 11
M  V30 11 2 11 12
M  V30 12 1 6 13
M  V30 13 2 13 14
M  V30 14 1 14 15
M  V30 15 1 15 16
M  V30 16 2 15 17
M  V30 17 1 17 18
M  V30 18 2 18 19
M  V30 19 1 19 20
M  V30 20 2 20 21
M  V30 21 1 20 22
M  V30 22 1 22 23
M  V30 23 1 23 24
M  V30 24 1 24 25
M  V30 25 2 25 26
M  V30 26 1 26 27
M  V30 27 2 27 28
M  V30 28 1 27 29
M  V30 29 1 29 30
M  V30 30 1 30 31
M  V30 31 1 31 32
M  V30 32 1 26 33
M  V30 33 1 33 34
M  V30 34 1 34 35
M  V30 35 1 35 36
M  V30 36 1 35 37
M  V30 37 1 33 38
M  V30 38 1 22 5
M  V30 39 2 38 24
M  V30 40 1 12 7
M  V30 41 1 19 13
M  V30 42 1 32 30
M  V30 43 1 1 39
M  V30 44 1 1 40
M  V30 45 1 1 41
M  V30 46 1 2 42
M  V30 47 1 2 43
M  V30 48 1 8 44
M  V30 49 1 9 45
M  V30 50 1 10 46
M  V30 51 1 11 47
M  V30 52 1 12 48
M  V30 53 1 14 49
M  V30 54 1 17 50
M  V30 55 1 18 51
M  V30 56 1 23 52
M  V30 57 1 23 53
M  V30 58 1 25 54
M  V30 59 1 29 55
M  V30 60 1 30 56
M  V30 61 1 31 57
M  V30 62 1 31 58
M  V30 63 1 32 59
M  V30 64 1 32 60
M  V30 65 1 34 61
M  V30 66 1 34 62
M  V30 67 1 35 63
M  V30 END BOND
M  V30 END CTAB
M  END
>  <Dataset>  (61) 
ChEMBL_Kinases

>  <Ligand_Instance>  (61) 
nan

>  <PDB_ID>  (61) 
nan

>  <Standardized_SMILES>  (61) 
CCC(=O)c1c(-c2ccccc2)c2cc(Cl)ccc2c(=O)n1Cc1cc(C(=O)NC2CC2)n(CC(F)F)n1

>  <Name>  (61) 
nan

>  <Pocket>  (61) 
nan

>  <ATP_Site>  (61) 
nan

>  <Peripheral>  (61) 
nan

>  <Num_H_Atoms_ProtBoundConf>  (61) 
nan

>  <Num_Resolved_Atoms>  (61) 
nan

>  <Num_Not_Resolved_Atoms>  (61) 
nan

$$$$
CHEMBL4093282
     RDKit          3D

  0  0  0  0  0  0  0  0  0  0999 V3000
M  V30 BEGIN CTAB
M  V30 COUNTS 74 78 0 0 0
M  V30 BEGIN ATOM
M  V30 1 C 8.439860 -0.070772 6.770741 0
M  V30 2 C 9.363079 -0.582763 5.681672 0
M  V30 3 C 8.712100 -0.266138 4.371654 0
M  V30 4 O 7.668903 0.332806 4.763412 0
M  V30 5 N 9.046452 -0.503782 3.013883 0
M  V30 6 C 8.010512 0.048585 2.234513 0
M  V30 7 C 6.957646 -0.817104 1.973657 0
M  V30 8 C 5.894746 -0.372745 1.219116 0
M  V30 9 C 5.920819 0.926337 0.749187 0
M  V30 10 C 4.856859 1.513428 -0.055483 0
M  V30 11 O 4.860762 2.723202 -0.542316 0
M  V30 12 N 3.652892 1.120007 -0.538468 0
M  V30 13 C 2.399046 0.756964 -1.060440 0
M  V30 14 C 2.337740 0.172480 -2.331823 0
M  V30 15 C 1.070123 -0.123765 -2.854361 0
M  V30 16 C 0.006945 0.198920 -2.042794 0
M  V30 17 N -1.211191 -0.155297 -2.687936 0
M  V30 18 C -2.213089 -1.061039 -2.245862 0
M  V30 19 C -3.422772 -0.890805 -1.599463 0
M  V30 20 C -4.182049 -1.998488 -1.286305 0
M  V30 21 C -5.435284 -1.629229 -0.607618 0
M  V30 22 C -6.704769 -1.966000 -1.049985 0
M  V30 23 C -6.965919 -2.747548 -2.253522 0
M  V30 24 C -7.640637 -3.928693 -2.000425 0
M  V30 25 C -7.997908 -4.835731 -2.982402 0
M  V30 26 C -7.650303 -4.522793 -4.282841 0
M  V30 27 F -7.982543 -5.385714 -5.273632 0
M  V30 28 C -6.981773 -3.358729 -4.559979 0
M  V30 29 C -6.628143 -2.456863 -3.572458 0
M  V30 30 N -7.596337 -1.449901 -0.177658 0
M  V30 31 C -6.927672 -0.794859 0.806618 0
M  V30 32 S -7.615980 0.082367 2.229916 0
M  V30 33 C -7.882954 1.805709 1.697935 0
M  V30 34 N -5.603098 -0.918829 0.520882 0
M  V30 35 C -4.512604 -0.360200 1.322915 0
M  V30 36 C -3.749927 -3.267031 -1.609124 0
M  V30 37 C -2.541004 -3.421985 -2.254272 0
M  V30 38 N -1.806563 -2.328559 -2.555718 0
M  V30 39 C 0.000865 0.767814 -0.796874 0
M  V30 40 C -1.221468 1.060449 -0.030689 0
M  V30 41 C 1.258485 1.050762 -0.302389 0
M  V30 42 C 6.933445 1.809190 0.981201 0
M  V30 43 C 8.003181 1.337108 1.750070 0
M  V30 44 H 8.537908 1.001088 6.941995 0
M  V30 45 H 8.698094 -0.647122 7.700741 0
M  V30 46 H 7.366451 -0.304655 6.549889 0
M  V30 47 H 10.319627 -0.065987 5.797190 0
M  V30 48 H 9.505934 -1.658101 5.828614 0
M  V30 49 H 9.956495 -1.015597 2.996122 0
M  V30 50 H 6.878836 -1.848194 2.313787 0
M  V30 51 H 5.037464 -0.979526 0.970460 0
M  V30 52 H 3.699660 0.111964 -0.100709 0
M  V30 53 H 3.276506 -0.013853 -2.830759 0
M  V30 54 H 1.038585 -0.572321 -3.832539 0
M  V30 55 H -1.605920 0.173201 -3.598434 0
M  V30 56 H -3.599511 0.159884 -1.428178 0
M  V30 57 H -7.953157 -4.252639 -1.001230 0
M  V30 58 H -8.525522 -5.758351 -2.778327 0
M  V30 59 H -6.688752 -3.075269 -5.575236 0
M  V30 60 H -6.107233 -1.522534 -3.676659 0
M  V30 61 H -8.143391 1.774621 0.606915 0
M  V30 62 H -8.729384 2.275411 2.201063 0
M  V30 63 H -6.952377 2.404283 1.775983 0
M  V30 64 H -4.230618 0.647402 0.966095 0
M  V30 65 H -4.811491 -0.315290 2.390577 0
M  V30 66 H -3.651806 -1.067361 1.268934 0
M  V30 67 H -4.425951 -4.066273 -1.315876 0
M  V30 68 H -2.252691 -4.438728 -2.482837 0
M  V30 69 H -1.623006 0.112840 0.394551 0
M  V30 70 H -0.906752 1.646649 0.883150 0
M  V30 71 H -1.953613 1.665671 -0.562662 0
M  V30 72 H 1.380734 1.504447 0.680792 0
M  V30 73 H 6.952250 2.832677 0.609914 0
M  V30 74 H 8.828370 1.985690 1.965602 0
M  V30 END ATOM
M  V30 BEGIN BOND
M  V30 1 1 1 2
M  V30 2 1 2 3
M  V30 3 2 3 4
M  V30 4 1 3 5
M  V30 5 1 5 6
M  V30 6 2 6 7
M  V30 7 1 7 8
M  V30 8 2 8 9
M  V30 9 1 9 10
M  V30 10 2 10 11
M  V30 11 1 10 12
M  V30 12 1 12 13
M  V30 13 2 13 14
M  V30 14 1 14 15
M  V30 15 2 15 16
M  V30 16 1 16 17
M  V30 17 1 17 18
M  V30 18 2 18 19
M  V30 19 1 19 20
M  V30 20 1 20 21
M  V30 21 2 21 22
M  V30 22 1 22 23
M  V30 23 2 23 24
M  V30 24 1 24 25
M  V30 25 2 25 26
M  V30 26 1 26 27
M  V30 27 1 26 28
M  V30 28 2 28 29
M  V30 29 1 22 30
M  V30 30 2 30 31
M  V30 31 1 31 32
M  V30 32 1 32 33
M  V30 33 1 31 34
M  V30 34 1 34 35
M  V30 35 2 20 36
M  V30 36 1 36 37
M  V30 37 2 37 38
M  V30 38 1 16 39
M  V30 39 1 39 40
M  V30 40 2 39 41
M  V30 41 1 9 42
M  V30 42 2 42 43
M  V30 43 1 43 6
M  V30 44 1 41 13
M  V30 45 1 38 18
M  V30 46 1 34 21
M  V30 47 1 29 23
M  V30 48 1 1 44
M  V30 49 1 1 45
M  V30 50 1 1 46
M  V30 51 1 2 47
M  V30 52 1 2 48
M  V30 53 1 5 49
M  V30 54 1 7 50
M  V30 55 1 8 51
M  V30 56 1 12 52
M  V30 57 1 14 53
M  V30 58 1 15 54
M  V30 59 1 17 55
M  V30 60 1 19 56
M  V30 61 1 24 57
M  V30 62 1 25 58
M  V30 63 1 28 59
M  V30 64 1 29 60
M  V30 65 1 33 61
M  V30 66 1 33 62
M  V30 67 1 33 63
M  V30 68 1 35 64
M  V30 69 1 35 65
M  V30 70 1 35 66
M  V30 71 1 36 67
M  V30 72 1 37 68
M  V30 73 1 40 69
M  V30 74 1 40 70
M  V30 75 1 40 71
M  V30 76 1 41 72
M  V30 77 1 42 73
M  V30 78 1 43 74
M  V30 END BOND
M  V30 END CTAB
M  END
>  <Dataset>  (62) 
ChEMBL_Kinases

>  <Ligand_Instance>  (62) 
nan

>  <PDB_ID>  (62) 
nan

>  <Standardized_SMILES>  (62) 
CCC(=O)Nc1ccc(C(=O)Nc2ccc(Nc3cc(-c4c(-c5ccc(F)cc5)nc(SC)n4C)ccn3)c(C)c2)cc1

>  <Name>  (62) 
nan

>  <Pocket>  (62) 
nan

>  <ATP_Site>  (62) 
nan

>  <Peripheral>  (62) 
nan

>  <Num_H_Atoms_ProtBoundConf>  (62) 
nan

>  <Num_Resolved_Atoms>  (62) 
nan

>  <Num_Not_Resolved_Atoms>  (62) 
nan

$$$$
CHEMBL3666778
     RDKit          3D

  0  0  0  0  0  0  0  0  0  0999 V3000
M  V30 BEGIN CTAB
M  V30 COUNTS 87 92 0 0 0
M  V30 BEGIN ATOM
M  V30 1 C 0.765904 -1.839399 8.027903 0
M  V30 2 O 0.376973 -2.434104 6.834147 0
M  V30 3 C -0.040321 -1.667856 5.742389 0
M  V30 4 C -0.068075 -0.269716 5.856105 0
M  V30 5 C -0.469129 0.581910 4.819529 0
M  V30 6 C -0.459636 2.011944 5.056586 0
M  V30 7 O -0.443990 2.762912 6.047814 0
M  V30 8 N -0.461071 2.834681 3.871452 0
M  V30 9 C -0.449777 4.268045 3.645038 0
M  V30 10 C -1.487574 4.771586 2.710757 0
M  V30 11 C -1.197900 6.220201 2.389700 0
M  V30 12 N -0.036631 6.279567 1.560308 0
M  V30 13 C -0.359501 6.118546 0.132465 0
M  V30 14 C 0.987926 5.319067 1.846581 0
M  V30 15 C 0.931647 4.725177 3.204588 0
M  V30 16 C -0.854579 0.024730 3.638944 0
M  V30 17 C -0.828648 -1.348604 3.524913 0
M  V30 18 C -0.437684 -2.224025 4.523573 0
M  V30 19 N -0.402466 -3.639573 4.339739 0
M  V30 20 C -0.885127 -4.097845 3.087914 0
M  V30 21 N -1.961995 -4.910727 3.111153 0
M  V30 22 C -2.560594 -5.409977 2.008511 0
M  V30 23 C -2.066234 -5.088265 0.761697 0
M  V30 24 C -0.958983 -4.251044 0.751332 0
M  V30 25 N -0.405449 -3.787638 1.872443 0
M  V30 26 C -0.331412 -3.778167 -0.490222 0
M  V30 27 C -0.868847 -3.775327 -1.787786 0
M  V30 28 C 0.121931 -3.211911 -2.562215 0
M  V30 29 C -0.052296 -3.023249 -3.993970 0
M  V30 30 O -1.011321 -3.329381 -4.707576 0
M  V30 31 N 0.946880 -2.411927 -4.800936 0
M  V30 32 C 0.843234 -2.189514 -6.233674 0 CFG=2
M  V30 33 C 1.878976 -2.926592 -7.018175 0
M  V30 34 N 3.224921 -2.578491 -6.682682 0
M  V30 35 C 1.003910 -0.734647 -6.469891 0
M  V30 36 C 0.288184 0.040049 -5.601748 0
M  V30 37 C 0.289824 1.418954 -5.634204 0
M  V30 38 C 1.051644 2.071361 -6.591038 0
M  V30 39 C 1.793258 1.285648 -7.490904 0
M  V30 40 C 1.766864 -0.102221 -7.427774 0
M  V30 41 N 1.145848 -2.913757 -1.785565 0
M  V30 42 N 0.891398 -3.250736 -0.515858 0
M  V30 43 C 1.761077 -3.083030 0.629645 0
M  V30 44 C -2.228815 -4.299318 -2.101253 0
M  V30 45 C -2.281335 -5.735950 -1.588485 0
M  V30 46 C -2.928020 -5.786572 -0.226106 0
M  V30 47 H 1.374940 -2.536129 8.674663 0
M  V30 48 H 1.444137 -0.968771 7.871596 0
M  V30 49 H -0.095186 -1.474042 8.619962 0
M  V30 50 H 0.229054 0.216555 6.786168 0
M  V30 51 H -0.463307 2.507092 2.863437 0
M  V30 52 H -0.600152 4.748284 4.634572 0
M  V30 53 H -2.506110 4.784409 3.198707 0
M  V30 54 H -1.516041 4.234564 1.738313 0
M  V30 55 H -0.994957 6.810427 3.322100 0
M  V30 56 H -2.060537 6.685525 1.836911 0
M  V30 57 H -0.788032 7.079460 -0.199458 0
M  V30 58 H 0.565496 5.854101 -0.447899 0
M  V30 59 H -1.045943 5.260348 -0.030018 0
M  V30 60 H 1.960234 5.891536 1.781748 0
M  V30 61 H 1.093274 4.524871 1.067373 0
M  V30 62 H 1.398962 5.441527 3.911832 0
M  V30 63 H 1.638669 3.842151 3.188102 0
M  V30 64 H -1.181694 0.642187 2.797142 0
M  V30 65 H -1.154223 -1.712189 2.561807 0
M  V30 66 H -0.047611 -4.254581 5.079535 0
M  V30 67 H -3.412785 -6.049077 2.162789 0
M  V30 68 H 1.867600 -2.067944 -4.384848 0
M  V30 69 H -0.150112 -2.575086 -6.587189 0
M  V30 70 H 1.711686 -2.667148 -8.098771 0
M  V30 71 H 1.706745 -4.043987 -7.003119 0
M  V30 72 H 3.346331 -1.786502 -6.038956 0
M  V30 73 H 3.861417 -2.523804 -7.513012 0
M  V30 74 H -0.349699 -0.347361 -4.804206 0
M  V30 75 H -0.240186 2.093110 -4.992951 0
M  V30 76 H 1.176169 3.138081 -6.767509 0
M  V30 77 H 2.415806 1.691405 -8.271510 0
M  V30 78 H 2.312540 -0.737451 -8.094381 0
M  V30 79 H 1.861007 -4.029817 1.198709 0
M  V30 80 H 1.458699 -2.211033 1.208786 0
M  V30 81 H 2.816089 -2.874822 0.278572 0
M  V30 82 H -2.988174 -3.712147 -1.505220 0
M  V30 83 H -2.436559 -4.240831 -3.165545 0
M  V30 84 H -2.845269 -6.382810 -2.306271 0
M  V30 85 H -1.247444 -6.127827 -1.462914 0
M  V30 86 H -3.968700 -5.390667 -0.267368 0
M  V30 87 H -2.957933 -6.879105 0.067201 0
M  V30 END ATOM
M  V30 BEGIN BOND
M  V30 1 1 1 2
M  V30 2 1 2 3
M  V30 3 2 3 4
M  V30 4 1 4 5
M  V30 5 1 5 6
M  V30 6 2 6 7
M  V30 7 1 6 8
M  V30 8 1 8 9
M  V30 9 1 9 10
M  V30 10 1 10 11
M  V30 11 1 11 12
M  V30 12 1 12 13
M  V30 13 1 12 14
M  V30 14 1 14 15
M  V30 15 2 5 16
M  V30 16 1 16 17
M  V30 17 2 17 18
M  V30 18 1 18 19
M  V30 19 1 19 20
M  V30 20 2 20 21
M  V30 21 1 21 22
M  V30 22 2 22 23
M  V30 23 1 23 24
M  V30 24 2 24 25
M  V30 25 1 24 26
M  V30 26 2 26 27
M  V30 27 1 27 28
M  V30 28 1 28 29
M  V30 29 2 29 30
M  V30 30 1 29 31
M  V30 31 1 31 32
M  V30 32 1 32 33
M  V30 33 1 33 34
M  V30 34 1 32 35
M  V30 35 2 35 36
M  V30 36 1 36 37
M  V30 37 2 37 38
M  V30 38 1 38 39
M  V30 39 2 39 40
M  V30 40 2 28 41
M  V30 41 1 41 42
M  V30 42 1 42 43
M  V30 43 1 27 44
M  V30 44 1 44 45
M  V30 45 1 45 46
M  V30 46 1 18 3
M  V30 47 1 25 20
M  V30 48 1 42 26
M  V30 49 1 15 9
M  V30 50 1 46 23
M  V30 51 1 40 35
M  V30 52 1 1 47
M  V30 53 1 1 48
M  V30 54 1 1 49
M  V30 55 1 4 50
M  V30 56 1 8 51
M  V30 57 1 9 52
M  V30 58 1 10 53
M  V30 59 1 10 54
M  V30 60 1 11 55
M  V30 61 1 11 56
M  V30 62 1 13 57
M  V30 63 1 13 58
M  V30 64 1 13 59
M  V30 65 1 14 60
M  V30 66 1 14 61
M  V30 67 1 15 62
M  V30 68 1 15 63
M  V30 69 1 16 64
M  V30 70 1 17 65
M  V30 71 1 19 66
M  V30 72 1 22 67
M  V30 73 1 31 68
M  V30 74 1 32 69 CFG=3
M  V30 75 1 33 70
M  V30 76 1 33 71
M  V30 77 1 34 72
M  V30 78 1 34 73
M  V30 79 1 36 74
M  V30 80 1 37 75
M  V30 81 1 38 76
M  V30 82 1 39 77
M  V30 83 1 40 78
M  V30 84 1 43 79
M  V30 85 1 43 80
M  V30 86 1 43 81
M  V30 87 1 44 82
M  V30 88 1 44 83
M  V30 89 1 45 84
M  V30 90 1 45 85
M  V30 91 1 46 86
M  V30 92 1 46 87
M  V30 END BOND
M  V30 END CTAB
M  END
>  <Dataset>  (63) 
ChEMBL_Kinases

>  <Ligand_Instance>  (63) 
nan

>  <PDB_ID>  (63) 
nan

>  <Standardized_SMILES>  (63) 
COc1cc(C(=O)NC2CCN(C)CC2)ccc1Nc1ncc2c(n1)-c1c(c(C(=O)N[C@H](CN)c3ccccc3)nn1C)CCC2

>  <Name>  (63) 
nan

>  <Pocket>  (63) 
nan

>  <ATP_Site>  (63) 
nan

>  <Peripheral>  (63) 
nan

>  <Num_H_Atoms_ProtBoundConf>  (63) 
nan

>  <Num_Resolved_Atoms>  (63) 
nan

>  <Num_Not_Resolved_Atoms>  (63) 
nan

$$$$
CHEMBL4093207
     RDKit          3D

  0  0  0  0  0  0  0  0  0  0999 V3000
M  V30 BEGIN CTAB
M  V30 COUNTS 28 30 0 0 0
M  V30 BEGIN ATOM
M  V30 1 N 0.002596 -2.644670 3.582461 0
M  V30 2 C 0.774875 -2.373769 2.750350 0
M  V30 3 C 1.729315 -2.064428 1.739975 0
M  V30 4 C 2.978213 -2.667171 1.703479 0
M  V30 5 N 3.651091 -2.200097 0.638697 0
M  V30 6 C 2.883005 -1.313579 -0.019621 0
M  V30 7 N 3.025684 -0.554005 -1.141067 0
M  V30 8 C 1.988965 0.241072 -1.520873 0
M  V30 9 N 2.199197 1.012325 -2.704954 0
M  V30 10 N 0.831012 0.317012 -0.846778 0
M  V30 11 C 0.651866 -0.428852 0.282398 0
M  V30 12 C -0.652047 -0.234280 0.885000 0
M  V30 13 C -1.733322 -0.398488 0.008930 0
M  V30 14 C -3.059123 -0.238091 0.349648 0
M  V30 15 C -3.353606 0.110708 1.650060 0
M  V30 16 C -2.328491 0.285116 2.551951 0
M  V30 17 O -2.562304 0.634753 3.868467 0
M  V30 18 C -1.019517 0.114409 2.165777 0
M  V30 19 C 1.697504 -1.233833 0.666748 0
M  V30 20 H 3.382876 -3.394213 2.393500 0
M  V30 21 H 4.631609 -2.462694 0.332007 0
M  V30 22 H 1.625187 1.889635 -2.804547 0
M  V30 23 H 2.885418 0.724038 -3.435510 0
M  V30 24 H -1.581084 -0.672879 -1.031365 0
M  V30 25 H -3.860361 -0.375673 -0.361623 0
M  V30 26 H -4.374625 0.250646 1.978022 0
M  V30 27 H -2.017425 0.163869 4.579386 0
M  V30 28 H -0.190903 0.260154 2.842095 0
M  V30 END ATOM
M  V30 BEGIN BOND
M  V30 1 3 1 2
M  V30 2 1 2 3
M  V30 3 2 3 4
M  V30 4 1 4 5
M  V30 5 1 5 6
M  V30 6 2 6 7
M  V30 7 1 7 8
M  V30 8 1 8 9
M  V30 9 2 8 10
M  V30 10 1 10 11
M  V30 11 1 11 12
M  V30 12 2 12 13
M  V30 13 1 13 14
M  V30 14 2 14 15
M  V30 15 1 15 16
M  V30 16 1 16 17
M  V30 17 2 16 18
M  V30 18 2 11 19
M  V30 19 1 19 3
M  V30 20 1 19 6
M  V30 21 1 18 12
M  V30 22 1 4 20
M  V30 23 1 5 21
M  V30 24 1 9 22
M  V30 25 1 9 23
M  V30 26 1 13 24
M  V30 27 1 14 25
M  V30 28 1 15 26
M  V30 29 1 17 27
M  V30 30 1 18 28
M  V30 END BOND
M  V30 END CTAB
M  END
>  <Dataset>  (64) 
ChEMBL_Kinases

>  <Ligand_Instance>  (64) 
nan

>  <PDB_ID>  (64) 
nan

>  <Standardized_SMILES>  (64) 
N#Cc1c[nH]c2nc(N)nc(-c3cccc(O)c3)c12

>  <Name>  (64) 
nan

>  <Pocket>  (64) 
nan

>  <ATP_Site>  (64) 
nan

>  <Peripheral>  (64) 
nan

>  <Num_H_Atoms_ProtBoundConf>  (64) 
nan

>  <Num_Resolved_Atoms>  (64) 
nan

>  <Num_Not_Resolved_Atoms>  (64) 
nan

$$$$
CHEMBL4093174
     RDKit          3D

  0  0  0  0  0  0  0  0  0  0999 V3000
M  V30 BEGIN CTAB
M  V30 COUNTS 46 49 0 0 0
M  V30 BEGIN ATOM
M  V30 1 C 0.223550 -7.526384 -2.733889 0
M  V30 2 C 1.401443 -6.830155 -2.927304 0
M  V30 3 C 1.502005 -5.488207 -3.148657 0
M  V30 4 C 0.321903 -4.747148 -3.184649 0
M  V30 5 C 0.358361 -3.269546 -3.423172 0
M  V30 6 O 0.460503 -2.559575 -2.218656 0
M  V30 7 C 0.516696 -1.182741 -2.094538 0
M  V30 8 C 0.485483 -0.226725 -3.102948 0
M  V30 9 C 0.553403 1.112602 -2.775585 0
M  V30 10 C 0.651787 1.505942 -1.456996 0
M  V30 11 C 0.685346 0.584631 -0.430979 0
M  V30 12 N 0.785958 1.004586 0.907636 0
M  V30 13 C 0.856020 2.409396 1.232998 0
M  V30 14 C 0.957772 2.571466 2.727888 0
M  V30 15 N -0.079982 2.696888 3.603406 0
M  V30 16 C 0.394892 2.822258 4.859420 0
M  V30 17 C -0.476450 2.974963 6.024239 0
M  V30 18 C -1.202637 1.867630 6.420797 0
M  V30 19 C -2.066450 1.857382 7.500373 0
M  V30 20 N -2.203316 2.993184 8.200450 0
M  V30 21 C -1.513161 4.090113 7.844287 0
M  V30 22 C -0.648951 4.113281 6.770219 0
M  V30 23 N 1.736100 2.774425 4.763625 0
M  V30 24 N 2.085472 2.623248 3.481284 0
M  V30 25 C 0.616922 -0.751434 -0.767950 0
M  V30 26 C -0.884099 -5.399947 -2.996208 0
M  V30 27 C -0.925396 -6.764402 -2.775396 0
M  V30 28 H 0.167139 -8.589411 -2.560170 0
M  V30 29 H 2.319665 -7.404649 -2.899641 0
M  V30 30 H 2.453279 -4.990287 -3.294587 0
M  V30 31 H -0.506519 -2.968893 -4.053532 0
M  V30 32 H 1.273537 -3.064613 -4.017480 0
M  V30 33 H 0.406782 -0.646077 -4.100629 0
M  V30 34 H 0.520315 1.761378 -3.645549 0
M  V30 35 H 0.699275 2.567354 -1.296445 0
M  V30 36 H 0.809922 0.281377 1.675572 0
M  V30 37 H 1.697428 2.920938 0.746572 0
M  V30 38 H -0.096864 2.904512 0.941854 0
M  V30 39 H -1.108506 0.931005 5.867002 0
M  V30 40 H -2.618401 0.990559 7.790066 0
M  V30 41 H -1.648251 4.987510 8.431246 0
M  V30 42 H -0.079921 4.980571 6.459303 0
M  V30 43 H 3.064554 2.555269 3.111662 0
M  V30 44 H 0.647454 -1.445404 0.086744 0
M  V30 45 H -1.810124 -4.837835 -3.021354 0
M  V30 46 H -1.895643 -7.235504 -2.632429 0
M  V30 END ATOM
M  V30 BEGIN BOND
M  V30 1 2 1 2
M  V30 2 1 2 3
M  V30 3 2 3 4
M  V30 4 1 4 5
M  V30 5 1 5 6
M  V30 6 1 6 7
M  V30 7 2 7 8
M  V30 8 1 8 9
M  V30 9 2 9 10
M  V30 10 1 10 11
M  V30 11 1 11 12
M  V30 12 1 12 13
M  V30 13 1 13 14
M  V30 14 2 14 15
M  V30 15 1 15 16
M  V30 16 1 16 17
M  V30 17 2 17 18
M  V30 18 1 18 19
M  V30 19 2 19 20
M  V30 20 1 20 21
M  V30 21 2 21 22
M  V30 22 2 16 23
M  V30 23 1 23 24
M  V30 24 2 11 25
M  V30 25 1 4 26
M  V30 26 2 26 27
M  V30 27 1 27 1
M  V30 28 1 25 7
M  V30 29 1 24 14
M  V30 30 1 22 17
M  V30 31 1 1 28
M  V30 32 1 2 29
M  V30 33 1 3 30
M  V30 34 1 5 31
M  V30 35 1 5 32
M  V30 36 1 8 33
M  V30 37 1 9 34
M  V30 38 1 10 35
M  V30 39 1 12 36
M  V30 40 1 13 37
M  V30 41 1 13 38
M  V30 42 1 18 39
M  V30 43 1 19 40
M  V30 44 1 21 41
M  V30 45 1 22 42
M  V30 46 1 24 43
M  V30 47 1 25 44
M  V30 48 1 26 45
M  V30 49 1 27 46
M  V30 END BOND
M  V30 END CTAB
M  END
>  <Dataset>  (65) 
ChEMBL_Kinases

>  <Ligand_Instance>  (65) 
nan

>  <PDB_ID>  (65) 
nan

>  <Standardized_SMILES>  (65) 
c1ccc(COc2cccc(NCc3nc(-c4ccncc4)n[nH]3)c2)cc1

>  <Name>  (65) 
nan

>  <Pocket>  (65) 
nan

>  <ATP_Site>  (65) 
nan

>  <Peripheral>  (65) 
nan

>  <Num_H_Atoms_ProtBoundConf>  (65) 
nan

>  <Num_Resolved_Atoms>  (65) 
nan

>  <Num_Not_Resolved_Atoms>  (65) 
nan

$$$$
CHEMBL3799716
     RDKit          3D

  0  0  0  0  0  0  0  0  0  0999 V3000
M  V30 BEGIN CTAB
M  V30 COUNTS 41 44 0 0 0
M  V30 BEGIN ATOM
M  V30 1 O 1.105233 -2.124359 -2.882060 0
M  V30 2 C 0.517232 -1.244195 -2.198754 0
M  V30 3 N -0.783435 -0.825169 -2.579710 0
M  V30 4 C -1.583444 -1.283538 -3.699113 0
M  V30 5 C -2.141649 -2.607809 -3.343732 0
M  V30 6 C -3.370725 -2.638330 -2.673126 0
M  V30 7 C -3.965017 -3.840317 -2.306424 0
M  V30 8 C -3.344482 -5.049978 -2.601388 0
M  V30 9 C -2.131857 -5.045487 -3.262316 0
M  V30 10 Cl -1.311938 -6.540516 -3.655945 0
M  V30 11 C -1.573249 -3.834272 -3.609857 0
M  V30 12 C 1.245867 -0.724836 -1.051037 0
M  V30 13 C 2.504555 -1.231426 -0.802709 0
M  V30 14 C 3.293050 -0.804539 0.272229 0
M  V30 15 C 2.824766 0.160828 1.139676 0
M  V30 16 N 3.336865 0.755967 2.231148 0
M  V30 17 N 2.440245 1.625534 2.683327 0
M  V30 18 C 1.341095 1.598617 1.886444 0
M  V30 19 C 0.156662 2.428974 2.090465 0
M  V30 20 C -1.143234 1.970653 2.013350 0
M  V30 21 C -2.187036 2.847528 2.225671 0
M  V30 22 N -2.022037 4.153879 2.510416 0
M  V30 23 C -0.760819 4.646639 2.595823 0
M  V30 24 C 0.304703 3.772059 2.383651 0
M  V30 25 C 1.566887 0.667273 0.891907 0
M  V30 26 C 0.802347 0.237005 -0.170588 0
M  V30 27 H -1.169096 -0.091505 -1.937895 0
M  V30 28 H -2.375895 -0.544566 -3.878753 0
M  V30 29 H -0.989084 -1.322026 -4.639087 0
M  V30 30 H -3.889770 -1.714210 -2.423114 0
M  V30 31 H -4.909676 -3.898645 -1.789210 0
M  V30 32 H -3.738600 -6.005973 -2.352092 0
M  V30 33 H -0.625656 -3.831763 -4.129756 0
M  V30 34 H 2.989138 -2.004128 -1.420704 0
M  V30 35 H 4.282054 -1.220324 0.445731 0
M  V30 36 H 4.288414 0.499666 2.575610 0
M  V30 37 H -1.291573 0.926217 1.786127 0
M  V30 38 H -3.218092 2.488800 2.165574 0
M  V30 39 H -0.481881 5.686583 2.819975 0
M  V30 40 H 1.327319 4.147158 2.447746 0
M  V30 41 H -0.177403 0.651420 -0.338859 0
M  V30 END ATOM
M  V30 BEGIN BOND
M  V30 1 2 1 2
M  V30 2 1 2 3
M  V30 3 1 3 4
M  V30 4 1 4 5
M  V30 5 2 5 6
M  V30 6 1 6 7
M  V30 7 2 7 8
M  V30 8 1 8 9
M  V30 9 1 9 10
M  V30 10 2 9 11
M  V30 11 1 2 12
M  V30 12 2 12 13
M  V30 13 1 13 14
M  V30 14 2 14 15
M  V30 15 1 15 16
M  V30 16 1 16 17
M  V30 17 2 17 18
M  V30 18 1 18 19
M  V30 19 2 19 20
M  V30 20 1 20 21
M  V30 21 2 21 22
M  V30 22 1 22 23
M  V30 23 2 23 24
M  V30 24 1 18 25
M  V30 25 2 25 26
M  V30 26 1 11 5
M  V30 27 1 26 12
M  V30 28 1 25 15
M  V30 29 1 24 19
M  V30 30 1 3 27
M  V30 31 1 4 28
M  V30 32 1 4 29
M  V30 33 1 6 30
M  V30 34 1 7 31
M  V30 35 1 8 32
M  V30 36 1 11 33
M  V30 37 1 13 34
M  V30 38 1 14 35
M  V30 39 1 16 36
M  V30 40 1 20 37
M  V30 41 1 21 38
M  V30 42 1 23 39
M  V30 43 1 24 40
M  V30 44 1 26 41
M  V30 END BOND
M  V30 END CTAB
M  END
>  <Dataset>  (66) 
ChEMBL_Kinases

>  <Ligand_Instance>  (66) 
nan

>  <PDB_ID>  (66) 
nan

>  <Standardized_SMILES>  (66) 
O=C(NCc1cccc(Cl)c1)c1ccc2[nH]nc(-c3ccncc3)c2c1

>  <Name>  (66) 
nan

>  <Pocket>  (66) 
nan

>  <ATP_Site>  (66) 
nan

>  <Peripheral>  (66) 
nan

>  <Num_H_Atoms_ProtBoundConf>  (66) 
nan

>  <Num_Resolved_Atoms>  (66) 
nan

>  <Num_Not_Resolved_Atoms>  (66) 
nan

$$$$
CHEMBL3799725
     RDKit          3D

  0  0  0  0  0  0  0  0  0  0999 V3000
M  V30 BEGIN CTAB
M  V30 COUNTS 45 48 0 0 0
M  V30 BEGIN ATOM
M  V30 1 O 0.470808 -1.309767 -0.445204 0
M  V30 2 C 0.450006 -0.184695 0.117604 0
M  V30 3 N 1.455372 0.732338 -0.300425 0
M  V30 4 C 2.440936 0.387299 -1.312810 0 CFG=1
M  V30 5 C 2.220486 1.214663 -2.577342 0
M  V30 6 O 3.181313 0.849864 -3.507813 0
M  V30 7 C 3.825590 0.422751 -0.836764 0
M  V30 8 C 4.202672 1.510718 -0.070742 0
M  V30 9 C 5.500840 1.599881 0.408553 0
M  V30 10 C 6.450598 0.630099 0.148377 0
M  V30 11 C 6.026266 -0.426360 -0.614579 0
M  V30 12 Cl 7.201927 -1.687616 -0.972526 0
M  V30 13 C 4.754668 -0.571029 -1.117898 0
M  V30 14 C -0.533508 0.175651 1.135632 0
M  V30 15 C -0.601180 1.392579 1.783124 0
M  V30 16 C -1.563090 1.658795 2.737006 0
M  V30 17 C -2.499823 0.689806 3.070988 0
M  V30 18 N -3.527804 0.663114 3.939651 0
M  V30 19 N -4.092698 -0.517032 3.852460 0
M  V30 20 C -3.472930 -1.303027 2.940230 0
M  V30 21 C -3.843039 -2.670080 2.595451 0
M  V30 22 C -3.911348 -3.092751 1.277706 0
M  V30 23 C -4.262606 -4.394421 0.919138 0
M  V30 24 N -4.553007 -5.297418 1.897373 0
M  V30 25 C -4.499867 -4.930297 3.204512 0
M  V30 26 C -4.149925 -3.633337 3.562951 0
M  V30 27 C -2.441944 -0.544951 2.423259 0
M  V30 28 C -1.474147 -0.796052 1.471650 0
M  V30 29 H 1.525120 1.692274 0.104742 0
M  V30 30 H 2.219733 -0.659387 -1.630194 0
M  V30 31 H 2.124116 2.283565 -2.394889 0
M  V30 32 H 1.233410 0.857150 -2.986432 0
M  V30 33 H 3.174234 1.461580 -4.283824 0
M  V30 34 H 3.578904 2.335933 0.211259 0
M  V30 35 H 5.837940 2.445617 1.018474 0
M  V30 36 H 7.469862 0.669217 0.506470 0
M  V30 37 H 4.431398 -1.407409 -1.717752 0
M  V30 38 H 0.123903 2.133464 1.520168 0
M  V30 39 H -1.583461 2.624938 3.222462 0
M  V30 40 H -3.776311 1.479153 4.548035 0
M  V30 41 H -3.691422 -2.419327 0.460099 0
M  V30 42 H -4.301664 -4.677336 -0.137868 0
M  V30 43 H -4.738126 -5.678641 3.951972 0
M  V30 44 H -4.105600 -3.332890 4.610729 0
M  V30 45 H -1.447769 -1.749633 0.987133 0
M  V30 END ATOM
M  V30 BEGIN BOND
M  V30 1 2 1 2
M  V30 2 1 2 3
M  V30 3 1 3 4
M  V30 4 1 4 5
M  V30 5 1 5 6
M  V30 6 1 4 7
M  V30 7 2 7 8
M  V30 8 1 8 9
M  V30 9 2 9 10
M  V30 10 1 10 11
M  V30 11 1 11 12
M  V30 12 2 11 13
M  V30 13 1 2 14
M  V30 14 2 14 15
M  V30 15 1 15 16
M  V30 16 2 16 17
M  V30 17 1 17 18
M  V30 18 1 18 19
M  V30 19 2 19 20
M  V30 20 1 20 21
M  V30 21 2 21 22
M  V30 22 1 22 23
M  V30 23 2 23 24
M  V30 24 1 24 25
M  V30 25 2 25 26
M  V30 26 1 20 27
M  V30 27 2 27 28
M  V30 28 1 13 7
M  V30 29 1 28 14
M  V30 30 1 27 17
M  V30 31 1 26 21
M  V30 32 1 3 29
M  V30 33 1 4 30 CFG=3
M  V30 34 1 5 31
M  V30 35 1 5 32
M  V30 36 1 6 33
M  V30 37 1 8 34
M  V30 38 1 9 35
M  V30 39 1 10 36
M  V30 40 1 13 37
M  V30 41 1 15 38
M  V30 42 1 16 39
M  V30 43 1 18 40
M  V30 44 1 22 41
M  V30 45 1 23 42
M  V30 46 1 25 43
M  V30 47 1 26 44
M  V30 48 1 28 45
M  V30 END BOND
M  V30 END CTAB
M  END
>  <Dataset>  (67) 
ChEMBL_Kinases

>  <Ligand_Instance>  (67) 
nan

>  <PDB_ID>  (67) 
nan

>  <Standardized_SMILES>  (67) 
O=C(N[C@@H](CO)c1cccc(Cl)c1)c1ccc2[nH]nc(-c3ccncc3)c2c1

>  <Name>  (67) 
nan

>  <Pocket>  (67) 
nan

>  <ATP_Site>  (67) 
nan

>  <Peripheral>  (67) 
nan

>  <Num_H_Atoms_ProtBoundConf>  (67) 
nan

>  <Num_Resolved_Atoms>  (67) 
nan

>  <Num_Not_Resolved_Atoms>  (67) 
nan

$$$$
CHEMBL3667042
     RDKit          3D

  0  0  0  0  0  0  0  0  0  0999 V3000
M  V30 BEGIN CTAB
M  V30 COUNTS 63 69 0 0 0
M  V30 BEGIN ATOM
M  V30 1 C 2.260080 1.311859 8.899808 0
M  V30 2 C 2.219724 1.218273 7.414875 0
M  V30 3 N 3.059331 1.211383 6.355996 0
M  V30 4 C 2.343805 1.093728 5.227490 0
M  V30 5 N 2.697957 1.039838 3.936270 0
M  V30 6 C 1.797355 0.917945 2.937138 0
M  V30 7 C 2.083872 0.847765 1.514905 0
M  V30 8 C 1.589519 1.761952 0.604314 0
M  V30 9 C 1.880250 1.677350 -0.743099 0
M  V30 10 C 2.679976 0.676051 -1.254596 0
M  V30 11 C 2.926699 0.678404 -2.716246 0
M  V30 12 N 2.031292 -0.092844 -3.496342 0
M  V30 13 C 0.620605 0.192942 -3.451723 0
M  V30 14 C 0.404246 -1.024048 -2.589253 0
M  V30 15 C -0.651720 -1.973238 -3.049881 0
M  V30 16 N -0.841994 -2.238042 -4.377084 0
M  V30 17 N -1.839427 -3.112104 -4.481906 0
M  V30 18 C -2.311983 -3.431303 -3.263337 0
M  V30 19 C -3.393780 -4.342541 -2.887212 0
M  V30 20 C -4.095966 -5.025418 -3.858672 0
M  V30 21 C -5.117479 -5.880048 -3.423943 0
M  V30 22 C -5.342690 -5.973333 -2.058569 0
M  V30 23 C -4.629259 -5.281466 -1.097055 0
M  V30 24 N -3.659053 -4.474475 -1.573852 0
M  V30 25 N -1.562114 -2.715844 -2.406810 0
M  V30 26 C 1.768253 -1.444032 -3.157765 0
M  V30 27 C 3.169811 -0.232693 -0.339250 0
M  V30 28 C 2.883897 -0.155230 1.007769 0
M  V30 29 C 0.442522 0.844849 3.254796 0
M  V30 30 C -0.687565 0.718426 2.349217 0
M  V30 31 C -1.515331 1.837354 2.480985 0
M  V30 32 C -2.683473 1.983578 1.725533 0
M  V30 33 C -3.001888 0.983589 0.836475 0
M  V30 34 C -2.187707 -0.119448 0.705177 0
M  V30 35 C -1.037421 -0.263702 1.448930 0
M  V30 36 C 0.122025 0.904707 4.609583 0
M  V30 37 N 1.036094 1.025986 5.586783 0
M  V30 38 N 0.987388 1.101816 6.888915 0
M  V30 39 H 1.735218 0.482479 9.399355 0
M  V30 40 H 1.767737 2.286161 9.173217 0
M  V30 41 H 3.303726 1.421534 9.233308 0
M  V30 42 H 0.961779 2.532635 1.067737 0
M  V30 43 H 1.405153 2.482854 -1.286844 0
M  V30 44 H 3.069790 1.704221 -3.114088 0
M  V30 45 H 3.944189 0.197322 -2.832159 0
M  V30 46 H 0.117128 0.048652 -4.449924 0
M  V30 47 H 0.422438 1.166140 -3.002012 0
M  V30 48 H 0.450991 -0.870263 -1.502608 0
M  V30 49 H -3.845018 -4.886239 -4.900344 0
M  V30 50 H -5.671097 -6.415136 -4.162458 0
M  V30 51 H -6.142478 -6.642933 -1.732253 0
M  V30 52 H -4.852777 -5.396325 -0.038344 0
M  V30 53 H -1.645892 -2.713052 -1.388298 0
M  V30 54 H 2.339225 -1.944938 -2.378973 0
M  V30 55 H 1.652972 -2.047103 -4.091007 0
M  V30 56 H 3.798128 -1.018423 -0.730670 0
M  V30 57 H 3.324466 -0.928445 1.647490 0
M  V30 58 H -1.380443 2.700355 3.147763 0
M  V30 59 H -3.350974 2.814512 1.783762 0
M  V30 60 H -3.877692 0.986857 0.200182 0
M  V30 61 H -2.390160 -0.929455 0.025175 0
M  V30 62 H -0.312435 -1.065436 1.450644 0
M  V30 63 H -0.925292 0.853469 4.943282 0
M  V30 END ATOM
M  V30 BEGIN BOND
M  V30 1 1 1 2
M  V30 2 1 2 3
M  V30 3 2 3 4
M  V30 4 1 4 5
M  V30 5 2 5 6
M  V30 6 1 6 7
M  V30 7 2 7 8
M  V30 8 1 8 9
M  V30 9 2 9 10
M  V30 10 1 10 11
M  V30 11 1 11 12
M  V30 12 1 12 13
M  V30 13 1 13 14
M  V30 14 1 14 15
M  V30 15 2 15 16
M  V30 16 1 16 17
M  V30 17 2 17 18
M  V30 18 1 18 19
M  V30 19 2 19 20
M  V30 20 1 20 21
M  V30 21 2 21 22
M  V30 22 1 22 23
M  V30 23 2 23 24
M  V30 24 1 18 25
M  V30 25 1 14 26
M  V30 26 1 10 27
M  V30 27 2 27 28
M  V30 28 1 6 29
M  V30 29 1 29 30
M  V30 30 2 30 31
M  V30 31 1 31 32
M  V30 32 2 32 33
M  V30 33 1 33 34
M  V30 34 2 34 35
M  V30 35 2 29 36
M  V30 36 1 36 37
M  V30 37 1 37 38
M  V30 38 2 38 2
M  V30 39 1 37 4
M  V30 40 1 28 7
M  V30 41 1 35 30
M  V30 42 1 26 12
M  V30 43 1 25 15
M  V30 44 1 24 19
M  V30 45 1 1 39
M  V30 46 1 1 40
M  V30 47 1 1 41
M  V30 48 1 8 42
M  V30 49 1 9 43
M  V30 50 1 11 44
M  V30 51 1 11 45
M  V30 52 1 13 46
M  V30 53 1 13 47
M  V30 54 1 14 48
M  V30 55 1 20 49
M  V30 56 1 21 50
M  V30 57 1 22 51
M  V30 58 1 23 52
M  V30 59 1 25 53
M  V30 60 1 26 54
M  V30 61 1 26 55
M  V30 62 1 27 56
M  V30 63 1 28 57
M  V30 64 1 31 58
M  V30 65 1 32 59
M  V30 66 1 33 60
M  V30 67 1 34 61
M  V30 68 1 35 62
M  V30 69 1 36 63
M  V30 END BOND
M  V30 END CTAB
M  END
>  <Dataset>  (68) 
ChEMBL_Kinases

>  <Ligand_Instance>  (68) 
nan

>  <PDB_ID>  (68) 
nan

>  <Standardized_SMILES>  (68) 
Cc1nc2nc(-c3ccc(CN4CC(c5nnc(-c6ccccn6)[nH]5)C4)cc3)c(-c3ccccc3)cn2n1

>  <Name>  (68) 
nan

>  <Pocket>  (68) 
nan

>  <ATP_Site>  (68) 
nan

>  <Peripheral>  (68) 
nan

>  <Num_H_Atoms_ProtBoundConf>  (68) 
nan

>  <Num_Resolved_Atoms>  (68) 
nan

>  <Num_Not_Resolved_Atoms>  (68) 
nan

$$$$
CHEMBL4096630
     RDKit          3D

  0  0  0  0  0  0  0  0  0  0999 V3000
M  V30 BEGIN CTAB
M  V30 COUNTS 45 47 0 0 0
M  V30 BEGIN ATOM
M  V30 1 C 1.069376 -7.040583 0.590024 0
M  V30 2 O 1.414409 -5.808755 0.004254 0
M  V30 3 C 0.261762 -5.028655 0.093216 0
M  V30 4 C 0.441992 -3.681557 -0.481177 0
M  V30 5 C 0.308953 -2.553911 0.159463 0
M  V30 6 C 0.477502 -1.213217 -0.369412 0
M  V30 7 C 0.804504 -0.729598 -1.612006 0
M  V30 8 Cl 1.132861 -1.724534 -3.011573 0
M  V30 9 C 0.847719 0.647205 -1.641716 0
M  V30 10 C 1.123319 1.562054 -2.636891 0
M  V30 11 Cl 1.517668 0.990319 -4.253861 0
M  V30 12 C 1.072053 2.911393 -2.295932 0
M  V30 13 C 0.749736 3.263709 -0.986206 0
M  V30 14 C 0.700753 4.684871 -0.646595 0
M  V30 15 N 0.371414 5.057516 0.693554 0
M  V30 16 O 0.934800 5.575082 -1.480344 0
M  V30 17 N 0.486432 2.312471 -0.043374 0
M  V30 18 C 0.530468 0.999491 -0.352019 0
M  V30 19 N 0.317185 -0.107374 0.377348 0
M  V30 20 C -0.036474 -0.063114 1.779311 0
M  V30 21 C 0.292608 1.236127 2.431638 0
M  V30 22 C 0.092317 1.053700 3.923210 0
M  V30 23 C -0.609153 -0.254377 4.227400 0
M  V30 24 N -1.757596 -0.499713 3.403524 0
M  V30 25 C -1.498673 -0.354397 1.993766 0
M  V30 26 H 0.215239 -7.421374 -0.037211 0
M  V30 27 H 1.910235 -7.748963 0.610763 0
M  V30 28 H 0.673771 -6.831657 1.603404 0
M  V30 29 H 0.003457 -4.985701 1.182583 0
M  V30 30 H -0.619233 -5.558957 -0.365753 0
M  V30 31 H 0.704329 -3.667738 -1.516006 0
M  V30 32 H 0.042939 -2.716899 1.193553 0
M  V30 33 H 1.286627 3.630309 -3.070031 0
M  V30 34 H -0.305604 5.798222 0.986453 0
M  V30 35 H 0.707361 4.701119 1.632343 0
M  V30 36 H 0.561847 -0.861972 2.305588 0
M  V30 37 H -0.466802 1.983723 2.112483 0
M  V30 38 H 1.317781 1.583949 2.270521 0
M  V30 39 H -0.452701 1.920145 4.374435 0
M  V30 40 H 1.083336 0.982535 4.430651 0
M  V30 41 H -1.006516 -0.143782 5.276305 0
M  V30 42 H 0.076452 -1.107744 4.272317 0
M  V30 43 H -2.034221 -1.491391 3.564321 0
M  V30 44 H -1.847665 -1.217339 1.386774 0
M  V30 45 H -2.067735 0.546359 1.641051 0
M  V30 END ATOM
M  V30 BEGIN BOND
M  V30 1 1 1 2
M  V30 2 1 2 3
M  V30 3 1 3 4
M  V30 4 2 4 5
M  V30 5 1 5 6
M  V30 6 2 6 7
M  V30 7 1 7 8
M  V30 8 1 7 9
M  V30 9 2 9 10
M  V30 10 1 10 11
M  V30 11 1 10 12
M  V30 12 2 12 13
M  V30 13 1 13 14
M  V30 14 1 14 15
M  V30 15 2 14 16
M  V30 16 1 13 17
M  V30 17 2 17 18
M  V30 18 1 18 19
M  V30 19 1 19 20
M  V30 20 1 20 21
M  V30 21 1 21 22
M  V30 22 1 22 23
M  V30 23 1 23 24
M  V30 24 1 24 25
M  V30 25 1 19 6
M  V30 26 1 25 20
M  V30 27 1 18 9
M  V30 28 1 1 26
M  V30 29 1 1 27
M  V30 30 1 1 28
M  V30 31 1 3 29
M  V30 32 1 3 30
M  V30 33 1 4 31
M  V30 34 1 5 32
M  V30 35 1 12 33
M  V30 36 1 15 34
M  V30 37 1 15 35
M  V30 38 1 20 36
M  V30 39 1 21 37
M  V30 40 1 21 38
M  V30 41 1 22 39
M  V30 42 1 22 40
M  V30 43 1 23 41
M  V30 44 1 23 42
M  V30 45 1 24 43
M  V30 46 1 25 44
M  V30 47 1 25 45
M  V30 END BOND
M  V30 END CTAB
M  END
>  <Dataset>  (69) 
ChEMBL_Kinases

>  <Ligand_Instance>  (69) 
nan

>  <PDB_ID>  (69) 
nan

>  <Standardized_SMILES>  (69) 
COC/C=C/c1c(Cl)c2c(Cl)cc(C(N)=O)nc2n1C1CCCNC1

>  <Name>  (69) 
nan

>  <Pocket>  (69) 
nan

>  <ATP_Site>  (69) 
nan

>  <Peripheral>  (69) 
nan

>  <Num_H_Atoms_ProtBoundConf>  (69) 
nan

>  <Num_Resolved_Atoms>  (69) 
nan

>  <Num_Not_Resolved_Atoms>  (69) 
nan

$$$$
CHEMBL3799218
     RDKit          3D

  0  0  0  0  0  0  0  0  0  0999 V3000
M  V30 BEGIN CTAB
M  V30 COUNTS 50 54 0 0 0
M  V30 BEGIN ATOM
M  V30 1 O 1.949104 1.498524 2.984642 0
M  V30 2 C 2.815805 0.769386 2.381858 0
M  V30 3 C 3.721303 0.272223 3.442434 0
M  V30 4 O 4.728707 -0.559168 2.913552 0
M  V30 5 C 4.473060 -1.740761 2.274187 0
M  V30 6 C 3.303432 -2.444485 1.969535 0
M  V30 7 C 3.352130 -3.643393 1.297759 0
M  V30 8 C 4.550722 -4.195255 0.900525 0
M  V30 9 C 5.724999 -3.529942 1.183417 0
M  V30 10 Cl 7.179532 -4.313534 0.637895 0
M  V30 11 C 5.680255 -2.309318 1.867002 0
M  V30 12 N 2.665690 0.660233 0.971812 0
M  V30 13 C 1.569520 1.366343 0.399902 0
M  V30 14 C 1.880635 2.679955 0.012141 0
M  V30 15 C 0.913847 3.453334 -0.546993 0
M  V30 16 C -0.356890 2.884571 -0.705934 0
M  V30 17 C -0.721805 1.611311 -0.348304 0
M  V30 18 C 0.287359 0.913577 0.195530 0
M  V30 19 C -2.098363 1.446021 -0.684347 0
M  V30 20 C -2.788243 0.374253 -0.493156 0
M  V30 21 N -4.154523 0.229634 -0.833802 0
M  V30 22 C -4.673184 -1.056707 -0.515021 0
M  V30 23 C -5.943052 -1.573032 -0.692653 0
M  V30 24 C -6.123375 -2.868874 -0.273026 0
M  V30 25 C -5.119287 -3.625009 0.291134 0
M  V30 26 C -3.883483 -3.040039 0.433985 0
M  V30 27 C -3.592978 -1.734849 0.042665 0
M  V30 28 C -2.421972 -0.887248 0.071307 0
M  V30 29 N -1.370901 -1.336875 0.537572 0
M  V30 30 O -1.148719 -2.565947 1.048746 0
M  V30 31 C -2.555294 2.693641 -1.269161 0
M  V30 32 O -3.677026 2.982168 -1.696785 0
M  V30 33 N -1.465274 3.605273 -1.286748 0
M  V30 34 H 4.184130 1.134432 3.979356 0
M  V30 35 H 3.150206 -0.266322 4.242413 0
M  V30 36 H 2.449430 -1.886096 2.344618 0
M  V30 37 H 2.349675 -4.045825 1.148507 0
M  V30 38 H 4.479207 -5.127190 0.386520 0
M  V30 39 H 6.692898 -1.929011 2.003164 0
M  V30 40 H 3.453622 0.046562 0.629931 0
M  V30 41 H 2.868126 3.096270 0.144991 0
M  V30 42 H 1.159531 4.445350 -0.836735 0
M  V30 43 H 0.254159 -0.066291 0.541872 0
M  V30 44 H -4.732162 0.977751 -1.272297 0
M  V30 45 H -6.733710 -0.984853 -1.134262 0
M  V30 46 H -7.113148 -3.280209 -0.408241 0
M  V30 47 H -5.332710 -4.639297 0.598787 0
M  V30 48 H -3.152652 -3.674478 0.875212 0
M  V30 49 H -0.268595 -3.049491 1.071120 0
M  V30 50 H -1.508215 4.591249 -1.657359 0
M  V30 END ATOM
M  V30 BEGIN BOND
M  V30 1 2 1 2
M  V30 2 1 2 3
M  V30 3 1 3 4
M  V30 4 1 4 5
M  V30 5 2 5 6
M  V30 6 1 6 7
M  V30 7 2 7 8
M  V30 8 1 8 9
M  V30 9 1 9 10
M  V30 10 2 9 11
M  V30 11 1 2 12
M  V30 12 1 12 13
M  V30 13 2 13 14
M  V30 14 1 14 15
M  V30 15 2 15 16
M  V30 16 1 16 17
M  V30 17 2 17 18
M  V30 18 1 17 19
M  V30 19 2 19 20
M  V30 20 1 20 21
M  V30 21 1 21 22
M  V30 22 2 22 23
M  V30 23 1 23 24
M  V30 24 2 24 25
M  V30 25 1 25 26
M  V30 26 2 26 27
M  V30 27 1 27 28
M  V30 28 2 28 29
M  V30 29 1 29 30
M  V30 30 1 19 31
M  V30 31 2 31 32
M  V30 32 1 31 33
M  V30 33 1 11 5
M  V30 34 1 18 13
M  V30 35 1 28 20
M  V30 36 1 33 16
M  V30 37 1 27 22
M  V30 38 1 3 34
M  V30 39 1 3 35
M  V30 40 1 6 36
M  V30 41 1 7 37
M  V30 42 1 8 38
M  V30 43 1 11 39
M  V30 44 1 12 40
M  V30 45 1 14 41
M  V30 46 1 15 42
M  V30 47 1 18 43
M  V30 48 1 21 44
M  V30 49 1 23 45
M  V30 50 1 24 46
M  V30 51 1 25 47
M  V30 52 1 26 48
M  V30 53 1 30 49
M  V30 54 1 33 50
M  V30 END BOND
M  V30 END CTAB
M  END
>  <Dataset>  (70) 
ChEMBL_Kinases

>  <Ligand_Instance>  (70) 
nan

>  <PDB_ID>  (70) 
nan

>  <Standardized_SMILES>  (70) 
O=C(COc1cccc(Cl)c1)Nc1ccc2c(c1)/C(=C1/Nc3ccccc3/C1=N\O)C(=O)N2

>  <Name>  (70) 
nan

>  <Pocket>  (70) 
nan

>  <ATP_Site>  (70) 
nan

>  <Peripheral>  (70) 
nan

>  <Num_H_Atoms_ProtBoundConf>  (70) 
nan

>  <Num_Resolved_Atoms>  (70) 
nan

>  <Num_Not_Resolved_Atoms>  (70) 
nan

$$$$
CHEMBL4096379
     RDKit          3D

  0  0  0  0  0  0  0  0  0  0999 V3000
M  V30 BEGIN CTAB
M  V30 COUNTS 44 48 0 0 0
M  V30 BEGIN ATOM
M  V30 1 C -1.780778 -4.390842 2.669219 0
M  V30 2 C -0.944661 -4.378192 1.440438 0
M  V30 3 C -0.491952 -3.202912 0.925210 0
M  V30 4 C 0.285931 -3.077539 -0.203541 0
M  V30 5 C 0.808930 -1.856695 -0.802789 0
M  V30 6 C 0.946803 -1.898371 -2.198495 0
M  V30 7 C 1.432635 -0.862770 -2.966223 0
M  V30 8 C 1.805551 0.286911 -2.308224 0
M  V30 9 N 2.289675 1.297786 -3.056392 0
M  V30 10 C 2.678196 2.441307 -2.465406 0
M  V30 11 C 2.556442 2.511679 -1.115550 0
M  V30 12 N 2.858228 3.493112 -0.269730 0
M  V30 13 N 2.567707 3.096076 0.951356 0
M  V30 14 N 2.065234 1.845364 0.965001 0
M  V30 15 C 1.673610 1.277044 2.214507 0
M  V30 16 C 0.285022 1.631784 2.605633 0
M  V30 17 C 0.054793 2.831231 3.307103 0
M  V30 18 C -1.139731 3.346375 3.760677 0
M  V30 19 C -2.252511 2.582619 3.489092 0
M  V30 20 F -3.459878 3.028227 3.905714 0
M  V30 21 C -2.144725 1.390282 2.808618 0
M  V30 22 C -0.903297 0.969738 2.401328 0
M  V30 23 C 2.065995 1.498938 -0.323121 0
M  V30 24 C 1.684017 0.364023 -0.939635 0
M  V30 25 C 1.198336 -0.677715 -0.198970 0
M  V30 26 C 0.585471 -4.305806 -0.802260 0
M  V30 27 C 0.135236 -5.504885 -0.293882 0
M  V30 28 N -0.625566 -5.530008 0.822659 0
M  V30 29 H -1.214091 -4.130886 3.585421 0
M  V30 30 H -2.325590 -5.348338 2.758989 0
M  V30 31 H -2.565643 -3.620127 2.502026 0
M  V30 32 H -0.748886 -2.279994 1.422005 0
M  V30 33 H 0.667121 -2.776178 -2.759964 0
M  V30 34 H 1.525792 -0.924029 -4.027136 0
M  V30 35 H 3.062479 3.235139 -3.088794 0
M  V30 36 H 1.973306 0.244829 2.425628 0
M  V30 37 H 2.293528 1.809710 3.038852 0
M  V30 38 H 0.936193 3.455920 3.532828 0
M  V30 39 H -1.167256 4.286673 4.289411 0
M  V30 40 H -3.004815 0.775768 2.584913 0
M  V30 41 H -0.849927 0.039521 1.874874 0
M  V30 42 H 1.047161 -0.761284 0.844706 0
M  V30 43 H 1.179955 -4.420792 -1.689575 0
M  V30 44 H 0.353846 -6.463511 -0.738934 0
M  V30 END ATOM
M  V30 BEGIN BOND
M  V30 1 1 1 2
M  V30 2 2 2 3
M  V30 3 1 3 4
M  V30 4 1 4 5
M  V30 5 2 5 6
M  V30 6 1 6 7
M  V30 7 2 7 8
M  V30 8 1 8 9
M  V30 9 2 9 10
M  V30 10 1 10 11
M  V30 11 1 11 12
M  V30 12 2 12 13
M  V30 13 1 13 14
M  V30 14 1 14 15
M  V30 15 1 15 16
M  V30 16 2 16 17
M  V30 17 1 17 18
M  V30 18 2 18 19
M  V30 19 1 19 20
M  V30 20 1 19 21
M  V30 21 2 21 22
M  V30 22 1 14 23
M  V30 23 1 23 24
M  V30 24 2 24 25
M  V30 25 2 4 26
M  V30 26 1 26 27
M  V30 27 2 27 28
M  V30 28 1 28 2
M  V30 29 1 25 5
M  V30 30 1 24 8
M  V30 31 2 23 11
M  V30 32 1 22 16
M  V30 33 1 1 29
M  V30 34 1 1 30
M  V30 35 1 1 31
M  V30 36 1 3 32
M  V30 37 1 6 33
M  V30 38 1 7 34
M  V30 39 1 10 35
M  V30 40 1 15 36
M  V30 41 1 15 37
M  V30 42 1 17 38
M  V30 43 1 18 39
M  V30 44 1 21 40
M  V30 45 1 22 41
M  V30 46 1 25 42
M  V30 47 1 26 43
M  V30 48 1 27 44
M  V30 END BOND
M  V30 END CTAB
M  END
>  <Dataset>  (71) 
ChEMBL_Kinases

>  <Ligand_Instance>  (71) 
nan

>  <PDB_ID>  (71) 
nan

>  <Standardized_SMILES>  (71) 
Cc1cc(-c2ccc3ncc4nnn(Cc5ccc(F)cc5)c4c3c2)ccn1

>  <Name>  (71) 
nan

>  <Pocket>  (71) 
nan

>  <ATP_Site>  (71) 
nan

>  <Peripheral>  (71) 
nan

>  <Num_H_Atoms_ProtBoundConf>  (71) 
nan

>  <Num_Resolved_Atoms>  (71) 
nan

>  <Num_Not_Resolved_Atoms>  (71) 
nan

$$$$
CHEMBL4096206
     RDKit          3D

  0  0  0  0  0  0  0  0  0  0999 V3000
M  V30 BEGIN CTAB
M  V30 COUNTS 31 33 0 0 0
M  V30 BEGIN ATOM
M  V30 1 N 0.260172 -0.539208 5.531676 0
M  V30 2 C -0.360949 -0.834291 4.270769 0
M  V30 3 N 0.293254 -0.656564 3.124946 0
M  V30 4 C -0.301702 -0.937482 1.949376 0
M  V30 5 C 0.494814 -0.710420 0.749227 0
M  V30 6 C 0.642050 -1.532517 -0.349004 0
M  V30 7 C 1.446420 -1.143711 -1.400272 0
M  V30 8 C 2.138302 0.049165 -1.434005 0
M  V30 9 S 3.102978 0.376430 -2.835867 0
M  V30 10 N 2.229603 1.208849 -4.077199 0
M  V30 11 O 3.642944 -0.942505 -3.368372 0
M  V30 12 O 4.283179 1.209688 -2.469637 0
M  V30 13 C 1.997744 0.879079 -0.339814 0
M  V30 14 C 1.195999 0.500385 0.716979 0
M  V30 15 C -1.597430 -1.409685 1.983945 0
M  V30 16 C -2.415259 -1.764964 0.937809 0
M  V30 17 C -3.600923 -2.168833 1.492550 0
M  V30 18 N -3.488566 -2.055641 2.835234 0
M  V30 19 C -2.278601 -1.595279 3.166963 0
M  V30 20 N -1.640999 -1.300407 4.312147 0
M  V30 21 H 0.821036 -1.412225 5.756539 0
M  V30 22 H 0.316765 0.228957 6.240981 0
M  V30 23 H 0.090156 -2.451428 -0.288409 0
M  V30 24 H 1.507615 -1.857858 -2.234445 0
M  V30 25 H 1.198159 1.132503 -3.827395 0
M  V30 26 H 2.367828 0.703329 -5.002451 0
M  V30 27 H 2.536333 1.810227 -0.363459 0
M  V30 28 H 1.163195 1.236956 1.522862 0
M  V30 29 H -2.193538 -1.740089 -0.112253 0
M  V30 30 H -4.456312 -2.513348 0.903104 0
M  V30 31 H -4.239631 -2.293424 3.522939 0
M  V30 END ATOM
M  V30 BEGIN BOND
M  V30 1 1 1 2
M  V30 2 2 2 3
M  V30 3 1 3 4
M  V30 4 1 4 5
M  V30 5 2 5 6
M  V30 6 1 6 7
M  V30 7 2 7 8
M  V30 8 1 8 9
M  V30 9 1 9 10
M  V30 10 2 9 11
M  V30 11 2 9 12
M  V30 12 1 8 13
M  V30 13 2 13 14
M  V30 14 2 4 15
M  V30 15 1 15 16
M  V30 16 2 16 17
M  V30 17 1 17 18
M  V30 18 1 18 19
M  V30 19 2 19 20
M  V30 20 1 20 2
M  V30 21 1 14 5
M  V30 22 1 19 15
M  V30 23 1 1 21
M  V30 24 1 1 22
M  V30 25 1 6 23
M  V30 26 1 7 24
M  V30 27 1 10 25
M  V30 28 1 10 26
M  V30 29 1 13 27
M  V30 30 1 14 28
M  V30 31 1 16 29
M  V30 32 1 17 30
M  V30 33 1 18 31
M  V30 END BOND
M  V30 END CTAB
M  END
>  <Dataset>  (72) 
ChEMBL_Kinases

>  <Ligand_Instance>  (72) 
nan

>  <PDB_ID>  (72) 
nan

>  <Standardized_SMILES>  (72) 
Nc1nc(-c2ccc(S(N)(=O)=O)cc2)c2cc[nH]c2n1

>  <Name>  (72) 
nan

>  <Pocket>  (72) 
nan

>  <ATP_Site>  (72) 
nan

>  <Peripheral>  (72) 
nan

>  <Num_H_Atoms_ProtBoundConf>  (72) 
nan

>  <Num_Resolved_Atoms>  (72) 
nan

>  <Num_Not_Resolved_Atoms>  (72) 
nan

$$$$
CHEMBL3409588
     RDKit          3D

  0  0  0  0  0  0  0  0  0  0999 V3000
M  V30 BEGIN CTAB
M  V30 COUNTS 53 56 0 0 0
M  V30 BEGIN ATOM
M  V30 1 O -0.988172 -3.449567 -0.338913 0
M  V30 2 C -1.223173 -2.286400 -0.754664 0
M  V30 3 C -0.286196 -1.340912 -0.349289 0
M  V30 4 C -0.416015 -0.037546 -0.727383 0
M  V30 5 C 0.577427 0.935142 -0.290871 0
M  V30 6 C 0.567996 2.275211 -0.597826 0
M  V30 7 C 1.563768 3.128697 -0.133021 0
M  V30 8 N 2.560693 2.639763 0.633813 0
M  V30 9 C 2.579474 1.330364 0.940050 0
M  V30 10 N 3.632982 0.793205 1.754980 0
M  V30 11 C 4.667069 1.680601 2.237420 0
M  V30 12 C 5.645733 0.856302 3.067332 0
M  V30 13 C 4.906849 0.131394 4.169376 0
M  V30 14 O 3.854049 0.932354 4.630278 0
M  V30 15 C 4.250180 2.269906 4.590559 0
M  V30 16 C 4.094568 2.749464 3.152148 0
M  V30 17 N 1.603963 0.530009 0.476675 0
M  V30 18 C -1.494975 0.302504 -1.514896 0
M  V30 19 C -2.370694 -0.702841 -1.866460 0
M  V30 20 N -2.299347 -1.997448 -1.528800 0
M  V30 21 C -3.223861 -3.011440 -1.911133 0 CFG=2
M  V30 22 C -4.206837 -2.471240 -2.922311 0
M  V30 23 O -3.588977 -2.008900 -4.089642 0
M  V30 24 C -4.009576 -3.599293 -0.804029 0
M  V30 25 C -5.121245 -2.980209 -0.251344 0
M  V30 26 C -5.885344 -3.493841 0.775453 0
M  V30 27 C -5.532878 -4.715310 1.306434 0
M  V30 28 Cl -6.491795 -5.379572 2.608727 0
M  V30 29 C -4.442158 -5.389000 0.809740 0
M  V30 30 F -4.137250 -6.576050 1.358916 0
M  V30 31 C -3.729919 -4.814898 -0.213169 0
M  V30 32 H 0.559590 -1.608534 0.268255 0
M  V30 33 H -0.230360 2.653105 -1.208858 0
M  V30 34 H 1.461967 4.171266 -0.434094 0
M  V30 35 H 3.627746 -0.219602 1.978818 0
M  V30 36 H 5.273375 2.119058 1.418686 0
M  V30 37 H 6.101237 0.101678 2.385266 0
M  V30 38 H 6.470051 1.473400 3.462852 0
M  V30 39 H 5.556800 -0.085828 5.032040 0
M  V30 40 H 4.498750 -0.803102 3.728901 0
M  V30 41 H 3.654721 2.907366 5.268526 0
M  V30 42 H 5.309142 2.357154 4.927135 0
M  V30 43 H 3.008528 2.811659 2.965610 0
M  V30 44 H 4.577201 3.740088 2.999068 0
M  V30 45 H -1.631434 1.322927 -1.833879 0
M  V30 46 H -3.191283 -0.366106 -2.484198 0
M  V30 47 H -2.611301 -3.844358 -2.348623 0
M  V30 48 H -4.931662 -3.285151 -3.205988 0
M  V30 49 H -4.765469 -1.620731 -2.488309 0
M  V30 50 H -3.127378 -2.752923 -4.568771 0
M  V30 51 H -5.450123 -2.022497 -0.620308 0
M  V30 52 H -6.743161 -2.967032 1.168076 0
M  V30 53 H -2.887211 -5.396269 -0.560754 0
M  V30 END ATOM
M  V30 BEGIN BOND
M  V30 1 2 1 2
M  V30 2 1 2 3
M  V30 3 2 3 4
M  V30 4 1 4 5
M  V30 5 2 5 6
M  V30 6 1 6 7
M  V30 7 2 7 8
M  V30 8 1 8 9
M  V30 9 1 9 10
M  V30 10 1 10 11
M  V30 11 1 11 12
M  V30 12 1 12 13
M  V30 13 1 13 14
M  V30 14 1 14 15
M  V30 15 1 15 16
M  V30 16 2 9 17
M  V30 17 1 4 18
M  V30 18 2 18 19
M  V30 19 1 19 20
M  V30 20 1 20 21
M  V30 21 1 21 22
M  V30 22 1 22 23
M  V30 23 1 21 24
M  V30 24 2 24 25
M  V30 25 1 25 26
M  V30 26 2 26 27
M  V30 27 1 27 28
M  V30 28 1 27 29
M  V30 29 1 29 30
M  V30 30 2 29 31
M  V30 31 1 20 2
M  V30 32 1 31 24
M  V30 33 1 17 5
M  V30 34 1 16 11
M  V30 35 1 3 32
M  V30 36 1 6 33
M  V30 37 1 7 34
M  V30 38 1 10 35
M  V30 39 1 11 36
M  V30 40 1 12 37
M  V30 41 1 12 38
M  V30 42 1 13 39
M  V30 43 1 13 40
M  V30 44 1 15 41
M  V30 45 1 15 42
M  V30 46 1 16 43
M  V30 47 1 16 44
M  V30 48 1 18 45
M  V30 49 1 19 46
M  V30 50 1 21 47 CFG=3
M  V30 51 1 22 48
M  V30 52 1 22 49
M  V30 53 1 23 50
M  V30 54 1 25 51
M  V30 55 1 26 52
M  V30 56 1 31 53
M  V30 END BOND
M  V30 END CTAB
M  END
>  <Dataset>  (73) 
ChEMBL_Kinases

>  <Ligand_Instance>  (73) 
nan

>  <PDB_ID>  (73) 
nan

>  <Standardized_SMILES>  (73) 
O=c1cc(-c2ccnc(NC3CCOCC3)n2)ccn1[C@H](CO)c1ccc(Cl)c(F)c1

>  <Name>  (73) 
nan

>  <Pocket>  (73) 
nan

>  <ATP_Site>  (73) 
nan

>  <Peripheral>  (73) 
nan

>  <Num_H_Atoms_ProtBoundConf>  (73) 
nan

>  <Num_Resolved_Atoms>  (73) 
nan

>  <Num_Not_Resolved_Atoms>  (73) 
nan

$$$$
CHEMBL4095674
     RDKit          3D

  0  0  0  0  0  0  0  0  0  0999 V3000
M  V30 BEGIN CTAB
M  V30 COUNTS 46 49 0 0 0
M  V30 BEGIN ATOM
M  V30 1 C -2.950148 -4.504611 2.824795 0
M  V30 2 C -2.124935 -4.005802 1.826913 0
M  V30 3 C -1.781769 -2.660461 1.778607 0
M  V30 4 C -0.911247 -2.283074 0.676383 0
M  V30 5 C 0.230248 -1.486737 0.705719 0
M  V30 6 N 0.777799 -1.361589 -0.523447 0
M  V30 7 C 1.949538 -0.619638 -0.854248 0
M  V30 8 C 1.727492 0.811703 -1.230259 0
M  V30 9 C 1.089697 1.637149 -0.174791 0
M  V30 10 N 1.757054 1.762902 1.062888 0
M  V30 11 C 2.981454 2.496065 1.074561 0
M  V30 12 C 3.472788 2.462857 2.519618 0
M  V30 13 O 2.685285 3.377552 3.204138 0
M  V30 14 C 1.337867 3.204507 3.030450 0
M  V30 15 C 0.914993 2.074030 2.159832 0
M  V30 16 C 0.000421 -2.074085 -1.367287 0
M  V30 17 C 0.121205 -2.271347 -2.731990 0
M  V30 18 N -0.800238 -3.041120 -3.377401 0
M  V30 19 C -1.823930 -3.612502 -2.714402 0
M  V30 20 C -1.937703 -3.411816 -1.355008 0
M  V30 21 C -1.035196 -2.642935 -0.650600 0
M  V30 22 C -2.292960 -1.820865 2.767507 0
M  V30 23 C -3.115299 -2.355633 3.749965 0
M  V30 24 N -3.437084 -3.664583 3.779643 0
M  V30 25 H -3.272241 -5.526701 2.947235 0
M  V30 26 H -1.835045 -4.810648 1.161259 0
M  V30 27 H 0.628992 -1.025014 1.602177 0
M  V30 28 H 2.638399 -0.637223 0.021701 0
M  V30 29 H 2.533020 -1.108343 -1.676417 0
M  V30 30 H 2.689867 1.195460 -1.609096 0
M  V30 31 H 1.036716 0.815779 -2.105088 0
M  V30 32 H 0.856010 2.654737 -0.548667 0
M  V30 33 H 0.092209 1.177318 0.036511 0
M  V30 34 H 2.748383 3.561325 0.848936 0
M  V30 35 H 3.732957 2.172272 0.366696 0
M  V30 36 H 4.526233 2.722612 2.629770 0
M  V30 37 H 3.196630 1.461781 2.946120 0
M  V30 38 H 0.865367 4.189120 2.744177 0
M  V30 39 H 0.901288 2.999905 4.052252 0
M  V30 40 H -0.077162 2.374481 1.722374 0
M  V30 41 H 0.681044 1.143221 2.732833 0
M  V30 42 H 0.938280 -1.824267 -3.302479 0
M  V30 43 H -2.568756 -4.229077 -3.219371 0
M  V30 44 H -2.763000 -3.872741 -0.830366 0
M  V30 45 H -1.999315 -0.792394 2.686010 0
M  V30 46 H -3.496913 -1.698038 4.499751 0
M  V30 END ATOM
M  V30 BEGIN BOND
M  V30 1 2 1 2
M  V30 2 1 2 3
M  V30 3 1 3 4
M  V30 4 2 4 5
M  V30 5 1 5 6
M  V30 6 1 6 7
M  V30 7 1 7 8
M  V30 8 1 8 9
M  V30 9 1 9 10
M  V30 10 1 10 11
M  V30 11 1 11 12
M  V30 12 1 12 13
M  V30 13 1 13 14
M  V30 14 1 14 15
M  V30 15 1 6 16
M  V30 16 2 16 17
M  V30 17 1 17 18
M  V30 18 2 18 19
M  V30 19 1 19 20
M  V30 20 2 20 21
M  V30 21 2 3 22
M  V30 22 1 22 23
M  V30 23 2 23 24
M  V30 24 1 24 1
M  V30 25 1 21 4
M  V30 26 1 15 10
M  V30 27 1 21 16
M  V30 28 1 1 25
M  V30 29 1 2 26
M  V30 30 1 5 27
M  V30 31 1 7 28
M  V30 32 1 7 29
M  V30 33 1 8 30
M  V30 34 1 8 31
M  V30 35 1 9 32
M  V30 36 1 9 33
M  V30 37 1 11 34
M  V30 38 1 11 35
M  V30 39 1 12 36
M  V30 40 1 12 37
M  V30 41 1 14 38
M  V30 42 1 14 39
M  V30 43 1 15 40
M  V30 44 1 15 41
M  V30 45 1 17 42
M  V30 46 1 19 43
M  V30 47 1 20 44
M  V30 48 1 22 45
M  V30 49 1 23 46
M  V30 END BOND
M  V30 END CTAB
M  END
>  <Dataset>  (74) 
ChEMBL_Kinases

>  <Ligand_Instance>  (74) 
nan

>  <PDB_ID>  (74) 
nan

>  <Standardized_SMILES>  (74) 
c1cc(-c2cn(CCCN3CCOCC3)c3cnccc23)ccn1

>  <Name>  (74) 
nan

>  <Pocket>  (74) 
nan

>  <ATP_Site>  (74) 
nan

>  <Peripheral>  (74) 
nan

>  <Num_H_Atoms_ProtBoundConf>  (74) 
nan

>  <Num_Resolved_Atoms>  (74) 
nan

>  <Num_Not_Resolved_Atoms>  (74) 
nan

$$$$
CHEMBL3799256
     RDKit          3D

  0  0  0  0  0  0  0  0  0  0999 V3000
M  V30 BEGIN CTAB
M  V30 COUNTS 48 52 0 0 0
M  V30 BEGIN ATOM
M  V30 1 O 0.744158 -5.968506 2.467660 0
M  V30 2 C 1.037555 -4.762239 2.297169 0
M  V30 3 N 2.307707 -4.232452 2.647479 0
M  V30 4 C 2.229440 -2.842516 2.295925 0
M  V30 5 C 3.293365 -1.951578 2.485632 0
M  V30 6 C 3.124050 -0.655125 2.121832 0
M  V30 7 C 1.888802 -0.269162 1.572114 0
M  V30 8 N 1.824077 1.114898 1.226950 0
M  V30 9 C 2.151599 1.795895 0.006084 0
M  V30 10 O 2.551708 1.006222 -0.859177 0
M  V30 11 C 1.976560 3.234427 -0.037473 0
M  V30 12 C 1.526864 4.089532 0.947844 0
M  V30 13 C 1.440650 5.439499 0.678620 0
M  V30 14 C 1.793582 5.953873 -0.552593 0
M  V30 15 N 1.644608 7.364260 -0.661523 0 CHG=1 VAL=4
M  V30 16 O 1.915416 8.000228 -1.699367 0
M  V30 17 O 1.197887 8.221403 0.314259 0 CHG=-1 VAL=1
M  V30 18 C 2.244979 5.113336 -1.548513 0
M  V30 19 C 2.329423 3.745727 -1.267296 0
M  V30 20 C 0.906369 -1.215732 1.425673 0
M  V30 21 C 1.008009 -2.511530 1.764109 0
M  V30 22 C 0.217155 -3.701768 1.745552 0
M  V30 23 C -0.984863 -3.794635 1.319269 0
M  V30 24 N -1.758585 -4.982060 1.306430 0
M  V30 25 C -3.060205 -4.792954 0.777651 0
M  V30 26 C -4.087664 -5.714932 0.608708 0
M  V30 27 C -5.242765 -5.209270 0.061086 0
M  V30 28 C -5.391826 -3.900182 -0.298074 0
M  V30 29 C -4.333630 -3.049453 -0.101154 0
M  V30 30 C -3.109101 -3.446991 0.447253 0
M  V30 31 C -1.855043 -2.800986 0.764620 0
M  V30 32 N -1.742316 -1.592520 0.526339 0
M  V30 33 O -2.638952 -0.757447 -0.001387 0
M  V30 34 H 3.093852 -4.781058 3.067611 0
M  V30 35 H 4.241769 -2.236615 2.905074 0
M  V30 36 H 3.933144 0.044062 2.261078 0
M  V30 37 H 1.466476 1.567178 2.098157 0
M  V30 38 H 1.277645 3.585713 1.871561 0
M  V30 39 H 1.069649 5.995907 1.549087 0
M  V30 40 H 2.508107 5.567564 -2.493763 0
M  V30 41 H 2.699417 3.193054 -2.136269 0
M  V30 42 H 0.085737 -0.748296 1.011521 0
M  V30 43 H -1.408133 -5.902371 1.650448 0
M  V30 44 H -3.980052 -6.734733 0.885330 0
M  V30 45 H -6.048818 -5.911830 -0.076261 0
M  V30 46 H -6.321767 -3.574285 -0.720109 0
M  V30 47 H -4.503927 -2.039394 -0.398871 0
M  V30 48 H -2.518086 -0.119367 -0.761566 0
M  V30 END ATOM
M  V30 BEGIN BOND
M  V30 1 2 1 2
M  V30 2 1 2 3
M  V30 3 1 3 4
M  V30 4 2 4 5
M  V30 5 1 5 6
M  V30 6 2 6 7
M  V30 7 1 7 8
M  V30 8 1 8 9
M  V30 9 2 9 10
M  V30 10 1 9 11
M  V30 11 2 11 12
M  V30 12 1 12 13
M  V30 13 2 13 14
M  V30 14 1 14 15
M  V30 15 2 15 16
M  V30 16 1 15 17
M  V30 17 1 14 18
M  V30 18 2 18 19
M  V30 19 1 7 20
M  V30 20 2 20 21
M  V30 21 1 21 22
M  V30 22 2 22 23
M  V30 23 1 23 24
M  V30 24 1 24 25
M  V30 25 2 25 26
M  V30 26 1 26 27
M  V30 27 2 27 28
M  V30 28 1 28 29
M  V30 29 2 29 30
M  V30 30 1 30 31
M  V30 31 2 31 32
M  V30 32 1 32 33
M  V30 33 1 22 2
M  V30 34 1 31 23
M  V30 35 1 21 4
M  V30 36 1 30 25
M  V30 37 1 19 11
M  V30 38 1 3 34
M  V30 39 1 5 35
M  V30 40 1 6 36
M  V30 41 1 8 37
M  V30 42 1 12 38
M  V30 43 1 13 39
M  V30 44 1 18 40
M  V30 45 1 19 41
M  V30 46 1 20 42
M  V30 47 1 24 43
M  V30 48 1 26 44
M  V30 49 1 27 45
M  V30 50 1 28 46
M  V30 51 1 29 47
M  V30 52 1 33 48
M  V30 END BOND
M  V30 END CTAB
M  END
>  <Dataset>  (75) 
ChEMBL_Kinases

>  <Ligand_Instance>  (75) 
nan

>  <PDB_ID>  (75) 
nan

>  <Standardized_SMILES>  (75) 
O=C1Nc2ccc(NC(=O)c3ccc([N+](=O)[O-])cc3)cc2/C1=C1/Nc2ccccc2/C1=N\O

>  <Name>  (75) 
nan

>  <Pocket>  (75) 
nan

>  <ATP_Site>  (75) 
nan

>  <Peripheral>  (75) 
nan

>  <Num_H_Atoms_ProtBoundConf>  (75) 
nan

>  <Num_Resolved_Atoms>  (75) 
nan

>  <Num_Not_Resolved_Atoms>  (75) 
nan

$$$$
CHEMBL4095624
     RDKit          3D

  0  0  0  0  0  0  0  0  0  0999 V3000
M  V30 BEGIN CTAB
M  V30 COUNTS 31 33 0 0 0
M  V30 BEGIN ATOM
M  V30 1 N -0.260992 1.365228 3.873662 0
M  V30 2 C 0.660565 1.088384 3.232952 0
M  V30 3 C 1.815287 0.746992 2.460619 0
M  V30 4 C 3.103238 0.998617 2.917186 0
M  V30 5 N 3.985640 0.559896 2.002168 0
M  V30 6 C 3.317280 0.033287 0.969452 0
M  V30 7 N 3.660806 -0.556072 -0.197593 0
M  V30 8 C 2.682648 -1.005867 -1.037428 0
M  V30 9 N 3.184985 -1.604619 -2.227384 0
M  V30 10 N 1.376228 -0.885549 -0.750219 0
M  V30 11 C 0.964958 -0.298787 0.412299 0
M  V30 12 C -0.459341 -0.253225 0.569187 0
M  V30 13 C -1.331112 0.774024 0.856871 0
M  V30 14 C -2.686907 0.610563 0.994882 0
M  V30 15 C -3.257991 -0.623825 0.847450 0
M  V30 16 C -2.445710 -1.699370 0.557765 0
M  V30 17 C -3.080882 -3.032462 0.400354 0
M  V30 18 O -3.411615 -3.157733 -0.951825 0
M  V30 19 C -1.089254 -1.491428 0.427888 0
M  V30 20 C 1.971504 0.142252 1.237259 0
M  V30 21 H 3.400475 1.460923 3.834735 0
M  V30 22 H 5.036108 0.582632 2.007963 0
M  V30 23 H 2.896429 -0.934532 -2.973531 0
M  V30 24 H 3.724881 -2.497824 -2.411780 0
M  V30 25 H -0.853350 1.735979 0.950842 0
M  V30 26 H -3.258120 1.501421 1.222295 0
M  V30 27 H -4.330237 -0.655168 0.973902 0
M  V30 28 H -2.308982 -3.792382 0.702351 0
M  V30 29 H -3.994766 -3.120789 1.049424 0
M  V30 30 H -3.313814 -4.104924 -1.234890 0
M  V30 31 H -0.543323 -2.409956 0.198608 0
M  V30 END ATOM
M  V30 BEGIN BOND
M  V30 1 3 1 2
M  V30 2 1 2 3
M  V30 3 2 3 4
M  V30 4 1 4 5
M  V30 5 1 5 6
M  V30 6 2 6 7
M  V30 7 1 7 8
M  V30 8 1 8 9
M  V30 9 2 8 10
M  V30 10 1 10 11
M  V30 11 1 11 12
M  V30 12 2 12 13
M  V30 13 1 13 14
M  V30 14 2 14 15
M  V30 15 1 15 16
M  V30 16 1 16 17
M  V30 17 1 17 18
M  V30 18 2 16 19
M  V30 19 2 11 20
M  V30 20 1 20 3
M  V30 21 1 20 6
M  V30 22 1 19 12
M  V30 23 1 4 21
M  V30 24 1 5 22
M  V30 25 1 9 23
M  V30 26 1 9 24
M  V30 27 1 13 25
M  V30 28 1 14 26
M  V30 29 1 15 27
M  V30 30 1 17 28
M  V30 31 1 17 29
M  V30 32 1 18 30
M  V30 33 1 19 31
M  V30 END BOND
M  V30 END CTAB
M  END
>  <Dataset>  (76) 
ChEMBL_Kinases

>  <Ligand_Instance>  (76) 
nan

>  <PDB_ID>  (76) 
nan

>  <Standardized_SMILES>  (76) 
N#Cc1c[nH]c2nc(N)nc(-c3cccc(CO)c3)c12

>  <Name>  (76) 
nan

>  <Pocket>  (76) 
nan

>  <ATP_Site>  (76) 
nan

>  <Peripheral>  (76) 
nan

>  <Num_H_Atoms_ProtBoundConf>  (76) 
nan

>  <Num_Resolved_Atoms>  (76) 
nan

>  <Num_Not_Resolved_Atoms>  (76) 
nan

$$$$
CHEMBL3799269
     RDKit          3D

  0  0  0  0  0  0  0  0  0  0999 V3000
M  V30 BEGIN CTAB
M  V30 COUNTS 52 57 0 0 0
M  V30 BEGIN ATOM
M  V30 1 O 0.398093 -5.951875 3.073843 0
M  V30 2 C 0.706513 -4.728020 3.021466 0
M  V30 3 N 1.450939 -3.980723 3.983530 0
M  V30 4 C 1.495977 -2.687972 3.408381 0
M  V30 5 C 2.169287 -1.652184 4.051300 0
M  V30 6 C 2.210480 -0.406135 3.435477 0
M  V30 7 C 1.571908 -0.239645 2.181972 0
M  V30 8 N 1.621817 1.053361 1.579795 0
M  V30 9 C 1.570029 1.396922 0.161956 0
M  V30 10 O 1.492877 0.421928 -0.602763 0
M  V30 11 C 1.621436 2.864209 -0.002699 0
M  V30 12 C 2.687877 3.580006 -0.492446 0
M  V30 13 C 2.577273 4.967340 -0.599954 0
M  V30 14 C 1.391643 5.565618 -0.201493 0
M  V30 15 C 0.331171 4.823642 0.292070 0
M  V30 16 C -0.852214 5.441174 0.694967 0
M  V30 17 C -1.923666 4.741852 1.192791 0
M  V30 18 C -1.817168 3.379206 1.295374 0
M  V30 19 C -0.653301 2.708648 0.905349 0
M  V30 20 C 0.409316 3.437849 0.408155 0
M  V30 21 C 0.938230 -1.369160 1.671712 0
M  V30 22 C 0.850025 -2.605497 2.205236 0
M  V30 23 C 0.303644 -3.900572 1.885659 0
M  V30 24 C -0.330238 -4.169387 0.820415 0
M  V30 25 N -0.826000 -5.472823 0.476775 0
M  V30 26 C -1.594095 -5.475363 -0.722620 0
M  V30 27 C -2.236309 -6.504869 -1.370217 0
M  V30 28 C -2.919551 -6.189823 -2.526543 0
M  V30 29 C -2.969487 -4.909871 -3.026810 0
M  V30 30 C -2.303880 -3.933201 -2.323861 0
M  V30 31 C -1.587367 -4.157309 -1.148084 0
M  V30 32 C -0.830645 -3.336600 -0.240018 0
M  V30 33 N -0.747641 -2.124700 -0.453939 0
M  V30 34 O -1.255621 -1.429969 -1.486698 0
M  V30 35 H 1.818388 -4.387171 4.866677 0
M  V30 36 H 2.673292 -1.682274 4.982366 0
M  V30 37 H 2.718657 0.432554 3.880014 0
M  V30 38 H 1.696513 1.833783 2.313732 0
M  V30 39 H 3.554085 3.000060 -0.768198 0
M  V30 40 H 3.424539 5.513305 -0.987124 0
M  V30 41 H 1.272395 6.627199 -0.270541 0
M  V30 42 H -0.917863 6.514078 0.603936 0
M  V30 43 H -2.857429 5.167330 1.518799 0
M  V30 44 H -2.624338 2.740855 1.686579 0
M  V30 45 H -0.584304 1.641293 0.985854 0
M  V30 46 H 0.542888 -1.083794 0.750095 0
M  V30 47 H -0.644683 -6.328684 1.035762 0
M  V30 48 H -2.221530 -7.527949 -1.022065 0
M  V30 49 H -3.424740 -6.983220 -3.053982 0
M  V30 50 H -3.526679 -4.730911 -3.942379 0
M  V30 51 H -2.383766 -2.952333 -2.763279 0
M  V30 52 H -2.102440 -0.846719 -1.380637 0
M  V30 END ATOM
M  V30 BEGIN BOND
M  V30 1 2 1 2
M  V30 2 1 2 3
M  V30 3 1 3 4
M  V30 4 2 4 5
M  V30 5 1 5 6
M  V30 6 2 6 7
M  V30 7 1 7 8
M  V30 8 1 8 9
M  V30 9 2 9 10
M  V30 10 1 9 11
M  V30 11 2 11 12
M  V30 12 1 12 13
M  V30 13 2 13 14
M  V30 14 1 14 15
M  V30 15 2 15 16
M  V30 16 1 16 17
M  V30 17 2 17 18
M  V30 18 1 18 19
M  V30 19 2 19 20
M  V30 20 1 7 21
M  V30 21 2 21 22
M  V30 22 1 22 23
M  V30 23 2 23 24
M  V30 24 1 24 25
M  V30 25 1 25 26
M  V30 26 2 26 27
M  V30 27 1 27 28
M  V30 28 2 28 29
M  V30 29 1 29 30
M  V30 30 2 30 31
M  V30 31 1 31 32
M  V30 32 2 32 33
M  V30 33 1 33 34
M  V30 34 1 23 2
M  V30 35 1 32 24
M  V30 36 1 22 4
M  V30 37 1 31 26
M  V30 38 1 20 11
M  V30 39 1 20 15
M  V30 40 1 3 35
M  V30 41 1 5 36
M  V30 42 1 6 37
M  V30 43 1 8 38
M  V30 44 1 12 39
M  V30 45 1 13 40
M  V30 46 1 14 41
M  V30 47 1 16 42
M  V30 48 1 17 43
M  V30 49 1 18 44
M  V30 50 1 19 45
M  V30 51 1 21 46
M  V30 52 1 25 47
M  V30 53 1 27 48
M  V30 54 1 28 49
M  V30 55 1 29 50
M  V30 56 1 30 51
M  V30 57 1 34 52
M  V30 END BOND
M  V30 END CTAB
M  END
>  <Dataset>  (77) 
ChEMBL_Kinases

>  <Ligand_Instance>  (77) 
nan

>  <PDB_ID>  (77) 
nan

>  <Standardized_SMILES>  (77) 
O=C1Nc2ccc(NC(=O)c3cccc4ccccc34)cc2/C1=C1/Nc2ccccc2/C1=N\O

>  <Name>  (77) 
nan

>  <Pocket>  (77) 
nan

>  <ATP_Site>  (77) 
nan

>  <Peripheral>  (77) 
nan

>  <Num_H_Atoms_ProtBoundConf>  (77) 
nan

>  <Num_Resolved_Atoms>  (77) 
nan

>  <Num_Not_Resolved_Atoms>  (77) 
nan

$$$$
CHEMBL3410045
     RDKit          3D

  0  0  0  0  0  0  0  0  0  0999 V3000
M  V30 BEGIN CTAB
M  V30 COUNTS 53 56 0 0 0
M  V30 BEGIN ATOM
M  V30 1 C 0.360223 -3.265093 7.623761 0
M  V30 2 C 0.856296 -2.700617 6.344173 0
M  V30 3 C 2.185947 -2.370620 6.187632 0
M  V30 4 C 2.592456 -1.850611 4.980134 0
M  V30 5 C 1.780962 -1.623824 3.890134 0
M  V30 6 N 2.259650 -1.091831 2.663479 0
M  V30 7 C 3.654741 -0.837927 2.508931 0
M  V30 8 C 4.099307 0.531199 2.935774 0
M  V30 9 O 3.483075 1.556910 2.236521 0
M  V30 10 C 1.366375 -0.810037 1.594668 0
M  V30 11 O 0.130510 -0.893637 1.375735 0
M  V30 12 N 1.852230 -0.283264 0.366121 0
M  V30 13 C 0.863214 -0.040239 -0.633306 0
M  V30 14 C 0.232426 1.184805 -0.704917 0
M  V30 15 C -0.714786 1.323953 -1.710721 0
M  V30 16 C -1.073504 0.334545 -2.642065 0
M  V30 17 C -2.066288 0.753716 -3.616714 0
M  V30 18 N -1.689031 1.896717 -4.264920 0
M  V30 19 C -2.463824 2.459269 -5.209852 0
M  V30 20 N -3.654166 1.908087 -5.553853 0
M  V30 21 C -4.068057 0.783597 -4.941854 0
M  V30 22 N -5.159435 0.000455 -5.017646 0
M  V30 23 C -5.051928 -1.008265 -4.141311 0
M  V30 24 C -3.840750 -0.912142 -3.439071 0
M  V30 25 C -3.357328 -1.817239 -2.365144 0
M  V30 26 C -3.277266 0.208742 -3.976324 0
M  V30 27 C -0.390131 -0.853928 -2.492704 0
M  V30 28 C 0.559077 -1.054261 -1.516269 0
M  V30 29 C 0.471044 -1.979481 4.129203 0
M  V30 30 C -0.016615 -2.504700 5.305411 0
M  V30 31 H -0.750844 -3.102262 7.709633 0
M  V30 32 H 0.549438 -4.338690 7.749619 0
M  V30 33 H 0.805227 -2.699484 8.484646 0
M  V30 34 H 2.813939 -2.545732 7.029430 0
M  V30 35 H 3.641760 -1.625608 4.974735 0
M  V30 36 H 3.978991 -1.008036 1.449590 0
M  V30 37 H 4.237111 -1.591616 3.110956 0
M  V30 38 H 3.807822 0.634716 4.015176 0
M  V30 39 H 5.190927 0.638958 2.803394 0
M  V30 40 H 4.149417 2.190341 1.848973 0
M  V30 41 H 2.852964 -0.068524 0.150439 0
M  V30 42 H 0.456878 1.980256 -0.028958 0
M  V30 43 H -1.192436 2.317727 -1.730016 0
M  V30 44 H -2.185606 3.349601 -5.725392 0
M  V30 45 H -5.962859 0.163702 -5.665362 0
M  V30 46 H -5.777500 -1.817333 -3.960674 0
M  V30 47 H -2.704997 -2.631017 -2.714503 0
M  V30 48 H -4.285610 -2.368220 -2.012233 0
M  V30 49 H -2.998568 -1.281060 -1.460956 0
M  V30 50 H -0.649644 -1.598523 -3.212633 0
M  V30 51 H 1.029078 -2.021403 -1.491742 0
M  V30 52 H -0.290785 -1.864404 3.373808 0
M  V30 53 H -1.053059 -2.771654 5.454664 0
M  V30 END ATOM
M  V30 BEGIN BOND
M  V30 1 1 1 2
M  V30 2 2 2 3
M  V30 3 1 3 4
M  V30 4 2 4 5
M  V30 5 1 5 6
M  V30 6 1 6 7
M  V30 7 1 7 8
M  V30 8 1 8 9
M  V30 9 1 6 10
M  V30 10 2 10 11
M  V30 11 1 10 12
M  V30 12 1 12 13
M  V30 13 2 13 14
M  V30 14 1 14 15
M  V30 15 2 15 16
M  V30 16 1 16 17
M  V30 17 2 17 18
M  V30 18 1 18 19
M  V30 19 2 19 20
M  V30 20 1 20 21
M  V30 21 1 21 22
M  V30 22 1 22 23
M  V30 23 2 23 24
M  V30 24 1 24 25
M  V30 25 1 24 26
M  V30 26 1 16 27
M  V30 27 2 27 28
M  V30 28 1 5 29
M  V30 29 2 29 30
M  V30 30 1 30 2
M  V30 31 1 28 13
M  V30 32 1 26 17
M  V30 33 2 26 21
M  V30 34 1 1 31
M  V30 35 1 1 32
M  V30 36 1 1 33
M  V30 37 1 3 34
M  V30 38 1 4 35
M  V30 39 1 7 36
M  V30 40 1 7 37
M  V30 41 1 8 38
M  V30 42 1 8 39
M  V30 43 1 9 40
M  V30 44 1 12 41
M  V30 45 1 14 42
M  V30 46 1 15 43
M  V30 47 1 19 44
M  V30 48 1 22 45
M  V30 49 1 23 46
M  V30 50 1 25 47
M  V30 51 1 25 48
M  V30 52 1 25 49
M  V30 53 1 27 50
M  V30 54 1 28 51
M  V30 55 1 29 52
M  V30 56 1 30 53
M  V30 END BOND
M  V30 END CTAB
M  END
>  <Dataset>  (78) 
ChEMBL_Kinases

>  <Ligand_Instance>  (78) 
nan

>  <PDB_ID>  (78) 
nan

>  <Standardized_SMILES>  (78) 
Cc1ccc(N(CCO)C(=O)Nc2ccc(-c3ncnc4[nH]cc(C)c34)cc2)cc1

>  <Name>  (78) 
nan

>  <Pocket>  (78) 
nan

>  <ATP_Site>  (78) 
nan

>  <Peripheral>  (78) 
nan

>  <Num_H_Atoms_ProtBoundConf>  (78) 
nan

>  <Num_Resolved_Atoms>  (78) 
nan

>  <Num_Not_Resolved_Atoms>  (78) 
nan

$$$$
CHEMBL4095456
     RDKit          3D

  0  0  0  0  0  0  0  0  0  0999 V3000
M  V30 BEGIN CTAB
M  V30 COUNTS 45 47 0 0 0
M  V30 BEGIN ATOM
M  V30 1 C -2.121153 -1.827674 -1.090744 0
M  V30 2 N -1.501313 -2.376770 0.127477 0
M  V30 3 C -0.341747 -3.180163 -0.107702 0
M  V30 4 C 0.919247 -2.630251 -0.258356 0
M  V30 5 C 2.152461 -3.261487 -0.489489 0
M  V30 6 O 3.328149 -2.476450 -0.613443 0
M  V30 7 C 3.150965 -1.073661 -0.534365 0
M  V30 8 C 3.717903 -0.336020 0.473276 0
M  V30 9 C 3.494317 1.018388 0.498700 0
M  V30 10 C 2.717831 1.575355 -0.478483 0
M  V30 11 N 2.284831 2.907945 -0.616602 0
M  V30 12 C 1.167605 2.803612 0.293693 0
M  V30 13 S 0.046256 3.935396 0.719932 0
M  V30 14 N 0.532420 1.891149 1.138172 0
M  V30 15 C -0.112867 0.971480 1.993211 0
M  V30 16 C 0.321614 -0.279380 2.435635 0
M  V30 17 C -0.475605 -0.996005 3.279806 0
M  V30 18 C -1.659490 -0.401512 3.626777 0
M  V30 19 Cl -2.557590 -1.449006 4.721609 0
M  V30 20 C -2.142920 0.809371 3.234861 0
M  V30 21 C -3.483304 1.122032 3.806781 0
M  V30 22 F -3.322332 1.182136 5.178804 0
M  V30 23 F -4.004829 2.271884 3.302124 0
M  V30 24 F -4.293726 0.011969 3.592946 0
M  V30 25 C -1.327781 1.500580 2.391391 0
M  V30 26 C 2.148128 0.813662 -1.505163 0
M  V30 27 C 2.352309 -0.568860 -1.567308 0
M  V30 28 F 1.825478 -1.332643 -2.570365 0
M  V30 29 N 2.007521 -4.575467 -0.559757 0
M  V30 30 C 0.830452 -5.198058 -0.426862 0
M  V30 31 N -0.333749 -4.539232 -0.205310 0
M  V30 32 H -1.339812 -1.320522 -1.727703 0
M  V30 33 H -2.715287 -2.559750 -1.630729 0
M  V30 34 H -2.796050 -0.993973 -0.795250 0
M  V30 35 H -1.938332 -2.150392 1.037102 0
M  V30 36 H 0.824923 -1.530857 -0.125117 0
M  V30 37 H 4.326136 -0.775273 1.242215 0
M  V30 38 H 3.865115 1.731270 1.226081 0
M  V30 39 H 2.285511 3.870247 -0.954707 0
M  V30 40 H 1.189899 1.247946 0.724685 0
M  V30 41 H 1.284358 -0.604233 2.069259 0
M  V30 42 H -0.061446 -1.960696 3.582227 0
M  V30 43 H -1.751600 2.460475 2.106043 0
M  V30 44 H 1.519084 1.179915 -2.315747 0
M  V30 45 H 0.817251 -6.279477 -0.509459 0
M  V30 END ATOM
M  V30 BEGIN BOND
M  V30 1 1 1 2
M  V30 2 1 2 3
M  V30 3 2 3 4
M  V30 4 1 4 5
M  V30 5 1 5 6
M  V30 6 1 6 7
M  V30 7 2 7 8
M  V30 8 1 8 9
M  V30 9 2 9 10
M  V30 10 1 10 11
M  V30 11 1 11 12
M  V30 12 2 12 13
M  V30 13 1 12 14
M  V30 14 1 14 15
M  V30 15 2 15 16
M  V30 16 1 16 17
M  V30 17 2 17 18
M  V30 18 1 18 19
M  V30 19 1 18 20
M  V30 20 1 20 21
M  V30 21 1 21 22
M  V30 22 1 21 23
M  V30 23 1 21 24
M  V30 24 2 20 25
M  V30 25 1 10 26
M  V30 26 2 26 27
M  V30 27 1 27 28
M  V30 28 2 5 29
M  V30 29 1 29 30
M  V30 30 2 30 31
M  V30 31 1 31 3
M  V30 32 1 27 7
M  V30 33 1 25 15
M  V30 34 1 1 32
M  V30 35 1 1 33
M  V30 36 1 1 34
M  V30 37 1 2 35
M  V30 38 1 4 36
M  V30 39 1 8 37
M  V30 40 1 9 38
M  V30 41 1 11 39
M  V30 42 1 14 40
M  V30 43 1 16 41
M  V30 44 1 17 42
M  V30 45 1 25 43
M  V30 46 1 26 44
M  V30 47 1 30 45
M  V30 END BOND
M  V30 END CTAB
M  END
>  <Dataset>  (79) 
ChEMBL_Kinases

>  <Ligand_Instance>  (79) 
nan

>  <PDB_ID>  (79) 
nan

>  <Standardized_SMILES>  (79) 
CNc1cc(Oc2ccc(NC(=S)Nc3ccc(Cl)c(C(F)(F)F)c3)cc2F)ncn1

>  <Name>  (79) 
nan

>  <Pocket>  (79) 
nan

>  <ATP_Site>  (79) 
nan

>  <Peripheral>  (79) 
nan

>  <Num_H_Atoms_ProtBoundConf>  (79) 
nan

>  <Num_Resolved_Atoms>  (79) 
nan

>  <Num_Not_Resolved_Atoms>  (79) 
nan

$$$$
CHEMBL3799505
     RDKit          3D

  0  0  0  0  0  0  0  0  0  0999 V3000
M  V30 BEGIN CTAB
M  V30 COUNTS 51 54 0 0 0
M  V30 BEGIN ATOM
M  V30 1 C 3.232883 -3.260260 2.365003 0
M  V30 2 C 4.377511 -2.296699 2.177367 0
M  V30 3 C 4.580579 -1.506697 3.453536 0
M  V30 4 C 5.668130 -3.039669 1.919697 0
M  V30 5 C 4.161630 -1.329999 1.030113 0
M  V30 6 C 2.919145 -0.516653 1.285380 0
M  V30 7 O 2.113127 -0.540236 2.246524 0
M  V30 8 N 2.551713 0.451708 0.310373 0
M  V30 9 C 1.354260 1.151350 0.677838 0
M  V30 10 C 1.588756 2.308286 1.433718 0
M  V30 11 C 0.494808 3.042699 1.830352 0
M  V30 12 C -0.783465 2.607094 1.466088 0
M  V30 13 C -1.042155 1.481563 0.728674 0
M  V30 14 C 0.061610 0.807997 0.371633 0
M  V30 15 C -2.460490 1.405497 0.585087 0
M  V30 16 C -3.115395 0.492545 -0.042984 0
M  V30 17 N -4.515766 0.410400 -0.189248 0
M  V30 18 C -4.943241 -0.713425 -0.937177 0
M  V30 19 C -6.215822 -1.116658 -1.280415 0
M  V30 20 C -6.292575 -2.269998 -2.023782 0
M  V30 21 C -5.197438 -3.000229 -2.417920 0
M  V30 22 C -3.972515 -2.529551 -2.034701 0
M  V30 23 C -3.754634 -1.370631 -1.278326 0
M  V30 24 C -2.618788 -0.649548 -0.740788 0
M  V30 25 N -1.506194 -1.137271 -0.978588 0
M  V30 26 O -1.098907 -2.223662 -1.646716 0
M  V30 27 C -3.031244 2.543308 1.274859 0
M  V30 28 O -4.232920 2.859978 1.397041 0
M  V30 29 N -1.980515 3.316885 1.840105 0
M  V30 30 H 3.631009 -4.263219 2.613099 0
M  V30 31 H 2.546079 -2.885842 3.170270 0
M  V30 32 H 2.712814 -3.349417 1.393857 0
M  V30 33 H 5.334617 -2.030286 4.094994 0
M  V30 34 H 5.036005 -0.535520 3.154965 0
M  V30 35 H 3.614091 -1.396145 3.970330 0
M  V30 36 H 6.537561 -2.438406 2.248192 0
M  V30 37 H 5.635466 -4.015929 2.470917 0
M  V30 38 H 5.785399 -3.239923 0.842780 0
M  V30 39 H 4.145800 -1.836428 0.058207 0
M  V30 40 H 5.028856 -0.649854 1.036324 0
M  V30 41 H 3.128472 0.596902 -0.562548 0
M  V30 42 H 2.577677 2.631132 1.706469 0
M  V30 43 H 0.689002 3.926967 2.409097 0
M  V30 44 H 0.089252 -0.068377 -0.187157 0
M  V30 45 H -5.165359 1.115365 0.218529 0
M  V30 46 H -7.080492 -0.551232 -0.976336 0
M  V30 47 H -7.275373 -2.610438 -2.307433 0
M  V30 48 H -5.292354 -3.903911 -3.002703 0
M  V30 49 H -3.123771 -3.108062 -2.348209 0
M  V30 50 H -0.549078 -2.079336 -2.490606 0
M  V30 51 H -2.100057 4.187127 2.388878 0
M  V30 END ATOM
M  V30 BEGIN BOND
M  V30 1 1 1 2
M  V30 2 1 2 3
M  V30 3 1 2 4
M  V30 4 1 2 5
M  V30 5 1 5 6
M  V30 6 2 6 7
M  V30 7 1 6 8
M  V30 8 1 8 9
M  V30 9 2 9 10
M  V30 10 1 10 11
M  V30 11 2 11 12
M  V30 12 1 12 13
M  V30 13 2 13 14
M  V30 14 1 13 15
M  V30 15 2 15 16
M  V30 16 1 16 17
M  V30 17 1 17 18
M  V30 18 2 18 19
M  V30 19 1 19 20
M  V30 20 2 20 21
M  V30 21 1 21 22
M  V30 22 2 22 23
M  V30 23 1 23 24
M  V30 24 2 24 25
M  V30 25 1 25 26
M  V30 26 1 15 27
M  V30 27 2 27 28
M  V30 28 1 27 29
M  V30 29 1 14 9
M  V30 30 1 24 16
M  V30 31 1 29 12
M  V30 32 1 23 18
M  V30 33 1 1 30
M  V30 34 1 1 31
M  V30 35 1 1 32
M  V30 36 1 3 33
M  V30 37 1 3 34
M  V30 38 1 3 35
M  V30 39 1 4 36
M  V30 40 1 4 37
M  V30 41 1 4 38
M  V30 42 1 5 39
M  V30 43 1 5 40
M  V30 44 1 8 41
M  V30 45 1 10 42
M  V30 46 1 11 43
M  V30 47 1 14 44
M  V30 48 1 17 45
M  V30 49 1 19 46
M  V30 50 1 20 47
M  V30 51 1 21 48
M  V30 52 1 22 49
M  V30 53 1 26 50
M  V30 54 1 29 51
M  V30 END BOND
M  V30 END CTAB
M  END
>  <Dataset>  (80) 
ChEMBL_Kinases

>  <Ligand_Instance>  (80) 
nan

>  <PDB_ID>  (80) 
nan

>  <Standardized_SMILES>  (80) 
CC(C)(C)CC(=O)Nc1ccc2c(c1)/C(=C1/Nc3ccccc3/C1=N\O)C(=O)N2

>  <Name>  (80) 
nan

>  <Pocket>  (80) 
nan

>  <ATP_Site>  (80) 
nan

>  <Peripheral>  (80) 
nan

>  <Num_H_Atoms_ProtBoundConf>  (80) 
nan

>  <Num_Resolved_Atoms>  (80) 
nan

>  <Num_Not_Resolved_Atoms>  (80) 
nan

$$$$
CHEMBL4094975
     RDKit          3D

  0  0  0  0  0  0  0  0  0  0999 V3000
M  V30 BEGIN CTAB
M  V30 COUNTS 39 42 0 0 0
M  V30 BEGIN ATOM
M  V30 1 N 1.070858 -5.210263 0.681219 0
M  V30 2 C 1.391059 -4.535672 1.890062 0
M  V30 3 C 1.478936 -3.157996 1.864100 0
M  V30 4 C 1.790603 -2.547150 3.056613 0
M  V30 5 N 1.899282 -1.133130 3.123715 0
M  V30 6 C 1.711582 -0.154784 2.110956 0
M  V30 7 C 2.776758 0.680346 1.765993 0
M  V30 8 C 2.604067 1.641116 0.781113 0
M  V30 9 Cl 3.929679 2.694787 0.338707 0
M  V30 10 C 1.364817 1.722976 0.182237 0
M  V30 11 N 0.323175 0.911158 0.514985 0
M  V30 12 C 0.483665 -0.019367 1.466106 0
M  V30 13 O -0.505564 -0.767243 1.761020 0
M  V30 14 C -0.824488 1.241281 -0.281940 0
M  V30 15 C -2.048835 1.560823 0.504756 0
M  V30 16 C -3.156632 1.417722 -0.517939 0
M  V30 17 C -2.573077 0.673572 -1.690298 0
M  V30 18 C -1.314941 0.064893 -1.106093 0
M  V30 19 N -0.439290 2.317910 -1.139052 0
M  V30 20 C 0.910964 2.626507 -0.865162 0
M  V30 21 O 1.616752 3.529688 -1.425571 0
M  V30 22 N 1.999518 -3.221761 4.180904 0
M  V30 23 C 1.907054 -4.573238 4.178705 0
M  V30 24 N 1.600623 -5.207949 3.016742 0
M  V30 25 H 0.630768 -6.158666 0.634604 0
M  V30 26 H 1.246251 -4.819569 -0.263930 0
M  V30 27 H 1.308132 -2.649516 0.948591 0
M  V30 28 H 2.148525 -0.611560 3.991520 0
M  V30 29 H 3.748672 0.578851 2.270635 0
M  V30 30 H -2.202939 0.785871 1.306005 0
M  V30 31 H -2.006449 2.563755 0.972485 0
M  V30 32 H -4.025271 0.847612 -0.095081 0
M  V30 33 H -3.551278 2.412938 -0.827864 0
M  V30 34 H -2.251730 1.340519 -2.521708 0
M  V30 35 H -3.259362 -0.123703 -2.061989 0
M  V30 36 H -0.602676 -0.294417 -1.839561 0
M  V30 37 H -1.642811 -0.701013 -0.371347 0
M  V30 38 H -1.014605 2.810567 -1.846349 0
M  V30 39 H 2.065174 -5.176701 5.058226 0
M  V30 END ATOM
M  V30 BEGIN BOND
M  V30 1 1 1 2
M  V30 2 2 2 3
M  V30 3 1 3 4
M  V30 4 1 4 5
M  V30 5 1 5 6
M  V30 6 2 6 7
M  V30 7 1 7 8
M  V30 8 1 8 9
M  V30 9 2 8 10
M  V30 10 1 10 11
M  V30 11 1 11 12
M  V30 12 2 12 13
M  V30 13 1 11 14
M  V30 14 1 14 15
M  V30 15 1 15 16
M  V30 16 1 16 17
M  V30 17 1 17 18
M  V30 18 1 14 19
M  V30 19 1 19 20
M  V30 20 2 20 21
M  V30 21 2 4 22
M  V30 22 1 22 23
M  V30 23 2 23 24
M  V30 24 1 24 2
M  V30 25 1 12 6
M  V30 26 1 18 14
M  V30 27 1 20 10
M  V30 28 1 1 25
M  V30 29 1 1 26
M  V30 30 1 3 27
M  V30 31 1 5 28
M  V30 32 1 7 29
M  V30 33 1 15 30
M  V30 34 1 15 31
M  V30 35 1 16 32
M  V30 36 1 16 33
M  V30 37 1 17 34
M  V30 38 1 17 35
M  V30 39 1 18 36
M  V30 40 1 18 37
M  V30 41 1 19 38
M  V30 42 1 23 39
M  V30 END BOND
M  V30 END CTAB
M  END
>  <Dataset>  (81) 
ChEMBL_Kinases

>  <Ligand_Instance>  (81) 
nan

>  <PDB_ID>  (81) 
nan

>  <Standardized_SMILES>  (81) 
Nc1cc(Nc2cc(Cl)c3n(c2=O)C2(CCCC2)NC3=O)ncn1

>  <Name>  (81) 
nan

>  <Pocket>  (81) 
nan

>  <ATP_Site>  (81) 
nan

>  <Peripheral>  (81) 
nan

>  <Num_H_Atoms_ProtBoundConf>  (81) 
nan

>  <Num_Resolved_Atoms>  (81) 
nan

>  <Num_Not_Resolved_Atoms>  (81) 
nan

$$$$
CHEMBL4094760
     RDKit          3D

  0  0  0  0  0  0  0  0  0  0999 V3000
M  V30 BEGIN CTAB
M  V30 COUNTS 59 63 0 0 0
M  V30 BEGIN ATOM
M  V30 1 C 0.935571 -3.965995 3.155822 0
M  V30 2 N 0.572197 -2.881534 2.407525 0
M  V30 3 C -0.349861 -3.000236 1.435140 0
M  V30 4 N -0.680139 -1.823187 0.714098 0
M  V30 5 C 0.045768 -0.629373 1.096232 0 CFG=1
M  V30 6 C 1.535120 -0.717956 0.792801 0
M  V30 7 C 2.219047 0.340263 1.625146 0
M  V30 8 C 1.627512 1.695849 1.559061 0 CFG=1
M  V30 9 N 2.428195 2.567325 0.758628 0
M  V30 10 C 3.700195 2.804420 1.358406 0
M  V30 11 C 4.518103 3.838005 0.609520 0
M  V30 12 O 3.833010 5.055374 0.834624 0
M  V30 13 C 2.669694 4.946800 0.114092 0
M  V30 14 C 1.781506 3.806795 0.470993 0
M  V30 15 C 0.162341 1.767441 1.282640 0
M  V30 16 C -0.389288 0.643390 0.436350 0
M  V30 17 C -0.952345 -4.186310 1.156476 0
M  V30 18 C -1.903734 -4.599066 0.248865 0
M  V30 19 C -2.593982 -3.808821 -0.792988 0
M  V30 20 C -3.739132 -2.968619 -0.352334 0
M  V30 21 C -4.600833 -2.715222 -1.599152 0
M  V30 22 O -3.874956 -2.701836 -2.762669 0
M  V30 23 C -2.578958 -2.223711 -2.602840 0
M  V30 24 C -1.798425 -3.359733 -1.958502 0
M  V30 25 C -2.013126 -5.968916 0.575240 0
M  V30 26 N -1.210383 -6.342313 1.574650 0
M  V30 27 C -0.542906 -5.237981 1.945376 0
M  V30 28 N 0.373146 -5.162593 2.925598 0
M  V30 29 H 1.669265 -3.800557 3.906589 0
M  V30 30 H -1.295420 -1.491524 -0.033075 0
M  V30 31 H -0.045478 -0.442725 2.199916 0
M  V30 32 H 1.991608 -1.678067 0.996912 0
M  V30 33 H 1.645614 -0.431667 -0.293663 0
M  V30 34 H 2.238872 -0.082161 2.673763 0
M  V30 35 H 3.280909 0.309863 1.311333 0
M  V30 36 H 1.742475 2.111030 2.615689 0
M  V30 37 H 3.495701 3.265321 2.371463 0
M  V30 38 H 4.342602 1.957396 1.554694 0
M  V30 39 H 5.530715 3.851191 1.014411 0
M  V30 40 H 4.462684 3.665816 -0.486676 0
M  V30 41 H 2.097006 5.897925 0.305691 0
M  V30 42 H 2.923698 4.994393 -0.964374 0
M  V30 43 H 1.107471 3.657349 -0.413497 0
M  V30 44 H 1.190199 4.132245 1.375932 0
M  V30 45 H -0.170701 2.701994 0.845212 0
M  V30 46 H -0.397540 1.680941 2.256781 0
M  V30 47 H -1.494113 0.710143 0.513956 0
M  V30 48 H -0.080091 0.713102 -0.619661 0
M  V30 49 H -3.217428 -4.651710 -1.289031 0
M  V30 50 H -3.566517 -2.011837 0.096135 0
M  V30 51 H -4.342028 -3.591115 0.349387 0
M  V30 52 H -5.421620 -3.470931 -1.609062 0
M  V30 53 H -5.096623 -1.727809 -1.512304 0
M  V30 54 H -2.171531 -1.991073 -3.612330 0
M  V30 55 H -2.642393 -1.319441 -2.004397 0
M  V30 56 H -1.697008 -4.102939 -2.795919 0
M  V30 57 H -0.745672 -3.078615 -1.767735 0
M  V30 58 H -2.691649 -6.664026 0.059702 0
M  V30 59 H -1.147474 -7.299710 1.954910 0
M  V30 END ATOM
M  V30 BEGIN BOND
M  V30 1 2 1 2
M  V30 2 1 2 3
M  V30 3 1 3 4
M  V30 4 1 4 5
M  V30 5 1 5 6
M  V30 6 1 6 7
M  V30 7 1 7 8
M  V30 8 1 8 9
M  V30 9 1 9 10
M  V30 10 1 10 11
M  V30 11 1 11 12
M  V30 12 1 12 13
M  V30 13 1 13 14
M  V30 14 1 8 15
M  V30 15 1 15 16
M  V30 16 2 3 17
M  V30 17 1 17 18
M  V30 18 1 18 19
M  V30 19 1 19 20
M  V30 20 1 20 21
M  V30 21 1 21 22
M  V30 22 1 22 23
M  V30 23 1 23 24
M  V30 24 2 18 25
M  V30 25 1 25 26
M  V30 26 1 26 27
M  V30 27 2 27 28
M  V30 28 1 28 1
M  V30 29 1 16 5
M  V30 30 1 27 17
M  V30 31 1 14 9
M  V30 32 1 24 19
M  V30 33 1 1 29
M  V30 34 1 4 30
M  V30 35 1 5 31 CFG=1
M  V30 36 1 6 32
M  V30 37 1 6 33
M  V30 38 1 7 34
M  V30 39 1 7 35
M  V30 40 1 8 36 CFG=1
M  V30 41 1 10 37
M  V30 42 1 10 38
M  V30 43 1 11 39
M  V30 44 1 11 40
M  V30 45 1 13 41
M  V30 46 1 13 42
M  V30 47 1 14 43
M  V30 48 1 14 44
M  V30 49 1 15 45
M  V30 50 1 15 46
M  V30 51 1 16 47
M  V30 52 1 16 48
M  V30 53 1 19 49
M  V30 54 1 20 50
M  V30 55 1 20 51
M  V30 56 1 21 52
M  V30 57 1 21 53
M  V30 58 1 23 54
M  V30 59 1 23 55
M  V30 60 1 24 56
M  V30 61 1 24 57
M  V30 62 1 25 58
M  V30 63 1 26 59
M  V30 END BOND
M  V30 END CTAB
M  END
>  <Dataset>  (82) 
ChEMBL_Kinases

>  <Ligand_Instance>  (82) 
nan

>  <PDB_ID>  (82) 
nan

>  <Standardized_SMILES>  (82) 
c1nc(N[C@H]2CC[C@@H](N3CCOCC3)CC2)c2c(C3CCOCC3)c[nH]c2n1

>  <Name>  (82) 
nan

>  <Pocket>  (82) 
nan

>  <ATP_Site>  (82) 
nan

>  <Peripheral>  (82) 
nan

>  <Num_H_Atoms_ProtBoundConf>  (82) 
nan

>  <Num_Resolved_Atoms>  (82) 
nan

>  <Num_Not_Resolved_Atoms>  (82) 
nan

$$$$
CHEMBL3410036
     RDKit          3D

  0  0  0  0  0  0  0  0  0  0999 V3000
M  V30 BEGIN CTAB
M  V30 COUNTS 50 53 0 0 0
M  V30 BEGIN ATOM
M  V30 1 C 3.203007 -0.047669 3.671596 0
M  V30 2 C 4.592683 -0.152149 3.200834 0
M  V30 3 C 5.714521 -0.292080 4.028382 0
M  V30 4 N 6.827662 -0.388556 3.287724 0
M  V30 5 C 6.505860 -0.319327 1.984286 0
M  V30 6 N 7.190714 -0.375744 0.816831 0
M  V30 7 C 6.526769 -0.288717 -0.369584 0
M  V30 8 N 5.194210 -0.145955 -0.380742 0
M  V30 9 C 4.440909 -0.080604 0.758462 0
M  V30 10 C 3.019780 0.074904 0.502881 0
M  V30 11 C 2.080342 0.984085 0.918759 0
M  V30 12 C 0.756848 0.901321 0.558692 0
M  V30 13 C 0.290715 -0.109592 -0.250242 0
M  V30 14 N -1.093688 -0.118939 -0.573140 0
M  V30 15 C -1.850241 -0.863998 0.374892 0
M  V30 16 O -1.094832 -1.343590 1.287784 0
M  V30 17 N -3.279490 -1.004474 0.240214 0
M  V30 18 C -3.843540 -1.812604 1.330983 0
M  V30 19 C -3.835682 -3.262582 0.902649 0
M  V30 20 O -4.366694 -4.037857 1.925505 0
M  V30 21 C -4.132706 -0.472444 -0.776121 0
M  V30 22 C -4.395040 -1.202906 -1.932290 0
M  V30 23 C -5.221859 -0.684102 -2.914158 0
M  V30 24 C -5.764765 0.584274 -2.683420 0
M  V30 25 C -5.533179 1.344003 -1.554347 0
M  V30 26 C -4.691389 0.778705 -0.589715 0
M  V30 27 C 1.200582 -1.046402 -0.693178 0
M  V30 28 C 2.505248 -0.938959 -0.319792 0
M  V30 29 C 5.138419 -0.173484 1.940056 0
M  V30 30 H 2.866135 1.000111 3.709701 0
M  V30 31 H 2.493201 -0.722270 3.110701 0
M  V30 32 H 3.174773 -0.500164 4.715527 0
M  V30 33 H 5.673055 -0.317288 5.116941 0
M  V30 34 H 7.821928 -0.500774 3.582352 0
M  V30 35 H 7.076563 -0.334873 -1.312338 0
M  V30 36 H 2.519567 1.756186 1.534111 0
M  V30 37 H 0.150885 1.694245 0.971044 0
M  V30 38 H -1.553243 0.344571 -1.389478 0
M  V30 39 H -4.873010 -1.424308 1.463330 0
M  V30 40 H -3.321773 -1.678512 2.280705 0
M  V30 41 H -2.784944 -3.547037 0.688628 0
M  V30 42 H -4.408457 -3.376292 -0.041633 0
M  V30 43 H -3.645187 -4.246513 2.579062 0
M  V30 44 H -3.965246 -2.182281 -2.091605 0
M  V30 45 H -5.471623 -1.189705 -3.835734 0
M  V30 46 H -6.424114 1.019141 -3.446474 0
M  V30 47 H -5.964033 2.307246 -1.412138 0
M  V30 48 H -4.469994 1.324566 0.319360 0
M  V30 49 H 0.800867 -1.825092 -1.326009 0
M  V30 50 H 3.121005 -1.746950 -0.740588 0
M  V30 END ATOM
M  V30 BEGIN BOND
M  V30 1 1 1 2
M  V30 2 2 2 3
M  V30 3 1 3 4
M  V30 4 1 4 5
M  V30 5 2 5 6
M  V30 6 1 6 7
M  V30 7 2 7 8
M  V30 8 1 8 9
M  V30 9 1 9 10
M  V30 10 2 10 11
M  V30 11 1 11 12
M  V30 12 2 12 13
M  V30 13 1 13 14
M  V30 14 1 14 15
M  V30 15 2 15 16
M  V30 16 1 15 17
M  V30 17 1 17 18
M  V30 18 1 18 19
M  V30 19 1 19 20
M  V30 20 1 17 21
M  V30 21 2 21 22
M  V30 22 1 22 23
M  V30 23 2 23 24
M  V30 24 1 24 25
M  V30 25 2 25 26
M  V30 26 1 13 27
M  V30 27 2 27 28
M  V30 28 2 9 29
M  V30 29 1 29 2
M  V30 30 1 29 5
M  V30 31 1 28 10
M  V30 32 1 26 21
M  V30 33 1 1 30
M  V30 34 1 1 31
M  V30 35 1 1 32
M  V30 36 1 3 33
M  V30 37 1 4 34
M  V30 38 1 7 35
M  V30 39 1 11 36
M  V30 40 1 12 37
M  V30 41 1 14 38
M  V30 42 1 18 39
M  V30 43 1 18 40
M  V30 44 1 19 41
M  V30 45 1 19 42
M  V30 46 1 20 43
M  V30 47 1 22 44
M  V30 48 1 23 45
M  V30 49 1 24 46
M  V30 50 1 25 47
M  V30 51 1 26 48
M  V30 52 1 27 49
M  V30 53 1 28 50
M  V30 END BOND
M  V30 END CTAB
M  END
>  <Dataset>  (83) 
ChEMBL_Kinases

>  <Ligand_Instance>  (83) 
nan

>  <PDB_ID>  (83) 
nan

>  <Standardized_SMILES>  (83) 
Cc1c[nH]c2ncnc(-c3ccc(NC(=O)N(CCO)c4ccccc4)cc3)c12

>  <Name>  (83) 
nan

>  <Pocket>  (83) 
nan

>  <ATP_Site>  (83) 
nan

>  <Peripheral>  (83) 
nan

>  <Num_H_Atoms_ProtBoundConf>  (83) 
nan

>  <Num_Resolved_Atoms>  (83) 
nan

>  <Num_Not_Resolved_Atoms>  (83) 
nan

$$$$
CHEMBL3410039
     RDKit          3D

  0  0  0  0  0  0  0  0  0  0999 V3000
M  V30 BEGIN CTAB
M  V30 COUNTS 50 53 0 0 0
M  V30 BEGIN ATOM
M  V30 1 C 4.111237 -2.621875 0.396743 0
M  V30 2 C 5.291173 -1.726239 0.324225 0
M  V30 3 C 6.604324 -2.119265 0.031883 0
M  V30 4 N 7.410261 -1.017087 0.028385 0
M  V30 5 C 6.687896 0.083410 0.305152 0
M  V30 6 N 6.967993 1.393755 0.409899 0
M  V30 7 C 5.955155 2.234106 0.691776 0
M  V30 8 N 4.681220 1.799777 0.870772 0
M  V30 9 C 4.349159 0.476401 0.775090 0
M  V30 10 C 2.953528 0.249017 0.999367 0
M  V30 11 C 2.098836 1.019345 0.194243 0
M  V30 12 C 0.701659 0.987771 0.264515 0
M  V30 13 C 0.143777 0.136197 1.193753 0
M  V30 14 N -1.276710 0.060488 1.311449 0
M  V30 15 C -1.820514 -0.920232 0.467120 0
M  V30 16 O -0.984693 -1.558921 -0.240613 0
M  V30 17 N -3.224704 -1.193611 0.397915 0
M  V30 18 C -3.684530 -2.229020 -0.509217 0
M  V30 19 C -3.988877 -1.642130 -1.870848 0
M  V30 20 O -4.433850 -2.653793 -2.742805 0
M  V30 21 C -4.295776 -0.562981 1.129735 0
M  V30 22 C -4.641842 -1.134846 2.353158 0
M  V30 23 C -5.676706 -0.542591 3.082009 0
M  V30 24 C -6.320085 0.573024 2.584092 0
M  V30 25 F -7.334935 1.170148 3.278099 0
M  V30 26 C -5.971224 1.141907 1.360459 0
M  V30 27 C -4.936501 0.551358 0.629638 0
M  V30 28 C 0.917767 -0.650925 2.019739 0
M  V30 29 C 2.285882 -0.563852 1.891172 0
M  V30 30 C 5.398989 -0.363200 0.484422 0
M  V30 31 H 4.394790 -3.571738 -0.159121 0
M  V30 32 H 3.235431 -2.258567 -0.178739 0
M  V30 33 H 3.882267 -2.989223 1.413167 0
M  V30 34 H 6.895459 -3.158297 -0.157590 0
M  V30 35 H 8.454389 -1.034203 -0.165482 0
M  V30 36 H 6.208681 3.285106 0.769679 0
M  V30 37 H 2.488268 1.710909 -0.558699 0
M  V30 38 H 0.104033 1.608291 -0.386484 0
M  V30 39 H -1.888640 0.635950 1.930375 0
M  V30 40 H -2.856220 -2.952375 -0.646561 0
M  V30 41 H -4.575915 -2.766143 -0.102247 0
M  V30 42 H -4.834295 -0.929940 -1.783962 0
M  V30 43 H -3.075316 -1.223217 -2.298505 0
M  V30 44 H -3.701190 -2.947621 -3.334665 0
M  V30 45 H -4.118953 -2.007105 2.714018 0
M  V30 46 H -5.980864 -0.951363 4.037872 0
M  V30 47 H -6.509144 2.020976 1.012475 0
M  V30 48 H -4.649265 0.985606 -0.334396 0
M  V30 49 H 0.526449 -1.330662 2.760159 0
M  V30 50 H 2.933647 -1.143957 2.526642 0
M  V30 END ATOM
M  V30 BEGIN BOND
M  V30 1 1 1 2
M  V30 2 2 2 3
M  V30 3 1 3 4
M  V30 4 1 4 5
M  V30 5 2 5 6
M  V30 6 1 6 7
M  V30 7 2 7 8
M  V30 8 1 8 9
M  V30 9 1 9 10
M  V30 10 2 10 11
M  V30 11 1 11 12
M  V30 12 2 12 13
M  V30 13 1 13 14
M  V30 14 1 14 15
M  V30 15 2 15 16
M  V30 16 1 15 17
M  V30 17 1 17 18
M  V30 18 1 18 19
M  V30 19 1 19 20
M  V30 20 1 17 21
M  V30 21 2 21 22
M  V30 22 1 22 23
M  V30 23 2 23 24
M  V30 24 1 24 25
M  V30 25 1 24 26
M  V30 26 2 26 27
M  V30 27 1 13 28
M  V30 28 2 28 29
M  V30 29 2 9 30
M  V30 30 1 30 2
M  V30 31 1 30 5
M  V30 32 1 29 10
M  V30 33 1 27 21
M  V30 34 1 1 31
M  V30 35 1 1 32
M  V30 36 1 1 33
M  V30 37 1 3 34
M  V30 38 1 4 35
M  V30 39 1 7 36
M  V30 40 1 11 37
M  V30 41 1 12 38
M  V30 42 1 14 39
M  V30 43 1 18 40
M  V30 44 1 18 41
M  V30 45 1 19 42
M  V30 46 1 19 43
M  V30 47 1 20 44
M  V30 48 1 22 45
M  V30 49 1 23 46
M  V30 50 1 26 47
M  V30 51 1 27 48
M  V30 52 1 28 49
M  V30 53 1 29 50
M  V30 END BOND
M  V30 END CTAB
M  END
>  <Dataset>  (84) 
ChEMBL_Kinases

>  <Ligand_Instance>  (84) 
nan

>  <PDB_ID>  (84) 
nan

>  <Standardized_SMILES>  (84) 
Cc1c[nH]c2ncnc(-c3ccc(NC(=O)N(CCO)c4ccc(F)cc4)cc3)c12

>  <Name>  (84) 
nan

>  <Pocket>  (84) 
nan

>  <ATP_Site>  (84) 
nan

>  <Peripheral>  (84) 
nan

>  <Num_H_Atoms_ProtBoundConf>  (84) 
nan

>  <Num_Resolved_Atoms>  (84) 
nan

>  <Num_Not_Resolved_Atoms>  (84) 
nan

$$$$
CHEMBL3410040
     RDKit          3D

  0  0  0  0  0  0  0  0  0  0999 V3000
M  V30 BEGIN CTAB
M  V30 COUNTS 50 53 0 0 0
M  V30 BEGIN ATOM
M  V30 1 C 3.766877 -2.895850 2.077091 0
M  V30 2 C 5.051836 -2.174119 1.911640 0
M  V30 3 C 6.271007 -2.615252 2.435688 0
M  V30 4 N 7.227740 -1.695182 2.115829 0
M  V30 5 C 6.692710 -0.679084 1.410795 0
M  V30 6 N 7.158443 0.462333 0.872776 0
M  V30 7 C 6.296917 1.271617 0.231403 0
M  V30 8 N 4.997474 0.961564 0.120497 0
M  V30 9 C 4.450390 -0.181112 0.640002 0
M  V30 10 C 3.043615 -0.310543 0.406069 0
M  V30 11 C 2.263859 -1.302242 -0.154170 0
M  V30 12 C 0.892793 -1.226717 -0.250771 0
M  V30 13 C 0.216307 -0.122893 0.221430 0
M  V30 14 N -1.193382 -0.183025 0.054987 0
M  V30 15 C -2.023696 0.233475 -0.988873 0
M  V30 16 O -1.557777 0.777291 -2.030416 0
M  V30 17 N -3.407840 -0.045457 -0.692105 0
M  V30 18 C -4.383511 0.339431 -1.700040 0
M  V30 19 C -4.889390 1.749365 -1.491925 0
M  V30 20 O -5.816801 2.022867 -2.505753 0
M  V30 21 C -3.968497 -0.654196 0.465735 0
M  V30 22 C -4.363023 0.095161 1.570833 0
M  V30 23 C -4.909843 -0.480842 2.704493 0
M  V30 24 C -5.037301 -1.857593 2.662446 0
M  V30 25 C -4.670202 -2.650798 1.610521 0
M  V30 26 C -4.131706 -2.015127 0.510991 0
M  V30 27 Cl -3.641003 -2.963284 -0.867475 0
M  V30 28 C 0.933084 0.906485 0.792869 0
M  V30 29 C 2.305444 0.790163 0.870189 0
M  V30 30 C 5.355776 -0.986165 1.291159 0
M  V30 31 H 3.858736 -3.611123 2.956796 0
M  V30 32 H 3.484864 -3.539915 1.243890 0
M  V30 33 H 2.941813 -2.212899 2.440565 0
M  V30 34 H 6.402553 -3.527021 2.991181 0
M  V30 35 H 8.240489 -1.746208 2.369141 0
M  V30 36 H 6.680812 2.190220 -0.198565 0
M  V30 37 H 2.855249 -2.128208 -0.520142 0
M  V30 38 H 0.443398 -2.085712 -0.713188 0
M  V30 39 H -1.465804 -0.642976 0.961156 0
M  V30 40 H -3.916422 0.332369 -2.715188 0
M  V30 41 H -5.217698 -0.385868 -1.766265 0
M  V30 42 H -5.396720 1.880341 -0.516205 0
M  V30 43 H -4.046865 2.435839 -1.637957 0
M  V30 44 H -6.330895 1.204768 -2.755093 0
M  V30 45 H -4.220788 1.169406 1.503834 0
M  V30 46 H -5.214184 0.108605 3.559779 0
M  V30 47 H -5.466860 -2.342015 3.545127 0
M  V30 48 H -4.794950 -3.718487 1.638338 0
M  V30 49 H 0.374327 1.738096 1.143433 0
M  V30 50 H 2.760168 1.669080 1.342714 0
M  V30 END ATOM
M  V30 BEGIN BOND
M  V30 1 1 1 2
M  V30 2 2 2 3
M  V30 3 1 3 4
M  V30 4 1 4 5
M  V30 5 2 5 6
M  V30 6 1 6 7
M  V30 7 2 7 8
M  V30 8 1 8 9
M  V30 9 1 9 10
M  V30 10 2 10 11
M  V30 11 1 11 12
M  V30 12 2 12 13
M  V30 13 1 13 14
M  V30 14 1 14 15
M  V30 15 2 15 16
M  V30 16 1 15 17
M  V30 17 1 17 18
M  V30 18 1 18 19
M  V30 19 1 19 20
M  V30 20 1 17 21
M  V30 21 2 21 22
M  V30 22 1 22 23
M  V30 23 2 23 24
M  V30 24 1 24 25
M  V30 25 2 25 26
M  V30 26 1 26 27
M  V30 27 1 13 28
M  V30 28 2 28 29
M  V30 29 2 9 30
M  V30 30 1 30 2
M  V30 31 1 30 5
M  V30 32 1 29 10
M  V30 33 1 26 21
M  V30 34 1 1 31
M  V30 35 1 1 32
M  V30 36 1 1 33
M  V30 37 1 3 34
M  V30 38 1 4 35
M  V30 39 1 7 36
M  V30 40 1 11 37
M  V30 41 1 12 38
M  V30 42 1 14 39
M  V30 43 1 18 40
M  V30 44 1 18 41
M  V30 45 1 19 42
M  V30 46 1 19 43
M  V30 47 1 20 44
M  V30 48 1 22 45
M  V30 49 1 23 46
M  V30 50 1 24 47
M  V30 51 1 25 48
M  V30 52 1 28 49
M  V30 53 1 29 50
M  V30 END BOND
M  V30 END CTAB
M  END
>  <Dataset>  (85) 
ChEMBL_Kinases

>  <Ligand_Instance>  (85) 
nan

>  <PDB_ID>  (85) 
nan

>  <Standardized_SMILES>  (85) 
Cc1c[nH]c2ncnc(-c3ccc(NC(=O)N(CCO)c4ccccc4Cl)cc3)c12

>  <Name>  (85) 
nan

>  <Pocket>  (85) 
nan

>  <ATP_Site>  (85) 
nan

>  <Peripheral>  (85) 
nan

>  <Num_H_Atoms_ProtBoundConf>  (85) 
nan

>  <Num_Resolved_Atoms>  (85) 
nan

>  <Num_Not_Resolved_Atoms>  (85) 
nan

$$$$
CHEMBL3410042
     RDKit          3D

  0  0  0  0  0  0  0  0  0  0999 V3000
M  V30 BEGIN CTAB
M  V30 COUNTS 50 53 0 0 0
M  V30 BEGIN ATOM
M  V30 1 C 3.815224 -2.926958 -0.073674 0
M  V30 2 C 5.058680 -2.142814 -0.134031 0
M  V30 3 C 6.282840 -2.670469 -0.528852 0
M  V30 4 N 7.196652 -1.675432 -0.495770 0
M  V30 5 C 6.629783 -0.507069 -0.094722 0
M  V30 6 N 7.058897 0.753341 0.091973 0
M  V30 7 C 6.162373 1.663123 0.490385 0
M  V30 8 N 4.856844 1.360769 0.709547 0
M  V30 9 C 4.366998 0.093658 0.535968 0
M  V30 10 C 2.972269 -0.011420 0.817363 0
M  V30 11 C 2.179171 0.909127 0.112488 0
M  V30 12 C 0.793548 1.030786 0.239426 0
M  V30 13 C 0.171566 0.177189 1.126389 0
M  V30 14 N -1.225933 0.174547 1.368430 0
M  V30 15 C -1.900135 -0.712645 0.486723 0
M  V30 16 O -1.086982 -1.293023 -0.309971 0
M  V30 17 N -3.318402 -0.905598 0.517931 0
M  V30 18 C -3.806878 -1.862867 -0.475302 0
M  V30 19 C -4.120040 -1.052165 -1.735332 0
M  V30 20 O -4.594583 -1.843700 -2.760801 0
M  V30 21 C -4.185834 -0.252911 1.405631 0
M  V30 22 C -4.420750 -0.894663 2.616218 0
M  V30 23 C -5.250197 -0.371629 3.584863 0
M  V30 24 C -5.880136 0.845782 3.348363 0
M  V30 25 Cl -6.956520 1.578794 4.541073 0
M  V30 26 C -5.670053 1.513276 2.154826 0
M  V30 27 C -4.832308 0.966717 1.198172 0
M  V30 28 C 0.887683 -0.753916 1.854789 0
M  V30 29 C 2.253632 -0.815120 1.676452 0
M  V30 30 C 5.306806 -0.817419 0.125533 0
M  V30 31 H 3.913239 -3.879843 -0.686550 0
M  V30 32 H 2.940066 -2.426699 -0.535981 0
M  V30 33 H 3.655263 -3.302693 0.950765 0
M  V30 34 H 6.456399 -3.696042 -0.809222 0
M  V30 35 H 8.214775 -1.795658 -0.749035 0
M  V30 36 H 6.528885 2.676462 0.634847 0
M  V30 37 H 2.593079 1.615528 -0.604162 0
M  V30 38 H 0.221016 1.734067 -0.304891 0
M  V30 39 H -1.769840 0.718076 2.076392 0
M  V30 40 H -3.034837 -2.618457 -0.747719 0
M  V30 41 H -4.709553 -2.395813 -0.126155 0
M  V30 42 H -4.925158 -0.343525 -1.411586 0
M  V30 43 H -3.214981 -0.469849 -1.997310 0
M  V30 44 H -3.863899 -2.252680 -3.290557 0
M  V30 45 H -3.953998 -1.844983 2.848684 0
M  V30 46 H -5.435974 -0.867163 4.528020 0
M  V30 47 H -6.153420 2.473615 1.942314 0
M  V30 48 H -4.636112 1.443598 0.257165 0
M  V30 49 H 0.469240 -1.459925 2.572005 0
M  V30 50 H 2.863117 -1.506744 2.228152 0
M  V30 END ATOM
M  V30 BEGIN BOND
M  V30 1 1 1 2
M  V30 2 2 2 3
M  V30 3 1 3 4
M  V30 4 1 4 5
M  V30 5 2 5 6
M  V30 6 1 6 7
M  V30 7 2 7 8
M  V30 8 1 8 9
M  V30 9 1 9 10
M  V30 10 2 10 11
M  V30 11 1 11 12
M  V30 12 2 12 13
M  V30 13 1 13 14
M  V30 14 1 14 15
M  V30 15 2 15 16
M  V30 16 1 15 17
M  V30 17 1 17 18
M  V30 18 1 18 19
M  V30 19 1 19 20
M  V30 20 1 17 21
M  V30 21 2 21 22
M  V30 22 1 22 23
M  V30 23 2 23 24
M  V30 24 1 24 25
M  V30 25 1 24 26
M  V30 26 2 26 27
M  V30 27 1 13 28
M  V30 28 2 28 29
M  V30 29 2 9 30
M  V30 30 1 30 2
M  V30 31 1 30 5
M  V30 32 1 29 10
M  V30 33 1 27 21
M  V30 34 1 1 31
M  V30 35 1 1 32
M  V30 36 1 1 33
M  V30 37 1 3 34
M  V30 38 1 4 35
M  V30 39 1 7 36
M  V30 40 1 11 37
M  V30 41 1 12 38
M  V30 42 1 14 39
M  V30 43 1 18 40
M  V30 44 1 18 41
M  V30 45 1 19 42
M  V30 46 1 19 43
M  V30 47 1 20 44
M  V30 48 1 22 45
M  V30 49 1 23 46
M  V30 50 1 26 47
M  V30 51 1 27 48
M  V30 52 1 28 49
M  V30 53 1 29 50
M  V30 END BOND
M  V30 END CTAB
M  END
>  <Dataset>  (86) 
ChEMBL_Kinases

>  <Ligand_Instance>  (86) 
nan

>  <PDB_ID>  (86) 
nan

>  <Standardized_SMILES>  (86) 
Cc1c[nH]c2ncnc(-c3ccc(NC(=O)N(CCO)c4ccc(Cl)cc4)cc3)c12

>  <Name>  (86) 
nan

>  <Pocket>  (86) 
nan

>  <ATP_Site>  (86) 
nan

>  <Peripheral>  (86) 
nan

>  <Num_H_Atoms_ProtBoundConf>  (86) 
nan

>  <Num_Resolved_Atoms>  (86) 
nan

>  <Num_Not_Resolved_Atoms>  (86) 
nan

$$$$
CHEMBL4094627
     RDKit          3D

  0  0  0  0  0  0  0  0  0  0999 V3000
M  V30 BEGIN CTAB
M  V30 COUNTS 43 46 0 0 0
M  V30 BEGIN ATOM
M  V30 1 C 0.206263 -3.180527 3.382440 0
M  V30 2 N -0.843422 -3.161714 2.392195 0
M  V30 3 C -0.946596 -2.260515 1.402872 0
M  V30 4 C -0.077433 -1.127950 1.084060 0
M  V30 5 C 0.281954 -0.921890 -0.234231 0
M  V30 6 C 1.102448 0.144368 -0.548324 0
M  V30 7 C 1.597465 1.035354 0.382811 0
M  V30 8 N 2.442553 2.125733 0.023897 0
M  V30 9 C 2.747940 2.234488 -1.390343 0
M  V30 10 C 3.710633 3.350161 -1.674032 0
M  V30 11 N 3.383471 4.456868 -0.805532 0
M  V30 12 C 3.683174 4.146472 0.581331 0
M  V30 13 C 2.894607 2.990657 1.099523 0
M  V30 14 C 1.208745 0.785177 1.685211 0
M  V30 15 C 0.391362 -0.263107 2.061152 0
M  V30 16 C -2.062525 -2.521474 0.628796 0
M  V30 17 C -2.650950 -3.650720 1.204156 0
M  V30 18 C -3.787969 -4.351317 0.846596 0
M  V30 19 C -4.589294 -3.962452 -0.280787 0
M  V30 20 N -5.220500 -3.648130 -1.202545 0
M  V30 21 C -4.138300 -5.459041 1.620991 0
M  V30 22 C -3.339442 -5.812055 2.710539 0
M  V30 23 N -2.253569 -5.102334 3.011709 0
M  V30 24 C -1.881023 -4.028420 2.291409 0
M  V30 25 H -0.060587 -2.517352 4.237166 0
M  V30 26 H 0.248742 -4.232885 3.789527 0
M  V30 27 H 1.211628 -2.968574 2.994496 0
M  V30 28 H -0.079673 -1.597154 -1.024747 0
M  V30 29 H 1.345899 0.250531 -1.592672 0
M  V30 30 H 3.108975 1.254918 -1.800653 0
M  V30 31 H 1.774937 2.509231 -1.891615 0
M  V30 32 H 3.519758 3.680183 -2.716447 0
M  V30 33 H 4.772499 3.044489 -1.638648 0
M  V30 34 H 3.996414 5.262358 -1.075867 0
M  V30 35 H 3.426290 5.045808 1.177387 0
M  V30 36 H 4.788269 3.989973 0.713550 0
M  V30 37 H 3.522627 2.433198 1.831146 0
M  V30 38 H 1.970532 3.374615 1.577944 0
M  V30 39 H 1.553940 1.439797 2.485164 0
M  V30 40 H 0.115222 -0.418871 3.085706 0
M  V30 41 H -2.475719 -2.028408 -0.242683 0
M  V30 42 H -5.021675 -6.046733 1.386228 0
M  V30 43 H -3.602702 -6.672140 3.319909 0
M  V30 END ATOM
M  V30 BEGIN BOND
M  V30 1 1 1 2
M  V30 2 1 2 3
M  V30 3 1 3 4
M  V30 4 2 4 5
M  V30 5 1 5 6
M  V30 6 2 6 7
M  V30 7 1 7 8
M  V30 8 1 8 9
M  V30 9 1 9 10
M  V30 10 1 10 11
M  V30 11 1 11 12
M  V30 12 1 12 13
M  V30 13 1 7 14
M  V30 14 2 14 15
M  V30 15 2 3 16
M  V30 16 1 16 17
M  V30 17 2 17 18
M  V30 18 1 18 19
M  V30 19 3 19 20
M  V30 20 1 18 21
M  V30 21 2 21 22
M  V30 22 1 22 23
M  V30 23 2 23 24
M  V30 24 1 24 2
M  V30 25 1 15 4
M  V30 26 1 24 17
M  V30 27 1 13 8
M  V30 28 1 1 25
M  V30 29 1 1 26
M  V30 30 1 1 27
M  V30 31 1 5 28
M  V30 32 1 6 29
M  V30 33 1 9 30
M  V30 34 1 9 31
M  V30 35 1 10 32
M  V30 36 1 10 33
M  V30 37 1 11 34
M  V30 38 1 12 35
M  V30 39 1 12 36
M  V30 40 1 13 37
M  V30 41 1 13 38
M  V30 42 1 14 39
M  V30 43 1 15 40
M  V30 44 1 16 41
M  V30 45 1 21 42
M  V30 46 1 22 43
M  V30 END BOND
M  V30 END CTAB
M  END
>  <Dataset>  (87) 
ChEMBL_Kinases

>  <Ligand_Instance>  (87) 
nan

>  <PDB_ID>  (87) 
nan

>  <Standardized_SMILES>  (87) 
Cn1c(-c2ccc(N3CCNCC3)cc2)cc2c(C#N)ccnc21

>  <Name>  (87) 
nan

>  <Pocket>  (87) 
nan

>  <ATP_Site>  (87) 
nan

>  <Peripheral>  (87) 
nan

>  <Num_H_Atoms_ProtBoundConf>  (87) 
nan

>  <Num_Resolved_Atoms>  (87) 
nan

>  <Num_Not_Resolved_Atoms>  (87) 
nan

$$$$
CHEMBL4095479
     RDKit          3D

  0  0  0  0  0  0  0  0  0  0999 V3000
M  V30 BEGIN CTAB
M  V30 COUNTS 30 32 0 0 0
M  V30 BEGIN ATOM
M  V30 1 C -4.070488 -3.093839 2.392727 0
M  V30 2 O -2.773158 -3.121439 2.970150 0
M  V30 3 C -1.742932 -2.403056 2.378338 0
M  V30 4 C -1.857342 -1.625825 1.228140 0
M  V30 5 C -0.765465 -0.954256 0.728322 0
M  V30 6 C 0.462310 -1.034726 1.351873 0
M  V30 7 C 1.696156 -0.480694 1.077710 0
M  V30 8 C 2.000994 0.401044 -0.046853 0
M  V30 9 C 3.276931 0.892199 -0.214422 0
M  V30 10 C 3.658897 1.725700 -1.238571 0
M  V30 11 N 2.684166 2.061082 -2.118770 0
M  V30 12 C 1.417310 1.604772 -1.996874 0
M  V30 13 N 0.397871 1.961179 -2.925472 0
M  V30 14 N 1.095465 0.797516 -0.985022 0
M  V30 15 C 2.582996 -0.906407 2.049641 0
M  V30 16 N 1.886965 -1.698450 2.884618 0
M  V30 17 C 0.601565 -1.804166 2.501326 0
M  V30 18 C -0.506786 -2.470087 2.986294 0
M  V30 19 H -4.036233 -3.155507 1.267872 0
M  V30 20 H -4.590875 -2.144349 2.622381 0
M  V30 21 H -4.679027 -3.967739 2.745281 0
M  V30 22 H -2.834312 -1.585568 0.765707 0
M  V30 23 H -0.844344 -0.351107 -0.160141 0
M  V30 24 H 4.052282 0.620600 0.492563 0
M  V30 25 H 4.672785 2.078169 -1.318067 0
M  V30 26 H -0.073631 2.898506 -2.774864 0
M  V30 27 H -0.090482 1.591742 -3.775948 0
M  V30 28 H 3.629833 -0.628355 2.089456 0
M  V30 29 H 2.322329 -2.168202 3.731724 0
M  V30 30 H -0.370905 -3.055879 3.873785 0
M  V30 END ATOM
M  V30 BEGIN BOND
M  V30 1 1 1 2
M  V30 2 1 2 3
M  V30 3 2 3 4
M  V30 4 1 4 5
M  V30 5 2 5 6
M  V30 6 1 6 7
M  V30 7 1 7 8
M  V30 8 2 8 9
M  V30 9 1 9 10
M  V30 10 2 10 11
M  V30 11 1 11 12
M  V30 12 1 12 13
M  V30 13 2 12 14
M  V30 14 2 7 15
M  V30 15 1 15 16
M  V30 16 1 16 17
M  V30 17 2 17 18
M  V30 18 1 18 3
M  V30 19 1 17 6
M  V30 20 1 14 8
M  V30 21 1 1 19
M  V30 22 1 1 20
M  V30 23 1 1 21
M  V30 24 1 4 22
M  V30 25 1 5 23
M  V30 26 1 9 24
M  V30 27 1 10 25
M  V30 28 1 13 26
M  V30 29 1 13 27
M  V30 30 1 15 28
M  V30 31 1 16 29
M  V30 32 1 18 30
M  V30 END BOND
M  V30 END CTAB
M  END
>  <Dataset>  (88) 
ChEMBL_Kinases

>  <Ligand_Instance>  (88) 
nan

>  <PDB_ID>  (88) 
nan

>  <Standardized_SMILES>  (88) 
COc1ccc2c(-c3ccnc(N)n3)c[nH]c2c1

>  <Name>  (88) 
nan

>  <Pocket>  (88) 
nan

>  <ATP_Site>  (88) 
nan

>  <Peripheral>  (88) 
nan

>  <Num_H_Atoms_ProtBoundConf>  (88) 
nan

>  <Num_Resolved_Atoms>  (88) 
nan

>  <Num_Not_Resolved_Atoms>  (88) 
nan

$$$$
CHEMBL3417198
     RDKit          3D

  0  0  0  0  0  0  0  0  0  0999 V3000
M  V30 BEGIN CTAB
M  V30 COUNTS 37 39 0 0 0
M  V30 BEGIN ATOM
M  V30 1 C -2.694491 -3.546567 1.342310 0
M  V30 2 C -1.296014 -3.041980 1.511455 0
M  V30 3 C -0.704581 -2.505715 0.408254 0
M  V30 4 C 0.596226 -2.033592 0.514762 0
M  V30 5 N 1.448628 -1.394278 -0.454845 0
M  V30 6 C 2.104645 -0.142800 -0.385563 0
M  V30 7 N 3.354854 -0.366337 -0.044692 0
M  V30 8 C 4.278106 0.625416 0.135354 0
M  V30 9 N 3.799189 1.863762 -0.069443 0
M  V30 10 C 2.518320 2.083172 -0.418768 0
M  V30 11 S 1.563989 3.601401 -0.758865 0
M  V30 12 C 0.062724 2.811975 -1.103505 0
M  V30 13 C -1.110878 3.556629 -1.456160 0
M  V30 14 O -1.047710 4.803257 -1.513642 0
M  V30 15 O -2.417901 3.365481 -1.789305 0
M  V30 16 C 0.304694 1.454936 -0.957257 0
M  V30 17 C -0.811442 0.498715 -1.192727 0
M  V30 18 C 1.568878 1.092434 -0.605240 0
M  V30 19 C 1.216604 -2.131678 1.724666 0
M  V30 20 O 2.390920 -1.756120 2.003050 0
M  V30 21 N 0.660461 -2.658376 2.841227 0
M  V30 22 C 1.307584 -2.762673 4.155075 0
M  V30 23 C -0.622298 -3.127944 2.746662 0
M  V30 24 H -2.696979 -4.618258 1.057987 0
M  V30 25 H -3.223758 -3.479927 2.328142 0
M  V30 26 H -3.245310 -2.903272 0.651895 0
M  V30 27 H -1.107691 -2.389519 -0.585434 0
M  V30 28 H 1.421209 -2.119358 -1.175387 0
M  V30 29 H 5.314736 0.575273 0.408058 0
M  V30 30 H -3.236769 3.560298 -1.204386 0
M  V30 31 H -0.471957 -0.414422 -1.726477 0
M  V30 32 H -1.214923 0.270974 -0.165163 0
M  V30 33 H -1.640564 0.972494 -1.722888 0
M  V30 34 H 0.965338 -3.616446 4.731553 0
M  V30 35 H 2.418623 -2.721911 3.999333 0
M  V30 36 H 1.038725 -1.788556 4.664107 0
M  V30 37 H -1.193541 -3.572912 3.548828 0
M  V30 END ATOM
M  V30 BEGIN BOND
M  V30 1 1 1 2
M  V30 2 1 2 3
M  V30 3 2 3 4
M  V30 4 1 4 5
M  V30 5 1 5 6
M  V30 6 2 6 7
M  V30 7 1 7 8
M  V30 8 2 8 9
M  V30 9 1 9 10
M  V30 10 1 10 11
M  V30 11 1 11 12
M  V30 12 1 12 13
M  V30 13 2 13 14
M  V30 14 1 13 15
M  V30 15 2 12 16
M  V30 16 1 16 17
M  V30 17 1 16 18
M  V30 18 1 4 19
M  V30 19 2 19 20
M  V30 20 1 19 21
M  V30 21 1 21 22
M  V30 22 1 21 23
M  V30 23 2 23 2
M  V30 24 1 18 6
M  V30 25 2 18 10
M  V30 26 1 1 24
M  V30 27 1 1 25
M  V30 28 1 1 26
M  V30 29 1 3 27
M  V30 30 1 5 28
M  V30 31 1 8 29
M  V30 32 1 15 30
M  V30 33 1 17 31
M  V30 34 1 17 32
M  V30 35 1 17 33
M  V30 36 1 22 34
M  V30 37 1 22 35
M  V30 38 1 22 36
M  V30 39 1 23 37
M  V30 END BOND
M  V30 END CTAB
M  END
>  <Dataset>  (89) 
ChEMBL_Kinases

>  <Ligand_Instance>  (89) 
nan

>  <PDB_ID>  (89) 
nan

>  <Standardized_SMILES>  (89) 
Cc1cc(Nc2ncnc3sc(C(=O)O)c(C)c23)c(=O)n(C)c1

>  <Name>  (89) 
nan

>  <Pocket>  (89) 
nan

>  <ATP_Site>  (89) 
nan

>  <Peripheral>  (89) 
nan

>  <Num_H_Atoms_ProtBoundConf>  (89) 
nan

>  <Num_Resolved_Atoms>  (89) 
nan

>  <Num_Not_Resolved_Atoms>  (89) 
nan

$$$$
CHEMBL3417199
     RDKit          3D

  0  0  0  0  0  0  0  0  0  0999 V3000
M  V30 BEGIN CTAB
M  V30 COUNTS 44 46 0 0 0
M  V30 BEGIN ATOM
M  V30 1 C -0.098448 -5.545790 0.775227 0
M  V30 2 O 0.929187 -4.661000 0.447236 0
M  V30 3 C 0.795903 -4.394202 -0.906800 0
M  V30 4 C 1.844542 -3.445413 -1.417114 0
M  V30 5 N 1.800460 -2.162270 -0.742680 0
M  V30 6 C 2.559535 -2.027196 0.375635 0
M  V30 7 C 2.592420 -0.836369 1.103418 0
M  V30 8 C 3.424657 -0.705738 2.320781 0
M  V30 9 C 1.822565 0.215653 0.650983 0
M  V30 10 C 1.067062 0.032915 -0.489484 0
M  V30 11 N 0.269352 1.137888 -0.941914 0
M  V30 12 C 0.290293 2.354565 -0.215047 0
M  V30 13 N 1.155146 3.240410 -0.677489 0
M  V30 14 C 1.364497 4.446790 -0.168476 0
M  V30 15 N 0.639875 4.791850 0.899792 0
M  V30 16 C -0.273848 3.865286 1.394545 0
M  V30 17 S -1.413252 4.022179 2.844750 0
M  V30 18 C -2.092265 2.382948 2.621318 0
M  V30 19 C -3.110541 1.803809 3.474838 0
M  V30 20 O -3.667734 0.672776 3.427088 0
M  V30 21 O -3.588254 2.563245 4.528627 0
M  V30 22 C -1.456570 1.819316 1.512748 0
M  V30 23 C -1.798840 0.450389 1.053143 0
M  V30 24 C -0.519752 2.562771 0.868095 0
M  V30 25 C 1.036856 -1.145747 -1.206858 0
M  V30 26 O 0.336516 -1.278079 -2.242956 0
M  V30 27 H -0.008842 -6.474883 0.185414 0
M  V30 28 H -0.067707 -5.817139 1.841949 0
M  V30 29 H -1.093463 -5.115954 0.562057 0
M  V30 30 H 0.939766 -5.361681 -1.429703 0
M  V30 31 H -0.233437 -4.047284 -1.171278 0
M  V30 32 H 1.625200 -3.239546 -2.485530 0
M  V30 33 H 2.812974 -3.938596 -1.345812 0
M  V30 34 H 3.159037 -2.858767 0.721207 0
M  V30 35 H 4.157429 -1.543005 2.313703 0
M  V30 36 H 3.975067 0.257837 2.273330 0
M  V30 37 H 2.843222 -0.713748 3.265522 0
M  V30 38 H 1.821378 1.154321 1.187894 0
M  V30 39 H -0.323510 1.066512 -1.798555 0
M  V30 40 H 2.010914 5.241671 -0.430508 0
M  V30 41 H -4.335126 2.296730 5.119656 0
M  V30 42 H -1.173812 -0.331535 1.508071 0
M  V30 43 H -2.849715 0.234480 1.323379 0
M  V30 44 H -1.770851 0.358782 -0.052619 0
M  V30 END ATOM
M  V30 BEGIN BOND
M  V30 1 1 1 2
M  V30 2 1 2 3
M  V30 3 1 3 4
M  V30 4 1 4 5
M  V30 5 1 5 6
M  V30 6 2 6 7
M  V30 7 1 7 8
M  V30 8 1 7 9
M  V30 9 2 9 10
M  V30 10 1 10 11
M  V30 11 1 11 12
M  V30 12 2 12 13
M  V30 13 1 13 14
M  V30 14 2 14 15
M  V30 15 1 15 16
M  V30 16 1 16 17
M  V30 17 1 17 18
M  V30 18 1 18 19
M  V30 19 2 19 20
M  V30 20 1 19 21
M  V30 21 2 18 22
M  V30 22 1 22 23
M  V30 23 1 22 24
M  V30 24 1 10 25
M  V30 25 2 25 26
M  V30 26 1 25 5
M  V30 27 1 24 12
M  V30 28 2 24 16
M  V30 29 1 1 27
M  V30 30 1 1 28
M  V30 31 1 1 29
M  V30 32 1 3 30
M  V30 33 1 3 31
M  V30 34 1 4 32
M  V30 35 1 4 33
M  V30 36 1 6 34
M  V30 37 1 8 35
M  V30 38 1 8 36
M  V30 39 1 8 37
M  V30 40 1 9 38
M  V30 41 1 11 39
M  V30 42 1 14 40
M  V30 43 1 21 41
M  V30 44 1 23 42
M  V30 45 1 23 43
M  V30 46 1 23 44
M  V30 END BOND
M  V30 END CTAB
M  END
>  <Dataset>  (90) 
ChEMBL_Kinases

>  <Ligand_Instance>  (90) 
nan

>  <PDB_ID>  (90) 
nan

>  <Standardized_SMILES>  (90) 
COCCn1cc(C)cc(Nc2ncnc3sc(C(=O)O)c(C)c23)c1=O

>  <Name>  (90) 
nan

>  <Pocket>  (90) 
nan

>  <ATP_Site>  (90) 
nan

>  <Peripheral>  (90) 
nan

>  <Num_H_Atoms_ProtBoundConf>  (90) 
nan

>  <Num_Resolved_Atoms>  (90) 
nan

>  <Num_Not_Resolved_Atoms>  (90) 
nan

$$$$
CHEMBL4091862
     RDKit          3D

  0  0  0  0  0  0  0  0  0  0999 V3000
M  V30 BEGIN CTAB
M  V30 COUNTS 33 35 0 0 0
M  V30 BEGIN ATOM
M  V30 1 C -0.223582 -2.013052 2.523674 0
M  V30 2 C 0.549690 -2.646953 1.385224 0
M  V30 3 C -0.339521 -3.619644 0.699110 0
M  V30 4 N 1.778863 -3.167885 1.899537 0
M  V30 5 C 2.813251 -2.315538 1.374651 0
M  V30 6 O 4.070833 -2.377475 1.601921 0
M  V30 7 C 2.277293 -1.293098 0.490503 0
M  V30 8 C 2.669853 -0.244027 -0.308100 0
M  V30 9 F 4.029446 -0.015639 -0.295037 0
M  V30 10 C 1.767904 0.507752 -1.053838 0
M  V30 11 C 0.401867 0.189599 -0.993117 0
M  V30 12 N -0.481925 1.009962 -1.783338 0
M  V30 13 C -1.374920 1.528304 -0.779609 0
M  V30 14 C -1.009128 2.434051 0.216627 0
M  V30 15 C -1.993364 2.856630 1.109161 0
M  V30 16 N -3.243668 2.389491 0.988725 0
M  V30 17 C -3.596561 1.509582 0.021023 0
M  V30 18 N -2.653093 1.095996 -0.845470 0
M  V30 19 C 0.013464 -0.877958 -0.177510 0
M  V30 20 O -1.209634 -1.051702 -0.215720 0
M  V30 21 N 0.959678 -1.545091 0.505439 0
M  V30 22 H -1.194897 -1.668156 2.178294 0
M  V30 23 H 0.406510 -1.181486 2.895686 0
M  V30 24 H -0.306943 -2.752533 3.340562 0
M  V30 25 H -1.424764 -3.352105 0.837068 0
M  V30 26 H -0.165878 -3.681254 -0.395615 0
M  V30 27 H -0.204436 -4.630015 1.124830 0
M  V30 28 H 1.964777 -3.969513 2.513176 0
M  V30 29 H 2.199963 1.313807 -1.652900 0
M  V30 30 H -0.371716 1.107201 -2.813929 0
M  V30 31 H 0.044992 2.678401 0.134684 0
M  V30 32 H -1.573018 3.541004 1.813114 0
M  V30 33 H -4.640354 1.259275 0.096279 0
M  V30 END ATOM
M  V30 BEGIN BOND
M  V30 1 1 1 2
M  V30 2 1 2 3
M  V30 3 1 2 4
M  V30 4 1 4 5
M  V30 5 2 5 6
M  V30 6 1 5 7
M  V30 7 2 7 8
M  V30 8 1 8 9
M  V30 9 1 8 10
M  V30 10 2 10 11
M  V30 11 1 11 12
M  V30 12 1 12 13
M  V30 13 2 13 14
M  V30 14 1 14 15
M  V30 15 2 15 16
M  V30 16 1 16 17
M  V30 17 2 17 18
M  V30 18 1 11 19
M  V30 19 2 19 20
M  V30 20 1 19 21
M  V30 21 1 21 2
M  V30 22 1 21 7
M  V30 23 1 18 13
M  V30 24 1 1 22
M  V30 25 1 1 23
M  V30 26 1 1 24
M  V30 27 1 3 25
M  V30 28 1 3 26
M  V30 29 1 3 27
M  V30 30 1 4 28
M  V30 31 1 10 29
M  V30 32 1 12 30
M  V30 33 1 14 31
M  V30 34 1 15 32
M  V30 35 1 17 33
M  V30 END BOND
M  V30 END CTAB
M  END
>  <Dataset>  (91) 
ChEMBL_Kinases

>  <Ligand_Instance>  (91) 
nan

>  <PDB_ID>  (91) 
nan

>  <Standardized_SMILES>  (91) 
CC1(C)NC(=O)c2c(F)cc(Nc3ccncn3)c(=O)n21

>  <Name>  (91) 
nan

>  <Pocket>  (91) 
nan

>  <ATP_Site>  (91) 
nan

>  <Peripheral>  (91) 
nan

>  <Num_H_Atoms_ProtBoundConf>  (91) 
nan

>  <Num_Resolved_Atoms>  (91) 
nan

>  <Num_Not_Resolved_Atoms>  (91) 
nan

$$$$
CHEMBL3417203
     RDKit          3D

  0  0  0  0  0  0  0  0  0  0999 V3000
M  V30 BEGIN CTAB
M  V30 COUNTS 48 50 0 0 0
M  V30 BEGIN ATOM
M  V30 1 C 3.313889 -5.007154 3.237586 0
M  V30 2 O 3.663517 -4.604245 1.934561 0
M  V30 3 C 2.880988 -5.356368 1.049716 0
M  V30 4 C 3.220928 -4.958203 -0.367152 0
M  V30 5 N 2.976292 -3.556334 -0.630961 0
M  V30 6 C 1.684800 -2.914463 -0.541940 0
M  V30 7 O 0.804977 -3.736171 -0.212505 0
M  V30 8 C 1.618475 -1.497513 -0.833844 0
M  V30 9 S 3.047063 -0.466067 -1.301343 0
M  V30 10 C 2.039911 1.051877 -1.459513 0
M  V30 11 N 2.401025 2.314294 -1.794321 0
M  V30 12 C 1.512717 3.308245 -1.857992 0
M  V30 13 N 0.283740 2.935580 -1.567855 0
M  V30 14 C -0.120550 1.725344 -1.236736 0
M  V30 15 N -1.495679 1.662580 -0.984865 0
M  V30 16 C -2.086279 1.807068 0.305771 0
M  V30 17 C -1.222866 2.013699 1.359745 0
M  V30 18 C -1.763491 2.162443 2.637257 0
M  V30 19 C -0.943808 2.386763 3.857862 0
M  V30 20 C -3.146868 2.082747 2.698613 0
M  V30 21 N -3.962212 1.881468 1.661447 0
M  V30 22 C -5.412952 1.816518 1.847321 0
M  V30 23 C -3.456673 1.735281 0.418843 0
M  V30 24 O -4.235681 1.549218 -0.524958 0
M  V30 25 C 0.744754 0.660064 -1.153661 0
M  V30 26 C 0.543015 -0.651374 -0.834230 0
M  V30 27 C -0.812653 -1.197381 -0.487321 0
M  V30 28 H 3.541361 -6.099123 3.297206 0
M  V30 29 H 3.919126 -4.446754 3.981152 0
M  V30 30 H 2.230518 -4.916235 3.398134 0
M  V30 31 H 3.146414 -6.445856 1.156256 0
M  V30 32 H 1.813797 -5.188926 1.223907 0
M  V30 33 H 4.319315 -5.122535 -0.460549 0
M  V30 34 H 2.669258 -5.605299 -1.099252 0
M  V30 35 H 3.807138 -2.948870 -0.912613 0
M  V30 36 H 1.989386 4.222266 -2.137486 0
M  V30 37 H -2.099647 1.498285 -1.844390 0
M  V30 38 H -0.154999 2.071544 1.286859 0
M  V30 39 H -1.519815 1.996161 4.728321 0
M  V30 40 H -0.028199 1.743451 3.743025 0
M  V30 41 H -0.612502 3.416706 3.966193 0
M  V30 42 H -3.608918 2.193512 3.671456 0
M  V30 43 H -5.826573 2.796803 1.532321 0
M  V30 44 H -5.644814 1.518755 2.872444 0
M  V30 45 H -5.777785 1.093931 1.080118 0
M  V30 46 H -0.983794 -1.125013 0.604520 0
M  V30 47 H -1.619218 -0.699284 -1.055359 0
M  V30 48 H -0.892405 -2.268649 -0.757062 0
M  V30 END ATOM
M  V30 BEGIN BOND
M  V30 1 1 1 2
M  V30 2 1 2 3
M  V30 3 1 3 4
M  V30 4 1 4 5
M  V30 5 1 5 6
M  V30 6 2 6 7
M  V30 7 1 6 8
M  V30 8 1 8 9
M  V30 9 1 9 10
M  V30 10 2 10 11
M  V30 11 1 11 12
M  V30 12 2 12 13
M  V30 13 1 13 14
M  V30 14 1 14 15
M  V30 15 1 15 16
M  V30 16 2 16 17
M  V30 17 1 17 18
M  V30 18 1 18 19
M  V30 19 2 18 20
M  V30 20 1 20 21
M  V30 21 1 21 22
M  V30 22 1 21 23
M  V30 23 2 23 24
M  V30 24 2 14 25
M  V30 25 1 25 26
M  V30 26 1 26 27
M  V30 27 2 26 8
M  V30 28 1 25 10
M  V30 29 1 23 16
M  V30 30 1 1 28
M  V30 31 1 1 29
M  V30 32 1 1 30
M  V30 33 1 3 31
M  V30 34 1 3 32
M  V30 35 1 4 33
M  V30 36 1 4 34
M  V30 37 1 5 35
M  V30 38 1 12 36
M  V30 39 1 15 37
M  V30 40 1 17 38
M  V30 41 1 19 39
M  V30 42 1 19 40
M  V30 43 1 19 41
M  V30 44 1 20 42
M  V30 45 1 22 43
M  V30 46 1 22 44
M  V30 47 1 22 45
M  V30 48 1 27 46
M  V30 49 1 27 47
M  V30 50 1 27 48
M  V30 END BOND
M  V30 END CTAB
M  END
>  <Dataset>  (92) 
ChEMBL_Kinases

>  <Ligand_Instance>  (92) 
nan

>  <PDB_ID>  (92) 
nan

>  <Standardized_SMILES>  (92) 
COCCNC(=O)c1sc2ncnc(Nc3cc(C)cn(C)c3=O)c2c1C

>  <Name>  (92) 
nan

>  <Pocket>  (92) 
nan

>  <ATP_Site>  (92) 
nan

>  <Peripheral>  (92) 
nan

>  <Num_H_Atoms_ProtBoundConf>  (92) 
nan

>  <Num_Resolved_Atoms>  (92) 
nan

>  <Num_Not_Resolved_Atoms>  (92) 
nan

$$$$
CHEMBL3417204
     RDKit          3D

  0  0  0  0  0  0  0  0  0  0999 V3000
M  V30 BEGIN CTAB
M  V30 COUNTS 51 53 0 0 0
M  V30 BEGIN ATOM
M  V30 1 C 3.344043 -7.147075 0.698408 0
M  V30 2 O 4.498477 -6.644715 1.295675 0
M  V30 3 C 4.203830 -5.690335 2.265121 0
M  V30 4 C 3.453437 -4.502099 1.699461 0
M  V30 5 C 3.178292 -3.523644 2.813555 0
M  V30 6 N 2.460670 -2.351466 2.393378 0
M  V30 7 C 2.884815 -1.395045 1.439253 0
M  V30 8 O 4.025729 -1.728298 0.992421 0
M  V30 9 C 2.249552 -0.182844 0.938752 0
M  V30 10 S 3.231194 0.652191 -0.269303 0
M  V30 11 C 2.101234 2.009926 -0.575063 0
M  V30 12 N 2.152639 3.084246 -1.388405 0
M  V30 13 C 1.133053 3.955779 -1.401776 0
M  V30 14 N 0.113899 3.674702 -0.576875 0
M  V30 15 C 0.064952 2.609726 0.227796 0
M  V30 16 N -1.156919 2.640897 0.945746 0
M  V30 17 C -2.335035 2.158830 0.308666 0
M  V30 18 C -2.287203 1.673148 -0.979892 0
M  V30 19 C -3.519375 1.236210 -1.471002 0
M  V30 20 C -3.625585 0.684893 -2.848880 0
M  V30 21 C -4.689685 1.282220 -0.738290 0
M  V30 22 N -4.690331 1.763039 0.512843 0
M  V30 23 C -5.868499 1.838205 1.326881 0
M  V30 24 C -3.528881 2.191275 1.018420 0
M  V30 25 O -3.507924 2.648092 2.195556 0
M  V30 26 C 1.085212 1.691877 0.275589 0
M  V30 27 C 1.147117 0.578174 1.053311 0
M  V30 28 C 0.165283 0.073766 2.042459 0
M  V30 29 H 2.669142 -7.632374 1.436024 0
M  V30 30 H 3.652871 -7.966053 0.011520 0
M  V30 31 H 2.808847 -6.420096 0.075868 0
M  V30 32 H 5.130266 -5.345305 2.724907 0
M  V30 33 H 3.572775 -6.139782 3.053755 0
M  V30 34 H 2.494001 -4.781088 1.252601 0
M  V30 35 H 4.109101 -4.014455 0.955749 0
M  V30 36 H 4.115741 -3.270999 3.360985 0
M  V30 37 H 2.550991 -4.078990 3.552010 0
M  V30 38 H 1.527271 -2.155504 2.813055 0
M  V30 39 H 1.251612 4.785736 -2.077532 0
M  V30 40 H -1.182112 3.013559 1.919838 0
M  V30 41 H -1.396505 1.629927 -1.558946 0
M  V30 42 H -3.627799 1.527655 -3.564003 0
M  V30 43 H -4.494268 0.009361 -2.937654 0
M  V30 44 H -2.687628 0.104050 -3.010583 0
M  V30 45 H -5.633524 0.945036 -1.120744 0
M  V30 46 H -5.610720 2.009183 2.382574 0
M  V30 47 H -6.487020 0.930527 1.293991 0
M  V30 48 H -6.458312 2.746169 1.021418 0
M  V30 49 H -0.762263 0.672635 2.118542 0
M  V30 50 H 0.621389 -0.025933 3.056332 0
M  V30 51 H -0.200145 -0.951639 1.771148 0
M  V30 END ATOM
M  V30 BEGIN BOND
M  V30 1 1 1 2
M  V30 2 1 2 3
M  V30 3 1 3 4
M  V30 4 1 4 5
M  V30 5 1 5 6
M  V30 6 1 6 7
M  V30 7 2 7 8
M  V30 8 1 7 9
M  V30 9 1 9 10
M  V30 10 1 10 11
M  V30 11 2 11 12
M  V30 12 1 12 13
M  V30 13 2 13 14
M  V30 14 1 14 15
M  V30 15 1 15 16
M  V30 16 1 16 17
M  V30 17 2 17 18
M  V30 18 1 18 19
M  V30 19 1 19 20
M  V30 20 2 19 21
M  V30 21 1 21 22
M  V30 22 1 22 23
M  V30 23 1 22 24
M  V30 24 2 24 25
M  V30 25 2 15 26
M  V30 26 1 26 27
M  V30 27 1 27 28
M  V30 28 2 27 9
M  V30 29 1 26 11
M  V30 30 1 24 17
M  V30 31 1 1 29
M  V30 32 1 1 30
M  V30 33 1 1 31
M  V30 34 1 3 32
M  V30 35 1 3 33
M  V30 36 1 4 34
M  V30 37 1 4 35
M  V30 38 1 5 36
M  V30 39 1 5 37
M  V30 40 1 6 38
M  V30 41 1 13 39
M  V30 42 1 16 40
M  V30 43 1 18 41
M  V30 44 1 20 42
M  V30 45 1 20 43
M  V30 46 1 20 44
M  V30 47 1 21 45
M  V30 48 1 23 46
M  V30 49 1 23 47
M  V30 50 1 23 48
M  V30 51 1 28 49
M  V30 52 1 28 50
M  V30 53 1 28 51
M  V30 END BOND
M  V30 END CTAB
M  END
>  <Dataset>  (93) 
ChEMBL_Kinases

>  <Ligand_Instance>  (93) 
nan

>  <PDB_ID>  (93) 
nan

>  <Standardized_SMILES>  (93) 
COCCCNC(=O)c1sc2ncnc(Nc3cc(C)cn(C)c3=O)c2c1C

>  <Name>  (93) 
nan

>  <Pocket>  (93) 
nan

>  <ATP_Site>  (93) 
nan

>  <Peripheral>  (93) 
nan

>  <Num_H_Atoms_ProtBoundConf>  (93) 
nan

>  <Num_Resolved_Atoms>  (93) 
nan

>  <Num_Not_Resolved_Atoms>  (93) 
nan

$$$$
CHEMBL3417205
     RDKit          3D

  0  0  0  0  0  0  0  0  0  0999 V3000
M  V30 BEGIN CTAB
M  V30 COUNTS 45 47 0 0 0
M  V30 BEGIN ATOM
M  V30 1 C -0.288857 -5.499674 0.459841 0
M  V30 2 O 0.467920 -4.595100 -0.289168 0
M  V30 3 C -0.335276 -4.137130 -1.313791 0
M  V30 4 C 0.363704 -3.138969 -2.214804 0
M  V30 5 N 0.791123 -1.973131 -1.461346 0
M  V30 6 C 2.017511 -2.002887 -0.912287 0
M  V30 7 C 2.394288 -0.881385 -0.202535 0
M  V30 8 C 3.737029 -0.830220 0.438775 0
M  V30 9 C 1.536459 0.217773 -0.070593 0
M  V30 10 C 0.292691 0.188507 -0.655963 0
M  V30 11 N -0.584652 1.325105 -0.513755 0
M  V30 12 C -0.072466 2.406787 0.242673 0
M  V30 13 N 0.535466 3.323802 -0.511779 0
M  V30 14 C 1.104559 4.430050 -0.076036 0
M  V30 15 N 1.044484 4.607353 1.235997 0
M  V30 16 C 0.429508 3.688943 2.044558 0
M  V30 17 S 0.182121 3.641592 3.909060 0
M  V30 18 C -0.683687 2.087101 3.854223 0
M  V30 19 C -1.134521 1.541478 5.098265 0
M  V30 20 N -1.836509 0.318866 5.253900 0
M  V30 21 O -0.926558 2.137648 6.168491 0
M  V30 22 C -0.743933 1.701314 2.532043 0
M  V30 23 C -1.425972 0.422251 2.208938 0
M  V30 24 C -0.171873 2.524423 1.603653 0
M  V30 25 C -0.085970 -0.932232 -1.366154 0
M  V30 26 O -1.212312 -0.998038 -1.914915 0
M  V30 27 H -0.620438 -6.347803 -0.164056 0
M  V30 28 H 0.302550 -5.881499 1.314350 0
M  V30 29 H -1.190069 -5.035336 0.905709 0
M  V30 30 H -0.604011 -5.000243 -1.951002 0
M  V30 31 H -1.297146 -3.736376 -0.916538 0
M  V30 32 H -0.368228 -2.828454 -2.985262 0
M  V30 33 H 1.188471 -3.664741 -2.712793 0
M  V30 34 H 2.647895 -2.873845 -1.039564 0
M  V30 35 H 3.959078 0.216376 0.751560 0
M  V30 36 H 4.544115 -1.086754 -0.286179 0
M  V30 37 H 3.786786 -1.442111 1.365418 0
M  V30 38 H 1.910716 1.054565 0.501745 0
M  V30 39 H -1.531974 1.257419 -0.987774 0
M  V30 40 H 1.623335 5.254438 -0.529069 0
M  V30 41 H -1.490894 -0.686312 5.206141 0
M  V30 42 H -2.573425 -0.373136 5.406332 0
M  V30 43 H -2.240972 0.221793 2.934719 0
M  V30 44 H -1.910496 0.439947 1.209158 0
M  V30 45 H -0.700735 -0.435162 2.149959 0
M  V30 END ATOM
M  V30 BEGIN BOND
M  V30 1 1 1 2
M  V30 2 1 2 3
M  V30 3 1 3 4
M  V30 4 1 4 5
M  V30 5 1 5 6
M  V30 6 2 6 7
M  V30 7 1 7 8
M  V30 8 1 7 9
M  V30 9 2 9 10
M  V30 10 1 10 11
M  V30 11 1 11 12
M  V30 12 2 12 13
M  V30 13 1 13 14
M  V30 14 2 14 15
M  V30 15 1 15 16
M  V30 16 1 16 17
M  V30 17 1 17 18
M  V30 18 1 18 19
M  V30 19 1 19 20
M  V30 20 2 19 21
M  V30 21 2 18 22
M  V30 22 1 22 23
M  V30 23 1 22 24
M  V30 24 1 10 25
M  V30 25 2 25 26
M  V30 26 1 25 5
M  V30 27 1 24 12
M  V30 28 2 24 16
M  V30 29 1 1 27
M  V30 30 1 1 28
M  V30 31 1 1 29
M  V30 32 1 3 30
M  V30 33 1 3 31
M  V30 34 1 4 32
M  V30 35 1 4 33
M  V30 36 1 6 34
M  V30 37 1 8 35
M  V30 38 1 8 36
M  V30 39 1 8 37
M  V30 40 1 9 38
M  V30 41 1 11 39
M  V30 42 1 14 40
M  V30 43 1 20 41
M  V30 44 1 20 42
M  V30 45 1 23 43
M  V30 46 1 23 44
M  V30 47 1 23 45
M  V30 END BOND
M  V30 END CTAB
M  END
>  <Dataset>  (94) 
ChEMBL_Kinases

>  <Ligand_Instance>  (94) 
nan

>  <PDB_ID>  (94) 
nan

>  <Standardized_SMILES>  (94) 
COCCn1cc(C)cc(Nc2ncnc3sc(C(N)=O)c(C)c23)c1=O

>  <Name>  (94) 
nan

>  <Pocket>  (94) 
nan

>  <ATP_Site>  (94) 
nan

>  <Peripheral>  (94) 
nan

>  <Num_H_Atoms_ProtBoundConf>  (94) 
nan

>  <Num_Resolved_Atoms>  (94) 
nan

>  <Num_Not_Resolved_Atoms>  (94) 
nan

$$$$
CHEMBL3417207
     RDKit          3D

  0  0  0  0  0  0  0  0  0  0999 V3000
M  V30 BEGIN CTAB
M  V30 COUNTS 34 36 0 0 0
M  V30 BEGIN ATOM
M  V30 1 C 0.591057 -2.271974 2.036976 0
M  V30 2 C 1.742043 -1.787513 1.235887 0
M  V30 3 C 2.621320 -2.759548 0.894872 0
M  V30 4 C 2.742682 -4.163261 1.099698 0
M  V30 5 O 3.697721 -4.843020 0.653441 0
M  V30 6 O 1.759684 -4.814711 1.826822 0
M  V30 7 S 3.906905 -1.865088 -0.060040 0
M  V30 8 C 3.159318 -0.270784 0.078773 0
M  V30 9 N 3.483233 0.953021 -0.356144 0
M  V30 10 C 2.736587 2.041508 -0.116017 0
M  V30 11 N 1.639002 1.812432 0.593215 0
M  V30 12 C 1.261028 0.634803 1.051726 0
M  V30 13 N 0.044428 0.746115 1.766888 0
M  V30 14 C -1.268149 0.721763 1.166380 0
M  V30 15 C -2.455679 0.818327 1.871911 0
M  V30 16 C -3.658956 0.789362 1.189118 0
M  V30 17 C -3.654275 0.662539 -0.204509 0
M  V30 18 O -4.782500 0.640543 -0.786679 0
M  V30 19 N -2.484503 0.570827 -0.860795 0
M  V30 20 C -2.572895 0.443436 -2.297813 0
M  V30 21 C -1.309238 0.598255 -0.205351 0
M  V30 22 C 1.991262 -0.506032 0.832381 0
M  V30 23 H 0.931683 -2.911830 2.889917 0
M  V30 24 H -0.024936 -1.495778 2.483752 0
M  V30 25 H -0.010002 -2.990951 1.406060 0
M  V30 26 H 1.849437 -5.783638 2.130791 0
M  V30 27 H 3.169018 2.927430 -0.550407 0
M  V30 28 H 0.193466 0.853808 2.802924 0
M  V30 29 H -2.363589 0.914058 2.950088 0
M  V30 30 H -4.561352 0.869406 1.791591 0
M  V30 31 H -3.435461 -0.224592 -2.551302 0
M  V30 32 H -1.643084 0.178663 -2.797588 0
M  V30 33 H -2.868469 1.452196 -2.669019 0
M  V30 34 H -0.428392 0.516740 -0.839302 0
M  V30 END ATOM
M  V30 BEGIN BOND
M  V30 1 1 1 2
M  V30 2 2 2 3
M  V30 3 1 3 4
M  V30 4 2 4 5
M  V30 5 1 4 6
M  V30 6 1 3 7
M  V30 7 1 7 8
M  V30 8 2 8 9
M  V30 9 1 9 10
M  V30 10 2 10 11
M  V30 11 1 11 12
M  V30 12 1 12 13
M  V30 13 1 13 14
M  V30 14 1 14 15
M  V30 15 2 15 16
M  V30 16 1 16 17
M  V30 17 2 17 18
M  V30 18 1 17 19
M  V30 19 1 19 20
M  V30 20 1 19 21
M  V30 21 2 12 22
M  V30 22 1 22 2
M  V30 23 1 22 8
M  V30 24 2 21 14
M  V30 25 1 1 23
M  V30 26 1 1 24
M  V30 27 1 1 25
M  V30 28 1 6 26
M  V30 29 1 10 27
M  V30 30 1 13 28
M  V30 31 1 15 29
M  V30 32 1 16 30
M  V30 33 1 20 31
M  V30 34 1 20 32
M  V30 35 1 20 33
M  V30 36 1 21 34
M  V30 END BOND
M  V30 END CTAB
M  END
>  <Dataset>  (95) 
ChEMBL_Kinases

>  <Ligand_Instance>  (95) 
nan

>  <PDB_ID>  (95) 
nan

>  <Standardized_SMILES>  (95) 
Cc1c(C(=O)O)sc2ncnc(Nc3ccc(=O)n(C)c3)c12

>  <Name>  (95) 
nan

>  <Pocket>  (95) 
nan

>  <ATP_Site>  (95) 
nan

>  <Peripheral>  (95) 
nan

>  <Num_H_Atoms_ProtBoundConf>  (95) 
nan

>  <Num_Resolved_Atoms>  (95) 
nan

>  <Num_Not_Resolved_Atoms>  (95) 
nan

$$$$
CHEMBL3417208
     RDKit          3D

  0  0  0  0  0  0  0  0  0  0999 V3000
M  V30 BEGIN CTAB
M  V30 COUNTS 35 37 0 0 0
M  V30 BEGIN ATOM
M  V30 1 C -0.425230 -2.127072 1.173916 0
M  V30 2 C 0.954329 -2.120311 1.728631 0
M  V30 3 C 1.546395 -3.339425 1.907940 0
M  V30 4 C 1.161846 -4.685562 1.682252 0
M  V30 5 N -0.050304 -5.193482 1.154050 0
M  V30 6 O 1.897286 -5.666902 1.939248 0
M  V30 7 S 3.160968 -2.942553 2.582282 0
M  V30 8 C 2.934989 -1.164399 2.579002 0
M  V30 9 N 3.726395 -0.144114 2.948611 0
M  V30 10 C 3.336916 1.138504 2.851859 0
M  V30 11 N 2.100341 1.302489 2.358079 0
M  V30 12 C 1.294754 0.326604 1.985081 0
M  V30 13 N 0.056585 0.821033 1.501913 0
M  V30 14 C -0.301682 1.134775 0.163987 0
M  V30 15 C 0.633227 0.937097 -0.822176 0
M  V30 16 C 0.215331 1.261682 -2.112753 0
M  V30 17 C -1.073741 1.742658 -2.277625 0
M  V30 18 O -1.473273 2.043638 -3.442384 0
M  V30 19 N -1.960537 1.920991 -1.273231 0
M  V30 20 C -3.294695 2.425335 -1.487872 0
M  V30 21 C -1.577057 1.613984 -0.023249 0
M  V30 22 C 1.652519 -0.996513 2.067254 0
M  V30 23 H -0.299761 -1.974999 0.070538 0
M  V30 24 H -0.992373 -3.042534 1.428844 0
M  V30 25 H -1.035534 -1.281607 1.557766 0
M  V30 26 H -0.187575 -5.123991 0.102256 0
M  V30 27 H -0.887490 -5.649141 1.605598 0
M  V30 28 H 4.105554 1.806925 3.196178 0
M  V30 29 H -0.564000 0.919867 2.332870 0
M  V30 30 H 1.630250 0.560880 -0.660036 0
M  V30 31 H 0.836463 1.158578 -2.978821 0
M  V30 32 H -3.523914 2.580901 -2.557638 0
M  V30 33 H -4.052205 1.717829 -1.073569 0
M  V30 34 H -3.393138 3.423452 -0.981727 0
M  V30 35 H -2.257478 1.743931 0.802214 0
M  V30 END ATOM
M  V30 BEGIN BOND
M  V30 1 1 1 2
M  V30 2 2 2 3
M  V30 3 1 3 4
M  V30 4 1 4 5
M  V30 5 2 4 6
M  V30 6 1 3 7
M  V30 7 1 7 8
M  V30 8 2 8 9
M  V30 9 1 9 10
M  V30 10 2 10 11
M  V30 11 1 11 12
M  V30 12 1 12 13
M  V30 13 1 13 14
M  V30 14 1 14 15
M  V30 15 2 15 16
M  V30 16 1 16 17
M  V30 17 2 17 18
M  V30 18 1 17 19
M  V30 19 1 19 20
M  V30 20 1 19 21
M  V30 21 2 12 22
M  V30 22 1 22 2
M  V30 23 1 22 8
M  V30 24 2 21 14
M  V30 25 1 1 23
M  V30 26 1 1 24
M  V30 27 1 1 25
M  V30 28 1 5 26
M  V30 29 1 5 27
M  V30 30 1 10 28
M  V30 31 1 13 29
M  V30 32 1 15 30
M  V30 33 1 16 31
M  V30 34 1 20 32
M  V30 35 1 20 33
M  V30 36 1 20 34
M  V30 37 1 21 35
M  V30 END BOND
M  V30 END CTAB
M  END
>  <Dataset>  (96) 
ChEMBL_Kinases

>  <Ligand_Instance>  (96) 
nan

>  <PDB_ID>  (96) 
nan

>  <Standardized_SMILES>  (96) 
Cc1c(C(N)=O)sc2ncnc(Nc3ccc(=O)n(C)c3)c12

>  <Name>  (96) 
nan

>  <Pocket>  (96) 
nan

>  <ATP_Site>  (96) 
nan

>  <Peripheral>  (96) 
nan

>  <Num_H_Atoms_ProtBoundConf>  (96) 
nan

>  <Num_Resolved_Atoms>  (96) 
nan

>  <Num_Not_Resolved_Atoms>  (96) 
nan

$$$$
CHEMBL3417325
     RDKit          3D

  0  0  0  0  0  0  0  0  0  0999 V3000
M  V30 BEGIN CTAB
M  V30 COUNTS 59 62 0 0 0
M  V30 BEGIN ATOM
M  V30 1 C 2.481775 -3.044386 6.821642 0
M  V30 2 N 3.079466 -3.784000 5.760719 0
M  V30 3 C 4.304482 -3.273808 5.271799 0
M  V30 4 C 4.318548 -2.776115 3.855245 0
M  V30 5 C 2.910678 -2.602726 3.417629 0
M  V30 6 N 2.708242 -2.129790 2.077439 0
M  V30 7 C 1.820903 -1.026304 2.048919 0
M  V30 8 O 1.270942 -0.494298 3.045488 0
M  V30 9 C 1.475879 -0.417900 0.743287 0
M  V30 10 C 0.437265 0.523926 0.723656 0
M  V30 11 C 0.046918 1.134301 -0.463182 0
M  V30 12 C 0.750389 0.742050 -1.580606 0
M  V30 13 N 0.380839 1.304380 -2.837801 0
M  V30 14 C -0.621283 2.264647 -3.133233 0
M  V30 15 N -0.509403 3.555724 -3.526813 0
M  V30 16 C -1.566115 4.330843 -3.759973 0
M  V30 17 C -2.857775 3.874604 -3.616832 0
M  V30 18 Br -4.427828 4.896420 -3.925950 0
M  V30 19 C -2.992167 2.539889 -3.208835 0
M  V30 20 N -4.254683 1.889186 -3.004898 0
M  V30 21 C -4.480620 0.544796 -2.577755 0
M  V30 22 C -3.985186 0.247904 -1.170246 0
M  V30 23 C -3.711794 -1.259667 -1.199091 0
M  V30 24 C -3.190637 -1.540450 -2.571015 0
M  V30 25 C -3.756699 -0.465593 -3.441166 0
M  V30 26 N -1.886941 1.839717 -2.999449 0
M  V30 27 C 1.780988 -0.175525 -1.630565 0
M  V30 28 C 2.126482 -0.749842 -0.422500 0
M  V30 29 C 2.282160 -4.009352 3.444706 0
M  V30 30 C 2.210649 -4.435430 4.862462 0
M  V30 31 H 1.447528 -2.769659 6.522545 0
M  V30 32 H 3.072191 -2.094901 6.938443 0
M  V30 33 H 2.501790 -3.633631 7.784621 0
M  V30 34 H 4.590207 -2.404614 5.921161 0
M  V30 35 H 5.136704 -4.005165 5.392734 0
M  V30 36 H 4.932238 -1.860243 3.772339 0
M  V30 37 H 4.830482 -3.548515 3.215168 0
M  V30 38 H 2.382270 -2.019188 4.182050 0
M  V30 39 H 3.165572 -2.557579 1.250213 0
M  V30 40 H -0.112694 0.824890 1.606057 0
M  V30 41 H -0.740231 1.853722 -0.505238 0
M  V30 42 H 0.839743 1.053242 -3.739049 0
M  V30 43 H -1.426852 5.353268 -4.074681 0
M  V30 44 H -5.086518 2.524984 -3.208975 0
M  V30 45 H -5.562701 0.320862 -2.624943 0
M  V30 46 H -4.763611 0.406799 -0.402131 0
M  V30 47 H -3.061014 0.768113 -0.923151 0
M  V30 48 H -2.969090 -1.539858 -0.422339 0
M  V30 49 H -4.635905 -1.826324 -0.986472 0
M  V30 50 H -2.073668 -1.571038 -2.608104 0
M  V30 51 H -3.587372 -2.552168 -2.866414 0
M  V30 52 H -2.984591 0.026030 -4.076137 0
M  V30 53 H -4.462037 -0.931790 -4.163390 0
M  V30 54 H 2.311388 -0.452588 -2.527091 0
M  V30 55 H 2.933697 -1.468721 -0.440866 0
M  V30 56 H 1.300280 -3.948343 2.947555 0
M  V30 57 H 3.013974 -4.661199 2.912471 0
M  V30 58 H 1.167882 -4.261911 5.219522 0
M  V30 59 H 2.363735 -5.542615 4.910569 0
M  V30 END ATOM
M  V30 BEGIN BOND
M  V30 1 1 1 2
M  V30 2 1 2 3
M  V30 3 1 3 4
M  V30 4 1 4 5
M  V30 5 1 5 6
M  V30 6 1 6 7
M  V30 7 2 7 8
M  V30 8 1 7 9
M  V30 9 2 9 10
M  V30 10 1 10 11
M  V30 11 2 11 12
M  V30 12 1 12 13
M  V30 13 1 13 14
M  V30 14 2 14 15
M  V30 15 1 15 16
M  V30 16 2 16 17
M  V30 17 1 17 18
M  V30 18 1 17 19
M  V30 19 1 19 20
M  V30 20 1 20 21
M  V30 21 1 21 22
M  V30 22 1 22 23
M  V30 23 1 23 24
M  V30 24 1 24 25
M  V30 25 2 19 26
M  V30 26 1 12 27
M  V30 27 2 27 28
M  V30 28 1 5 29
M  V30 29 1 29 30
M  V30 30 1 30 2
M  V30 31 1 28 9
M  V30 32 1 26 14
M  V30 33 1 25 21
M  V30 34 1 1 31
M  V30 35 1 1 32
M  V30 36 1 1 33
M  V30 37 1 3 34
M  V30 38 1 3 35
M  V30 39 1 4 36
M  V30 40 1 4 37
M  V30 41 1 5 38
M  V30 42 1 6 39
M  V30 43 1 10 40
M  V30 44 1 11 41
M  V30 45 1 13 42
M  V30 46 1 16 43
M  V30 47 1 20 44
M  V30 48 1 21 45
M  V30 49 1 22 46
M  V30 50 1 22 47
M  V30 51 1 23 48
M  V30 52 1 23 49
M  V30 53 1 24 50
M  V30 54 1 24 51
M  V30 55 1 25 52
M  V30 56 1 25 53
M  V30 57 1 27 54
M  V30 58 1 28 55
M  V30 59 1 29 56
M  V30 60 1 29 57
M  V30 61 1 30 58
M  V30 62 1 30 59
M  V30 END BOND
M  V30 END CTAB
M  END
>  <Dataset>  (97) 
ChEMBL_Kinases

>  <Ligand_Instance>  (97) 
nan

>  <PDB_ID>  (97) 
nan

>  <Standardized_SMILES>  (97) 
CN1CCC(NC(=O)c2ccc(Nc3ncc(Br)c(NC4CCCC4)n3)cc2)CC1

>  <Name>  (97) 
nan

>  <Pocket>  (97) 
nan

>  <ATP_Site>  (97) 
nan

>  <Peripheral>  (97) 
nan

>  <Num_H_Atoms_ProtBoundConf>  (97) 
nan

>  <Num_Resolved_Atoms>  (97) 
nan

>  <Num_Not_Resolved_Atoms>  (97) 
nan

$$$$
CHEMBL4093023
     RDKit          3D

  0  0  0  0  0  0  0  0  0  0999 V3000
M  V30 BEGIN CTAB
M  V30 COUNTS 60 63 0 0 0
M  V30 BEGIN ATOM
M  V30 1 C 6.468303 1.488987 -0.490228 0
M  V30 2 C 5.077215 1.142470 -0.060183 0
M  V30 3 C 5.080378 1.004644 1.452747 0
M  V30 4 C 4.600715 -0.139770 -0.719911 0
M  V30 5 C 4.113067 2.208986 -0.438009 0
M  V30 6 C 2.741692 2.202039 -0.188638 0
M  V30 7 C 2.168969 3.355131 -0.681417 0
M  V30 8 N 0.812562 3.784203 -0.660194 0
M  V30 9 C -0.249535 3.072222 -0.103173 0
M  V30 10 O -0.034170 1.958783 0.432783 0
M  V30 11 N -1.603710 3.489509 -0.076792 0
M  V30 12 C -2.431195 2.501871 0.579261 0
M  V30 13 C -2.686643 2.505547 1.938294 0
M  V30 14 C -3.486921 1.528849 2.496037 0
M  V30 15 C -4.055304 0.526462 1.736855 0
M  V30 16 O -4.869949 -0.493460 2.204844 0
M  V30 17 C -4.587664 -1.843710 2.112961 0
M  V30 18 C -3.462245 -2.418466 1.563070 0
M  V30 19 C -3.279144 -3.762466 1.521709 0
M  V30 20 N -2.130367 -4.384052 0.962444 0
M  V30 21 C -1.001813 -3.682993 0.386203 0
M  V30 22 C -1.027335 -4.059449 -1.097636 0
M  V30 23 C -0.658782 -5.499646 -1.186215 0
M  V30 24 C -1.027877 -6.353609 -0.031005 0
M  V30 25 C -2.012889 -5.823358 0.932070 0
M  V30 26 N -4.247389 -4.533605 2.043589 0
M  V30 27 C -5.360780 -3.994302 2.588857 0
M  V30 28 N -5.541124 -2.661198 2.629169 0
M  V30 29 C -3.807427 0.507303 0.358641 0
M  V30 30 F -4.283014 -0.395212 -0.548872 0
M  V30 31 C -3.002223 1.489652 -0.203622 0
M  V30 32 N 3.209775 4.013294 -1.207772 0
M  V30 33 O 4.308824 3.335139 -1.054577 0
M  V30 34 H 6.962082 2.135509 0.244143 0
M  V30 35 H 6.514553 1.902388 -1.524771 0
M  V30 36 H 7.036825 0.527026 -0.535136 0
M  V30 37 H 4.452945 0.113236 1.697292 0
M  V30 38 H 4.596034 1.880964 1.930884 0
M  V30 39 H 6.101093 0.919488 1.844396 0
M  V30 40 H 4.380895 0.077680 -1.783952 0
M  V30 41 H 5.440228 -0.853405 -0.679498 0
M  V30 42 H 3.690722 -0.526483 -0.233931 0
M  V30 43 H 2.222029 1.400656 0.318343 0
M  V30 44 H 0.568722 4.702142 -1.090077 0
M  V30 45 H -1.846255 4.413341 -0.509127 0
M  V30 46 H -2.245948 3.284148 2.531732 0
M  V30 47 H -3.707361 1.500351 3.549736 0
M  V30 48 H -2.721841 -1.743518 1.163973 0
M  V30 49 H -0.075237 -4.180496 0.795148 0
M  V30 50 H -0.994681 -2.606854 0.534937 0
M  V30 51 H -2.069595 -3.933565 -1.444697 0
M  V30 52 H -0.314648 -3.431799 -1.667078 0
M  V30 53 H -1.095246 -5.868493 -2.155468 0
M  V30 54 H 0.449756 -5.539519 -1.395552 0
M  V30 55 H -0.081899 -6.682164 0.475188 0
M  V30 56 H -1.444417 -7.302375 -0.451118 0
M  V30 57 H -1.718511 -6.136377 1.959325 0
M  V30 58 H -3.033034 -6.269256 0.800725 0
M  V30 59 H -6.069396 -4.719307 2.977071 0
M  V30 60 H -2.775137 1.521921 -1.278908 0
M  V30 END ATOM
M  V30 BEGIN BOND
M  V30 1 1 1 2
M  V30 2 1 2 3
M  V30 3 1 2 4
M  V30 4 1 2 5
M  V30 5 2 5 6
M  V30 6 1 6 7
M  V30 7 1 7 8
M  V30 8 1 8 9
M  V30 9 2 9 10
M  V30 10 1 9 11
M  V30 11 1 11 12
M  V30 12 2 12 13
M  V30 13 1 13 14
M  V30 14 2 14 15
M  V30 15 1 15 16
M  V30 16 1 16 17
M  V30 17 2 17 18
M  V30 18 1 18 19
M  V30 19 1 19 20
M  V30 20 1 20 21
M  V30 21 1 21 22
M  V30 22 1 22 23
M  V30 23 1 23 24
M  V30 24 1 24 25
M  V30 25 2 19 26
M  V30 26 1 26 27
M  V30 27 2 27 28
M  V30 28 1 15 29
M  V30 29 1 29 30
M  V30 30 2 29 31
M  V30 31 2 7 32
M  V30 32 1 32 33
M  V30 33 1 33 5
M  V30 34 1 31 12
M  V30 35 1 28 17
M  V30 36 1 25 20
M  V30 37 1 1 34
M  V30 38 1 1 35
M  V30 39 1 1 36
M  V30 40 1 3 37
M  V30 41 1 3 38
M  V30 42 1 3 39
M  V30 43 1 4 40
M  V30 44 1 4 41
M  V30 45 1 4 42
M  V30 46 1 6 43
M  V30 47 1 8 44
M  V30 48 1 11 45
M  V30 49 1 13 46
M  V30 50 1 14 47
M  V30 51 1 18 48
M  V30 52 1 21 49
M  V30 53 1 21 50
M  V30 54 1 22 51
M  V30 55 1 22 52
M  V30 56 1 23 53
M  V30 57 1 23 54
M  V30 58 1 24 55
M  V30 59 1 24 56
M  V30 60 1 25 57
M  V30 61 1 25 58
M  V30 62 1 27 59
M  V30 63 1 31 60
M  V30 END BOND
M  V30 END CTAB
M  END
>  <Dataset>  (98) 
ChEMBL_Kinases

>  <Ligand_Instance>  (98) 
nan

>  <PDB_ID>  (98) 
nan

>  <Standardized_SMILES>  (98) 
CC(C)(C)c1cc(NC(=O)Nc2ccc(Oc3cc(N4CCCCC4)ncn3)c(F)c2)no1

>  <Name>  (98) 
nan

>  <Pocket>  (98) 
nan

>  <ATP_Site>  (98) 
nan

>  <Peripheral>  (98) 
nan

>  <Num_H_Atoms_ProtBoundConf>  (98) 
nan

>  <Num_Resolved_Atoms>  (98) 
nan

>  <Num_Not_Resolved_Atoms>  (98) 
nan

$$$$
CHEMBL3421962
     RDKit          3D

  0  0  0  0  0  0  0  0  0  0999 V3000
M  V30 BEGIN CTAB
M  V30 COUNTS 52 56 0 0 0
M  V30 BEGIN ATOM
M  V30 1 C -1.774260 -5.422701 2.151134 0
M  V30 2 N -0.494268 -6.064830 2.338081 0
M  V30 3 C 0.477363 -5.084099 2.772258 0
M  V30 4 C 1.481258 -4.857364 1.664888 0
M  V30 5 N 0.761742 -4.622368 0.430036 0
M  V30 6 C 0.659229 -3.388002 -0.254879 0
M  V30 7 C 1.253999 -2.254228 0.252738 0
M  V30 8 C 1.137435 -1.057598 -0.441473 0
M  V30 9 C 0.436153 -0.996657 -1.625830 0
M  V30 10 N 0.327452 0.250680 -2.327217 0
M  V30 11 C 0.964947 1.374230 -1.739196 0
M  V30 12 C 0.317530 2.191584 -0.849487 0
M  V30 13 C 0.807473 3.294331 -0.216399 0
M  V30 14 C 0.186439 4.192550 0.723032 0
M  V30 15 C 0.913075 5.275517 1.234385 0
M  V30 16 N 0.144070 5.972804 2.084898 0
M  V30 17 C -1.073164 5.428994 2.187431 0
M  V30 18 C -2.227887 5.710719 2.887249 0
M  V30 19 N -3.324845 4.910403 2.745830 0
M  V30 20 C -3.272340 3.832519 1.909969 0
M  V30 21 C -2.125643 3.564728 1.224048 0
M  V30 22 C -1.009349 4.345884 1.342830 0
M  V30 23 N 2.082323 3.525273 -0.571567 0
M  V30 24 C 2.802403 2.789601 -1.429509 0
M  V30 25 N 2.257366 1.711932 -2.020640 0
M  V30 26 C -0.152395 -2.154762 -2.112975 0
M  V30 27 C -0.048488 -3.363687 -1.434575 0
M  V30 28 C 0.133107 -5.838391 -0.044069 0
M  V30 29 C -0.060715 -6.771338 1.150608 0
M  V30 30 H -1.778667 -4.510151 2.787098 0
M  V30 31 H -1.859276 -5.043327 1.108860 0
M  V30 32 H -2.618510 -6.066587 2.396738 0
M  V30 33 H 1.016516 -5.467048 3.660200 0
M  V30 34 H -0.048555 -4.163466 3.081962 0
M  V30 35 H 2.075710 -5.814943 1.613281 0
M  V30 36 H 2.194285 -4.081574 1.934010 0
M  V30 37 H 1.813575 -2.235390 1.170173 0
M  V30 38 H 1.593535 -0.176728 -0.057149 0
M  V30 39 H -0.208404 0.264204 -3.221545 0
M  V30 40 H -0.672249 1.897053 -0.661721 0
M  V30 41 H 1.942956 5.636166 1.072631 0
M  V30 42 H 0.388851 6.831957 2.630316 0
M  V30 43 H -2.227225 6.588448 3.549584 0
M  V30 44 H -4.178718 3.251531 1.853778 0
M  V30 45 H -2.174202 2.719233 0.606803 0
M  V30 46 H 3.823634 3.121634 -1.602611 0
M  V30 47 H -0.698048 -2.065128 -3.052076 0
M  V30 48 H -0.546011 -4.195274 -1.909042 0
M  V30 49 H -0.842322 -5.671423 -0.544164 0
M  V30 50 H 0.864318 -6.353428 -0.702959 0
M  V30 51 H 0.809226 -7.391140 1.358345 0
M  V30 52 H -0.886089 -7.466891 0.879572 0
M  V30 END ATOM
M  V30 BEGIN BOND
M  V30 1 1 1 2
M  V30 2 1 2 3
M  V30 3 1 3 4
M  V30 4 1 4 5
M  V30 5 1 5 6
M  V30 6 2 6 7
M  V30 7 1 7 8
M  V30 8 2 8 9
M  V30 9 1 9 10
M  V30 10 1 10 11
M  V30 11 2 11 12
M  V30 12 1 12 13
M  V30 13 1 13 14
M  V30 14 2 14 15
M  V30 15 1 15 16
M  V30 16 1 16 17
M  V30 17 2 17 18
M  V30 18 1 18 19
M  V30 19 2 19 20
M  V30 20 1 20 21
M  V30 21 2 21 22
M  V30 22 2 13 23
M  V30 23 1 23 24
M  V30 24 2 24 25
M  V30 25 1 9 26
M  V30 26 2 26 27
M  V30 27 1 5 28
M  V30 28 1 28 29
M  V30 29 1 29 2
M  V30 30 1 27 6
M  V30 31 1 25 11
M  V30 32 1 22 14
M  V30 33 1 22 17
M  V30 34 1 1 30
M  V30 35 1 1 31
M  V30 36 1 1 32
M  V30 37 1 3 33
M  V30 38 1 3 34
M  V30 39 1 4 35
M  V30 40 1 4 36
M  V30 41 1 7 37
M  V30 42 1 8 38
M  V30 43 1 10 39
M  V30 44 1 12 40
M  V30 45 1 15 41
M  V30 46 1 16 42
M  V30 47 1 18 43
M  V30 48 1 20 44
M  V30 49 1 21 45
M  V30 50 1 24 46
M  V30 51 1 26 47
M  V30 52 1 27 48
M  V30 53 1 28 49
M  V30 54 1 28 50
M  V30 55 1 29 51
M  V30 56 1 29 52
M  V30 END BOND
M  V30 END CTAB
M  END
>  <Dataset>  (99) 
ChEMBL_Kinases

>  <Ligand_Instance>  (99) 
nan

>  <PDB_ID>  (99) 
nan

>  <Standardized_SMILES>  (99) 
CN1CCN(c2ccc(Nc3cc(-c4c[nH]c5cnccc45)ncn3)cc2)CC1

>  <Name>  (99) 
nan

>  <Pocket>  (99) 
nan

>  <ATP_Site>  (99) 
nan

>  <Peripheral>  (99) 
nan

>  <Num_H_Atoms_ProtBoundConf>  (99) 
nan

>  <Num_Resolved_Atoms>  (99) 
nan

>  <Num_Not_Resolved_Atoms>  (99) 
nan

$$$$
CHEMBL380331
     RDKit          3D

  0  0  0  0  0  0  0  0  0  0999 V3000
M  V30 BEGIN CTAB
M  V30 COUNTS 50 53 0 0 0
M  V30 BEGIN ATOM
M  V30 1 N 3.540321 -3.987158 2.195250 0
M  V30 2 S 3.616009 -4.090860 0.481033 0
M  V30 3 O 5.043259 -4.422964 0.127475 0
M  V30 4 O 2.733127 -5.195452 0.023784 0
M  V30 5 C 3.083800 -2.592860 -0.276185 0
M  V30 6 C 1.738501 -2.453813 -0.559684 0
M  V30 7 C 1.321019 -1.285148 -1.141767 0
M  V30 8 C 2.141320 -0.210700 -1.477279 0
M  V30 9 N 1.607422 0.978089 -2.045232 0
M  V30 10 C 0.438155 1.625163 -1.565380 0
M  V30 11 C -0.210959 1.239903 -0.412789 0
M  V30 12 C -1.371439 1.825238 0.102105 0
M  V30 13 N -1.976420 1.345997 1.302625 0
M  V30 14 C -1.489438 0.222025 2.078079 0 CFG=1
M  V30 15 C -2.353092 0.134624 3.310414 0
M  V30 16 C -2.193652 -1.145047 4.063954 0
M  V30 17 C -2.062768 -2.374150 3.229277 0 CFG=2
M  V30 18 N -0.685335 -2.831479 3.272995 0
M  V30 19 C -2.507063 -2.052005 1.830007 0
M  V30 20 C -1.543029 -1.038542 1.254067 0
M  V30 21 N -1.855743 2.840987 -0.617152 0
M  V30 22 C -1.229648 3.241004 -1.761489 0
M  V30 23 N -1.613028 4.249443 -2.569489 0
M  V30 24 C -0.685138 4.252459 -3.548368 0
M  V30 25 N 0.230212 3.297428 -3.363085 0
M  V30 26 N -0.097137 2.653409 -2.245278 0
M  V30 27 C 3.487317 -0.395279 -1.174855 0
M  V30 28 C 3.955461 -1.545001 -0.593028 0
M  V30 29 H 3.610219 -3.016648 2.571348 0
M  V30 30 H 2.780086 -4.554317 2.627336 0
M  V30 31 H 1.071635 -3.268423 -0.313171 0
M  V30 32 H 0.236336 -1.278416 -1.346378 0
M  V30 33 H 2.113934 1.380292 -2.857178 0
M  V30 34 H 0.174924 0.438700 0.196915 0
M  V30 35 H -2.842264 1.894823 1.594901 0
M  V30 36 H -0.446036 0.432900 2.362725 0
M  V30 37 H -1.995949 0.960129 3.991416 0
M  V30 38 H -3.393370 0.391376 3.032636 0
M  V30 39 H -1.350940 -1.089444 4.792602 0
M  V30 40 H -3.102316 -1.248800 4.701586 0
M  V30 41 H -2.665367 -3.192345 3.679920 0
M  V30 42 H -0.419363 -3.426293 2.459477 0
M  V30 43 H -0.023817 -2.010744 3.356584 0
M  V30 44 H -3.532356 -1.654086 1.870687 0
M  V30 45 H -2.469383 -2.996240 1.244395 0
M  V30 46 H -1.827851 -0.863108 0.199992 0
M  V30 47 H -0.555037 -1.538900 1.254128 0
M  V30 48 H -0.696531 4.957836 -4.382702 0
M  V30 49 H 4.168149 0.429510 -1.424080 0
M  V30 50 H 5.004785 -1.674550 -0.363880 0
M  V30 END ATOM
M  V30 BEGIN BOND
M  V30 1 1 1 2
M  V30 2 2 2 3
M  V30 3 2 2 4
M  V30 4 1 2 5
M  V30 5 2 5 6
M  V30 6 1 6 7
M  V30 7 2 7 8
M  V30 8 1 8 9
M  V30 9 1 9 10
M  V30 10 2 10 11
M  V30 11 1 11 12
M  V30 12 1 12 13
M  V30 13 1 13 14
M  V30 14 1 14 15
M  V30 15 1 15 16
M  V30 16 1 16 17
M  V30 17 1 17 18
M  V30 18 1 17 19
M  V30 19 1 19 20
M  V30 20 2 12 21
M  V30 21 1 21 22
M  V30 22 2 22 23
M  V30 23 1 23 24
M  V30 24 2 24 25
M  V30 25 1 25 26
M  V30 26 1 8 27
M  V30 27 2 27 28
M  V30 28 1 28 5
M  V30 29 1 26 10
M  V30 30 1 20 14
M  V30 31 1 26 22
M  V30 32 1 1 29
M  V30 33 1 1 30
M  V30 34 1 6 31
M  V30 35 1 7 32
M  V30 36 1 9 33
M  V30 37 1 11 34
M  V30 38 1 13 35
M  V30 39 1 14 36 CFG=1
M  V30 40 1 15 37
M  V30 41 1 15 38
M  V30 42 1 16 39
M  V30 43 1 16 40
M  V30 44 1 17 41 CFG=1
M  V30 45 1 18 42
M  V30 46 1 18 43
M  V30 47 1 19 44
M  V30 48 1 19 45
M  V30 49 1 20 46
M  V30 50 1 20 47
M  V30 51 1 24 48
M  V30 52 1 27 49
M  V30 53 1 28 50
M  V30 END BOND
M  V30 END CTAB
M  END
>  <Dataset>  (100) 
ChEMBL_Kinases

>  <Ligand_Instance>  (100) 
nan

>  <PDB_ID>  (100) 
nan

>  <Standardized_SMILES>  (100) 
NS(=O)(=O)c1ccc(Nc2cc(N[C@H]3CC[C@H](N)CC3)nc3ncnn23)cc1

>  <Name>  (100) 
nan

>  <Pocket>  (100) 
nan

>  <ATP_Site>  (100) 
nan

>  <Peripheral>  (100) 
nan

>  <Num_H_Atoms_ProtBoundConf>  (100) 
nan

>  <Num_Resolved_Atoms>  (100) 
nan

>  <Num_Not_Resolved_Atoms>  (100) 
nan

$$$$
CHEMBL4091573
     RDKit          3D

  0  0  0  0  0  0  0  0  0  0999 V3000
M  V30 BEGIN CTAB
M  V30 COUNTS 55 58 0 0 0
M  V30 BEGIN ATOM
M  V30 1 C 2.995321 -4.768268 0.471580 0
M  V30 2 N 1.811309 -4.073623 0.936308 0
M  V30 3 C 1.611106 -3.059302 1.831331 0
M  V30 4 C 2.843876 -2.537768 2.484254 0
M  V30 5 N 3.490801 -1.481855 1.786659 0
M  V30 6 C 3.057268 -0.167940 1.473615 0
M  V30 7 C 3.868814 0.715954 0.749762 0
M  V30 8 C 3.448250 1.979130 0.459412 0
M  V30 9 C 2.210679 2.419404 0.871709 0
M  V30 10 C 1.359849 1.605400 1.587213 0
M  V30 11 C 0.040755 2.012779 2.052017 0
M  V30 12 O -0.653039 1.185126 2.693784 0
M  V30 13 N -0.503125 3.284763 1.823103 0
M  V30 14 C -1.776569 3.828757 2.214928 0
M  V30 15 C -2.820512 3.278629 1.304648 0
M  V30 16 C -3.523721 2.120620 1.614766 0
M  V30 17 C -4.501904 1.582541 0.782523 0
M  V30 18 C -4.755968 2.253610 -0.388221 0
M  V30 19 C -4.093144 3.422462 -0.771451 0
M  V30 20 C -4.436848 4.072566 -2.060256 0
M  V30 21 F -5.177396 5.185848 -1.806761 0
M  V30 22 F -5.149686 3.150049 -2.831835 0
M  V30 23 F -3.232130 4.345144 -2.688215 0
M  V30 24 C -3.135888 3.897031 0.104250 0
M  V30 25 C 1.837815 0.350509 1.847528 0
M  V30 26 N 0.282875 -2.853583 1.830679 0
M  V30 27 N -0.290579 -3.669112 1.007138 0
M  V30 28 C 0.635465 -4.452517 0.425133 0
M  V30 29 C 0.214426 -5.455038 -0.547258 0
M  V30 30 C -0.207320 -6.723019 -0.162266 0
M  V30 31 C -0.597608 -7.645204 -1.113253 0
M  V30 32 N -0.565633 -7.303691 -2.415350 0
M  V30 33 C -0.163849 -6.089298 -2.813486 0
M  V30 34 C 0.231436 -5.146108 -1.902080 0
M  V30 35 H 3.277637 -4.495780 -0.567198 0
M  V30 36 H 2.915363 -5.860521 0.503170 0
M  V30 37 H 3.890176 -4.511335 1.100884 0
M  V30 38 H 2.480843 -2.080825 3.458400 0
M  V30 39 H 3.505480 -3.342792 2.790752 0
M  V30 40 H 4.466558 -1.730695 1.443789 0
M  V30 41 H 4.843733 0.349951 0.433069 0
M  V30 42 H 4.103007 2.633166 -0.102651 0
M  V30 43 H 1.920614 3.423155 0.621886 0
M  V30 44 H 0.093598 3.951458 1.288220 0
M  V30 45 H -1.797830 4.923772 2.220889 0
M  V30 46 H -2.063846 3.512159 3.245271 0
M  V30 47 H -3.346219 1.579908 2.522576 0
M  V30 48 H -5.021722 0.681705 1.062388 0
M  V30 49 H -5.522196 1.837356 -1.044313 0
M  V30 50 H -2.615642 4.811002 -0.191044 0
M  V30 51 H 1.187444 -0.301497 2.410789 0
M  V30 52 H -0.229780 -6.992693 0.905318 0
M  V30 53 H -0.928806 -8.640222 -0.817608 0
M  V30 54 H -0.128577 -5.789904 -3.852738 0
M  V30 55 H 0.560120 -4.162299 -2.176509 0
M  V30 END ATOM
M  V30 BEGIN BOND
M  V30 1 1 1 2
M  V30 2 1 2 3
M  V30 3 1 3 4
M  V30 4 1 4 5
M  V30 5 1 5 6
M  V30 6 2 6 7
M  V30 7 1 7 8
M  V30 8 2 8 9
M  V30 9 1 9 10
M  V30 10 1 10 11
M  V30 11 2 11 12
M  V30 12 1 11 13
M  V30 13 1 13 14
M  V30 14 1 14 15
M  V30 15 2 15 16
M  V30 16 1 16 17
M  V30 17 2 17 18
M  V30 18 1 18 19
M  V30 19 1 19 20
M  V30 20 1 20 21
M  V30 21 1 20 22
M  V30 22 1 20 23
M  V30 23 2 19 24
M  V30 24 2 10 25
M  V30 25 2 3 26
M  V30 26 1 26 27
M  V30 27 2 27 28
M  V30 28 1 28 29
M  V30 29 2 29 30
M  V30 30 1 30 31
M  V30 31 2 31 32
M  V30 32 1 32 33
M  V30 33 2 33 34
M  V30 34 1 28 2
M  V30 35 1 34 29
M  V30 36 1 25 6
M  V30 37 1 24 15
M  V30 38 1 1 35
M  V30 39 1 1 36
M  V30 40 1 1 37
M  V30 41 1 4 38
M  V30 42 1 4 39
M  V30 43 1 5 40
M  V30 44 1 7 41
M  V30 45 1 8 42
M  V30 46 1 9 43
M  V30 47 1 13 44
M  V30 48 1 14 45
M  V30 49 1 14 46
M  V30 50 1 16 47
M  V30 51 1 17 48
M  V30 52 1 18 49
M  V30 53 1 24 50
M  V30 54 1 25 51
M  V30 55 1 30 52
M  V30 56 1 31 53
M  V30 57 1 33 54
M  V30 58 1 34 55
M  V30 END BOND
M  V30 END CTAB
M  END
>  <Dataset>  (101) 
ChEMBL_Kinases

>  <Ligand_Instance>  (101) 
nan

>  <PDB_ID>  (101) 
nan

>  <Standardized_SMILES>  (101) 
Cn1c(CNc2cccc(C(=O)NCc3cccc(C(F)(F)F)c3)c2)nnc1-c1ccncc1

>  <Name>  (101) 
nan

>  <Pocket>  (101) 
nan

>  <ATP_Site>  (101) 
nan

>  <Peripheral>  (101) 
nan

>  <Num_H_Atoms_ProtBoundConf>  (101) 
nan

>  <Num_Resolved_Atoms>  (101) 
nan

>  <Num_Not_Resolved_Atoms>  (101) 
nan

$$$$
CHEMBL4091566
     RDKit          3D

  0  0  0  0  0  0  0  0  0  0999 V3000
M  V30 BEGIN CTAB
M  V30 COUNTS 50 53 0 0 0
M  V30 BEGIN ATOM
M  V30 1 O 0.052979 -0.545233 4.348435 0
M  V30 2 S 1.375479 -0.064862 3.800869 0
M  V30 3 O 2.344270 0.110972 4.940800 0
M  V30 4 N 2.043676 -1.236765 2.714204 0
M  V30 5 C 1.203504 -1.497163 1.583446 0
M  V30 6 C 1.796574 -2.507248 0.660684 0
M  V30 7 C 2.615925 -2.213318 -0.403552 0
M  V30 8 C 3.145039 -3.182720 -1.232603 0
M  V30 9 C 2.853505 -4.512101 -1.003850 0
M  V30 10 C 2.031151 -4.796446 0.065582 0
M  V30 11 C 1.501032 -3.834201 0.895271 0
M  V30 12 C 1.168042 1.475274 3.004543 0
M  V30 13 C 2.241464 2.336505 3.022763 0
M  V30 14 C 2.115123 3.562381 2.408867 0
M  V30 15 C 0.942176 3.918449 1.790944 0
M  V30 16 C -0.171357 3.089410 1.742528 0
M  V30 17 N -1.387264 3.465900 1.114972 0
M  V30 18 C -2.611119 2.751842 0.952263 0
M  V30 19 C -2.482226 1.548157 0.067819 0
M  V30 20 N -2.223443 0.230641 0.251615 0
M  V30 21 C -2.232515 -0.378711 -0.919212 0
M  V30 22 C -2.008244 -1.793661 -1.185551 0
M  V30 23 C -1.805868 -2.744871 -0.207775 0
M  V30 24 C -1.596714 -4.083063 -0.470708 0
M  V30 25 N -1.586189 -4.503504 -1.750653 0
M  V30 26 C -1.774013 -3.651041 -2.768534 0
M  V30 27 C -1.981828 -2.312383 -2.475229 0
M  V30 28 N -2.493233 0.514288 -1.883228 0
M  V30 29 N -2.643619 1.677785 -1.281040 0
M  V30 30 C 0.022275 1.880501 2.374751 0
M  V30 31 H 2.218893 -2.090528 3.286487 0
M  V30 32 H 1.053140 -0.569979 1.001861 0
M  V30 33 H 0.238771 -1.903634 1.978147 0
M  V30 34 H 2.833806 -1.156347 -0.566159 0
M  V30 35 H 3.780192 -2.879066 -2.048101 0
M  V30 36 H 3.249898 -5.300735 -1.633219 0
M  V30 37 H 1.799920 -5.832996 0.249476 0
M  V30 38 H 0.862756 -4.174648 1.710505 0
M  V30 39 H 3.167289 2.066335 3.504932 0
M  V30 40 H 2.932494 4.270900 2.399193 0
M  V30 41 H 0.883471 4.900262 1.315721 0
M  V30 42 H -1.345859 4.452132 0.706842 0
M  V30 43 H -3.057914 2.440184 1.930740 0
M  V30 44 H -3.368394 3.413492 0.499065 0
M  V30 45 H -1.821398 -2.361860 0.824707 0
M  V30 46 H -1.449702 -4.732900 0.384324 0
M  V30 47 H -1.770361 -3.959168 -3.802014 0
M  V30 48 H -2.132209 -1.634640 -3.315109 0
M  V30 49 H -2.858997 2.553620 -1.826681 0
M  V30 50 H -0.768858 1.153323 2.410124 0
M  V30 END ATOM
M  V30 BEGIN BOND
M  V30 1 2 1 2
M  V30 2 2 2 3
M  V30 3 1 2 4
M  V30 4 1 4 5
M  V30 5 1 5 6
M  V30 6 2 6 7
M  V30 7 1 7 8
M  V30 8 2 8 9
M  V30 9 1 9 10
M  V30 10 2 10 11
M  V30 11 1 2 12
M  V30 12 2 12 13
M  V30 13 1 13 14
M  V30 14 2 14 15
M  V30 15 1 15 16
M  V30 16 1 16 17
M  V30 17 1 17 18
M  V30 18 1 18 19
M  V30 19 2 19 20
M  V30 20 1 20 21
M  V30 21 1 21 22
M  V30 22 2 22 23
M  V30 23 1 23 24
M  V30 24 2 24 25
M  V30 25 1 25 26
M  V30 26 2 26 27
M  V30 27 2 21 28
M  V30 28 1 28 29
M  V30 29 2 16 30
M  V30 30 1 11 6
M  V30 31 1 30 12
M  V30 32 1 29 19
M  V30 33 1 27 22
M  V30 34 1 4 31
M  V30 35 1 5 32
M  V30 36 1 5 33
M  V30 37 1 7 34
M  V30 38 1 8 35
M  V30 39 1 9 36
M  V30 40 1 10 37
M  V30 41 1 11 38
M  V30 42 1 13 39
M  V30 43 1 14 40
M  V30 44 1 15 41
M  V30 45 1 17 42
M  V30 46 1 18 43
M  V30 47 1 18 44
M  V30 48 1 23 45
M  V30 49 1 24 46
M  V30 50 1 26 47
M  V30 51 1 27 48
M  V30 52 1 29 49
M  V30 53 1 30 50
M  V30 END BOND
M  V30 END CTAB
M  END
>  <Dataset>  (102) 
ChEMBL_Kinases

>  <Ligand_Instance>  (102) 
nan

>  <PDB_ID>  (102) 
nan

>  <Standardized_SMILES>  (102) 
O=S(=O)(NCc1ccccc1)c1cccc(NCc2nc(-c3ccncc3)n[nH]2)c1

>  <Name>  (102) 
nan

>  <Pocket>  (102) 
nan

>  <ATP_Site>  (102) 
nan

>  <Peripheral>  (102) 
nan

>  <Num_H_Atoms_ProtBoundConf>  (102) 
nan

>  <Num_Resolved_Atoms>  (102) 
nan

>  <Num_Not_Resolved_Atoms>  (102) 
nan

$$$$
CHEMBL3421966
     RDKit          3D

  0  0  0  0  0  0  0  0  0  0999 V3000
M  V30 BEGIN CTAB
M  V30 COUNTS 58 62 0 0 0
M  V30 BEGIN ATOM
M  V30 1 C 2.692588 -1.794098 3.991205 0
M  V30 2 O 1.554306 -2.282805 3.305737 0
M  V30 3 C 0.672993 -1.349182 2.779360 0
M  V30 4 C 0.873774 0.009293 2.903903 0
M  V30 5 C 0.004171 0.934754 2.384679 0
M  V30 6 N 0.215159 2.329849 2.519356 0
M  V30 7 C 1.272544 2.957982 3.280037 0
M  V30 8 C 2.212262 3.693063 2.356273 0
M  V30 9 N 1.617857 3.969267 1.071735 0
M  V30 10 C 2.194647 3.849448 -0.228558 0
M  V30 11 C 3.599809 3.375534 -0.279421 0
M  V30 12 O 1.566211 4.124510 -1.289513 0
M  V30 13 C 0.260333 4.415600 1.279345 0
M  V30 14 C -0.605940 3.350771 1.901736 0
M  V30 15 C -1.091135 0.432567 1.725714 0
M  V30 16 C -1.306461 -0.922994 1.592273 0
M  V30 17 C -0.427120 -1.852234 2.117310 0
M  V30 18 N -0.676395 -3.243888 1.962821 0
M  V30 19 C -1.839914 -3.672807 1.262771 0
M  V30 20 N -3.043149 -3.913796 1.812679 0
M  V30 21 C -4.083496 -4.320985 1.033954 0
M  V30 22 C -3.887548 -4.485521 -0.341132 0
M  V30 23 C -2.631851 -4.229929 -0.889662 0
M  V30 24 C -2.411240 -4.398328 -2.332710 0
M  V30 25 C -3.283455 -4.791070 -3.323786 0
M  V30 26 N -2.633576 -4.799686 -4.492597 0
M  V30 27 C -1.360108 -4.423398 -4.293385 0
M  V30 28 C -0.295707 -4.276361 -5.187863 0
M  V30 29 N 0.912799 -3.873881 -4.711796 0
M  V30 30 C 1.128958 -3.609494 -3.408358 0
M  V30 31 C 0.059965 -3.760735 -2.532526 0
M  V30 32 C -1.194490 -4.164951 -2.940995 0
M  V30 33 N -1.636861 -3.825749 -0.051601 0
M  V30 34 H 2.388068 -1.112005 4.820148 0
M  V30 35 H 3.325892 -2.614404 4.383537 0
M  V30 36 H 3.370363 -1.215177 3.301249 0
M  V30 37 H 1.762069 0.276476 3.436675 0
M  V30 38 H 1.816442 2.232895 3.888289 0
M  V30 39 H 0.781379 3.673323 3.992777 0
M  V30 40 H 2.428344 4.679545 2.825869 0
M  V30 41 H 3.117370 3.073213 2.242879 0
M  V30 42 H 3.826982 3.043457 -1.332691 0
M  V30 43 H 3.699999 2.415549 0.307193 0
M  V30 44 H 4.345382 4.130627 -0.009110 0
M  V30 45 H -0.144277 4.742983 0.316097 0
M  V30 46 H 0.275906 5.297015 1.948288 0
M  V30 47 H -1.229902 2.940981 1.100961 0
M  V30 48 H -1.270760 3.844368 2.662278 0
M  V30 49 H -1.845315 1.038002 1.276720 0
M  V30 50 H -2.171169 -1.328744 1.071283 0
M  V30 51 H 0.031610 -3.892257 2.385970 0
M  V30 52 H -5.019558 -4.495491 1.543528 0
M  V30 53 H -4.721983 -4.808206 -0.940072 0
M  V30 54 H -4.327827 -5.037353 -3.092255 0
M  V30 55 H -3.036624 -5.053677 -5.411176 0
M  V30 56 H -0.424708 -4.480836 -6.261902 0
M  V30 57 H 2.100930 -3.289630 -3.052030 0
M  V30 58 H 0.236066 -3.549248 -1.494226 0
M  V30 END ATOM
M  V30 BEGIN BOND
M  V30 1 1 1 2
M  V30 2 1 2 3
M  V30 3 2 3 4
M  V30 4 1 4 5
M  V30 5 1 5 6
M  V30 6 1 6 7
M  V30 7 1 7 8
M  V30 8 1 8 9
M  V30 9 1 9 10
M  V30 10 1 10 11
M  V30 11 2 10 12
M  V30 12 1 9 13
M  V30 13 1 13 14
M  V30 14 2 5 15
M  V30 15 1 15 16
M  V30 16 2 16 17
M  V30 17 1 17 18
M  V30 18 1 18 19
M  V30 19 2 19 20
M  V30 20 1 20 21
M  V30 21 2 21 22
M  V30 22 1 22 23
M  V30 23 1 23 24
M  V30 24 2 24 25
M  V30 25 1 25 26
M  V30 26 1 26 27
M  V30 27 2 27 28
M  V30 28 1 28 29
M  V30 29 2 29 30
M  V30 30 1 30 31
M  V30 31 2 31 32
M  V30 32 2 23 33
M  V30 33 1 17 3
M  V30 34 1 33 19
M  V30 35 1 14 6
M  V30 36 1 32 24
M  V30 37 1 32 27
M  V30 38 1 1 34
M  V30 39 1 1 35
M  V30 40 1 1 36
M  V30 41 1 4 37
M  V30 42 1 7 38
M  V30 43 1 7 39
M  V30 44 1 8 40
M  V30 45 1 8 41
M  V30 46 1 11 42
M  V30 47 1 11 43
M  V30 48 1 11 44
M  V30 49 1 13 45
M  V30 50 1 13 46
M  V30 51 1 14 47
M  V30 52 1 14 48
M  V30 53 1 15 49
M  V30 54 1 16 50
M  V30 55 1 18 51
M  V30 56 1 21 52
M  V30 57 1 22 53
M  V30 58 1 25 54
M  V30 59 1 26 55
M  V30 60 1 28 56
M  V30 61 1 30 57
M  V30 62 1 31 58
M  V30 END BOND
M  V30 END CTAB
M  END
>  <Dataset>  (103) 
ChEMBL_Kinases

>  <Ligand_Instance>  (103) 
nan

>  <PDB_ID>  (103) 
nan

>  <Standardized_SMILES>  (103) 
COc1cc(N2CCN(C(C)=O)CC2)ccc1Nc1nccc(-c2c[nH]c3cnccc23)n1

>  <Name>  (103) 
nan

>  <Pocket>  (103) 
nan

>  <ATP_Site>  (103) 
nan

>  <Peripheral>  (103) 
nan

>  <Num_H_Atoms_ProtBoundConf>  (103) 
nan

>  <Num_Resolved_Atoms>  (103) 
nan

>  <Num_Not_Resolved_Atoms>  (103) 
nan

$$$$
CHEMBL3421967
     RDKit          3D

  0  0  0  0  0  0  0  0  0  0999 V3000
M  V30 BEGIN CTAB
M  V30 COUNTS 56 60 0 0 0
M  V30 BEGIN ATOM
M  V30 1 C -0.273477 -1.049452 5.154684 0
M  V30 2 O -1.050909 -0.841221 4.016054 0
M  V30 3 C -0.541116 -0.187670 2.928914 0
M  V30 4 C 0.756751 0.277930 2.941235 0
M  V30 5 C 1.305373 0.940822 1.865355 0
M  V30 6 N 2.632674 1.445288 1.810255 0
M  V30 7 C 3.232241 2.165323 0.711190 0
M  V30 8 C 4.682057 1.958997 0.512932 0
M  V30 9 N 5.334939 0.932643 1.211481 0
M  V30 10 C 6.191908 0.070410 0.482192 0
M  V30 11 C 4.630402 0.326003 2.292749 0
M  V30 12 C 3.605589 1.307382 2.877975 0
M  V30 13 C 0.499417 1.123542 0.763082 0
M  V30 14 C -0.811767 0.656927 0.741629 0
M  V30 15 C -1.363311 -0.014591 1.835109 0
M  V30 16 N -2.714641 -0.485323 1.795573 0
M  V30 17 C -3.471791 -0.259824 0.614753 0
M  V30 18 N -4.224098 0.823966 0.297999 0
M  V30 19 C -4.889848 0.903250 -0.867218 0
M  V30 20 C -4.811294 -0.152094 -1.781515 0
M  V30 21 C -4.048134 -1.257397 -1.465380 0
M  V30 22 C -3.962947 -2.364972 -2.410558 0
M  V30 23 C -4.540999 -2.473930 -3.647171 0
M  V30 24 N -4.230111 -3.657734 -4.219850 0
M  V30 25 C -3.436024 -4.355660 -3.365271 0
M  V30 26 C -2.824147 -5.613030 -3.420702 0
M  V30 27 N -2.065907 -6.050153 -2.373078 0
M  V30 28 C -1.922704 -5.258824 -1.305176 0
M  V30 29 C -2.501030 -4.009116 -1.192198 0
M  V30 30 C -3.273057 -3.547847 -2.242573 0
M  V30 31 N -3.418520 -1.246132 -0.276739 0
M  V30 32 H -0.804828 -1.679336 5.918780 0
M  V30 33 H 0.021724 -0.122490 5.689239 0
M  V30 34 H 0.617824 -1.642210 4.870964 0
M  V30 35 H 1.355456 0.118074 3.815033 0
M  V30 36 H 2.718407 1.984211 -0.269719 0
M  V30 37 H 2.999412 3.251897 0.921068 0
M  V30 38 H 5.212043 2.922788 0.775067 0
M  V30 39 H 4.939107 1.840250 -0.581698 0
M  V30 40 H 5.592390 -0.695770 -0.066928 0
M  V30 41 H 7.026215 -0.354754 1.059971 0
M  V30 42 H 6.673614 0.700319 -0.322319 0
M  V30 43 H 5.336164 -0.053292 3.029870 0
M  V30 44 H 4.010298 -0.510186 1.879394 0
M  V30 45 H 3.212658 0.924394 3.814687 0
M  V30 46 H 4.181804 2.237192 3.066603 0
M  V30 47 H 0.750211 1.608187 -0.147032 0
M  V30 48 H -1.484996 0.780068 -0.111256 0
M  V30 49 H -3.056459 -0.972874 2.658870 0
M  V30 50 H -5.473288 1.787825 -1.069298 0
M  V30 51 H -5.342075 -0.105209 -2.728718 0
M  V30 52 H -5.174141 -1.736794 -4.149717 0
M  V30 53 H -4.510204 -4.053971 -5.161925 0
M  V30 54 H -2.977401 -6.214320 -4.318704 0
M  V30 55 H -1.328328 -5.547339 -0.429365 0
M  V30 56 H -2.367619 -3.380038 -0.305756 0
M  V30 END ATOM
M  V30 BEGIN BOND
M  V30 1 1 1 2
M  V30 2 1 2 3
M  V30 3 2 3 4
M  V30 4 1 4 5
M  V30 5 1 5 6
M  V30 6 1 6 7
M  V30 7 1 7 8
M  V30 8 1 8 9
M  V30 9 1 9 10
M  V30 10 1 9 11
M  V30 11 1 11 12
M  V30 12 2 5 13
M  V30 13 1 13 14
M  V30 14 2 14 15
M  V30 15 1 15 16
M  V30 16 1 16 17
M  V30 17 2 17 18
M  V30 18 1 18 19
M  V30 19 2 19 20
M  V30 20 1 20 21
M  V30 21 1 21 22
M  V30 22 2 22 23
M  V30 23 1 23 24
M  V30 24 1 24 25
M  V30 25 2 25 26
M  V30 26 1 26 27
M  V30 27 2 27 28
M  V30 28 1 28 29
M  V30 29 2 29 30
M  V30 30 2 21 31
M  V30 31 1 15 3
M  V30 32 1 31 17
M  V30 33 1 12 6
M  V30 34 1 30 22
M  V30 35 1 30 25
M  V30 36 1 1 32
M  V30 37 1 1 33
M  V30 38 1 1 34
M  V30 39 1 4 35
M  V30 40 1 7 36
M  V30 41 1 7 37
M  V30 42 1 8 38
M  V30 43 1 8 39
M  V30 44 1 10 40
M  V30 45 1 10 41
M  V30 46 1 10 42
M  V30 47 1 11 43
M  V30 48 1 11 44
M  V30 49 1 12 45
M  V30 50 1 12 46
M  V30 51 1 13 47
M  V30 52 1 14 48
M  V30 53 1 16 49
M  V30 54 1 19 50
M  V30 55 1 20 51
M  V30 56 1 23 52
M  V30 57 1 24 53
M  V30 58 1 26 54
M  V30 59 1 28 55
M  V30 60 1 29 56
M  V30 END BOND
M  V30 END CTAB
M  END
>  <Dataset>  (104) 
ChEMBL_Kinases

>  <Ligand_Instance>  (104) 
nan

>  <PDB_ID>  (104) 
nan

>  <Standardized_SMILES>  (104) 
COc1cc(N2CCN(C)CC2)ccc1Nc1nccc(-c2c[nH]c3cnccc23)n1

>  <Name>  (104) 
nan

>  <Pocket>  (104) 
nan

>  <ATP_Site>  (104) 
nan

>  <Peripheral>  (104) 
nan

>  <Num_H_Atoms_ProtBoundConf>  (104) 
nan

>  <Num_Resolved_Atoms>  (104) 
nan

>  <Num_Not_Resolved_Atoms>  (104) 
nan

$$$$
CHEMBL38043
     RDKit          3D

  0  0  0  0  0  0  0  0  0  0999 V3000
M  V30 BEGIN CTAB
M  V30 COUNTS 26 27 0 0 0
M  V30 BEGIN ATOM
M  V30 1 C -2.013744 -4.341561 2.525694 0
M  V30 2 O -2.244744 -3.371826 1.526369 0
M  V30 3 C -1.436896 -2.245993 1.501569 0
M  V30 4 C -0.403361 -1.934539 2.351679 0
M  V30 5 C 0.356221 -0.803184 2.268188 0
M  V30 6 C 0.047815 0.092974 1.237019 0
M  V30 7 C 0.894552 1.280724 1.207017 0
M  V30 8 C 1.423571 1.575358 0.002877 0
M  V30 9 N 1.329144 0.955777 -1.260731 0
M  V30 10 C 2.083634 1.682508 -2.243976 0
M  V30 11 O 2.121900 1.275582 -3.454166 0
M  V30 12 N 2.665597 2.787442 -1.574383 0
M  V30 13 C 2.284148 2.759359 -0.184336 0
M  V30 14 O 2.698069 3.664922 0.606641 0
M  V30 15 C -0.974384 -0.142110 0.341818 0
M  V30 16 C -1.688870 -1.330402 0.517972 0
M  V30 17 H -1.146416 -4.973413 2.192377 0
M  V30 18 H -1.773978 -3.886193 3.526107 0
M  V30 19 H -2.871676 -5.008914 2.682135 0
M  V30 20 H -0.197007 -2.663956 3.142483 0
M  V30 21 H 1.164263 -0.628076 2.983449 0
M  V30 22 H 1.106824 1.906599 2.056416 0
M  V30 23 H 0.787447 0.078100 -1.448304 0
M  V30 24 H 3.256759 3.434136 -2.141588 0
M  V30 25 H -1.213600 0.570554 -0.435925 0
M  V30 26 H -2.479310 -1.470797 -0.208257 0
M  V30 END ATOM
M  V30 BEGIN BOND
M  V30 1 1 1 2
M  V30 2 1 2 3
M  V30 3 2 3 4
M  V30 4 1 4 5
M  V30 5 2 5 6
M  V30 6 1 6 7
M  V30 7 2 7 8
M  V30 8 1 8 9
M  V30 9 1 9 10
M  V30 10 2 10 11
M  V30 11 1 10 12
M  V30 12 1 12 13
M  V30 13 2 13 14
M  V30 14 1 6 15
M  V30 15 2 15 16
M  V30 16 1 16 3
M  V30 17 1 13 8
M  V30 18 1 1 17
M  V30 19 1 1 18
M  V30 20 1 1 19
M  V30 21 1 4 20
M  V30 22 1 5 21
M  V30 23 1 7 22
M  V30 24 1 9 23
M  V30 25 1 12 24
M  V30 26 1 15 25
M  V30 27 1 16 26
M  V30 END BOND
M  V30 END CTAB
M  END
>  <Dataset>  (105) 
ChEMBL_Kinases

>  <Ligand_Instance>  (105) 
nan

>  <PDB_ID>  (105) 
nan

>  <Standardized_SMILES>  (105) 
COc1ccc(/C=C2\NC(=O)NC2=O)cc1

>  <Name>  (105) 
nan

>  <Pocket>  (105) 
nan

>  <ATP_Site>  (105) 
nan

>  <Peripheral>  (105) 
nan

>  <Num_H_Atoms_ProtBoundConf>  (105) 
nan

>  <Num_Resolved_Atoms>  (105) 
nan

>  <Num_Not_Resolved_Atoms>  (105) 
nan

$$$$
CHEMBL409155
     RDKit          3D

  0  0  0  0  0  0  0  0  0  0999 V3000
M  V30 BEGIN CTAB
M  V30 COUNTS 41 45 0 0 0
M  V30 BEGIN ATOM
M  V30 1 N 2.828759 -4.611026 3.126207 0
M  V30 2 C 2.933603 -3.485737 2.795474 0
M  V30 3 C 3.047673 -2.087238 2.401155 0
M  V30 4 C 3.972266 -1.321607 3.077807 0
M  V30 5 N 4.048551 -0.054098 2.692376 0
M  V30 6 C 3.242037 0.392378 1.693856 0
M  V30 7 S 3.111093 2.062125 0.946519 0
M  V30 8 C 1.879427 1.661825 -0.181883 0
M  V30 9 C 1.249484 2.560437 -1.163259 0
M  V30 10 C 0.260127 2.146528 -2.035879 0
M  V30 11 C -0.310163 3.020221 -2.946356 0
M  V30 12 C 0.145356 4.323247 -2.952126 0
M  V30 13 C 1.131480 4.748300 -2.086936 0
M  V30 14 C 1.686713 3.865736 -1.188796 0
M  V30 15 C 1.604129 0.328054 0.021799 0
M  V30 16 C 2.304206 -0.334182 0.989184 0
M  V30 17 C 2.223793 -1.652365 1.388910 0
M  V30 18 N 1.305212 -2.581250 0.778290 0
M  V30 19 C -0.008101 -2.826680 1.198653 0
M  V30 20 C -0.785092 -3.746545 0.521810 0
M  V30 21 C -2.089733 -3.995267 0.933528 0
M  V30 22 C -2.584606 -3.295941 2.037953 0
M  V30 23 N -3.804294 -3.365972 2.617006 0
M  V30 24 C -3.870254 -2.520356 3.663161 0
M  V30 25 C -2.638051 -1.885221 3.752477 0
M  V30 26 C -1.832336 -2.370011 2.735476 0
M  V30 27 C -0.529234 -2.152404 2.287418 0
M  V30 28 H 4.613991 -1.670761 3.870072 0
M  V30 29 H -0.068607 1.114007 -1.997952 0
M  V30 30 H -1.084881 2.662481 -3.617344 0
M  V30 31 H -0.308251 5.009033 -3.672966 0
M  V30 32 H 1.478639 5.765246 -2.100083 0
M  V30 33 H 2.468285 4.223137 -0.510588 0
M  V30 34 H 0.841540 -0.146740 -0.593701 0
M  V30 35 H 1.718704 -3.079533 -0.041660 0
M  V30 36 H -0.330386 -4.256911 -0.335029 0
M  V30 37 H -2.693597 -4.718583 0.397450 0
M  V30 38 H -4.643410 -3.953639 2.370815 0
M  V30 39 H -4.674834 -2.303966 4.358870 0
M  V30 40 H -2.308609 -1.140290 4.463496 0
M  V30 41 H 0.022206 -1.422484 2.859876 0
M  V30 END ATOM
M  V30 BEGIN BOND
M  V30 1 3 1 2
M  V30 2 1 2 3
M  V30 3 2 3 4
M  V30 4 1 4 5
M  V30 5 2 5 6
M  V30 6 1 6 7
M  V30 7 1 7 8
M  V30 8 1 8 9
M  V30 9 2 9 10
M  V30 10 1 10 11
M  V30 11 2 11 12
M  V30 12 1 12 13
M  V30 13 2 13 14
M  V30 14 2 8 15
M  V30 15 1 15 16
M  V30 16 2 16 17
M  V30 17 1 17 18
M  V30 18 1 18 19
M  V30 19 2 19 20
M  V30 20 1 20 21
M  V30 21 2 21 22
M  V30 22 1 22 23
M  V30 23 1 23 24
M  V30 24 2 24 25
M  V30 25 1 25 26
M  V30 26 2 26 27
M  V30 27 1 17 3
M  V30 28 1 27 19
M  V30 29 1 16 6
M  V30 30 1 26 22
M  V30 31 1 14 9
M  V30 32 1 4 28
M  V30 33 1 10 29
M  V30 34 1 11 30
M  V30 35 1 12 31
M  V30 36 1 13 32
M  V30 37 1 14 33
M  V30 38 1 15 34
M  V30 39 1 18 35
M  V30 40 1 20 36
M  V30 41 1 21 37
M  V30 42 1 23 38
M  V30 43 1 24 39
M  V30 44 1 25 40
M  V30 45 1 27 41
M  V30 END BOND
M  V30 END CTAB
M  END
>  <Dataset>  (106) 
ChEMBL_Kinases

>  <Ligand_Instance>  (106) 
nan

>  <PDB_ID>  (106) 
nan

>  <Standardized_SMILES>  (106) 
N#Cc1cnc2sc(-c3ccccc3)cc2c1Nc1ccc2[nH]ccc2c1

>  <Name>  (106) 
nan

>  <Pocket>  (106) 
nan

>  <ATP_Site>  (106) 
nan

>  <Peripheral>  (106) 
nan

>  <Num_H_Atoms_ProtBoundConf>  (106) 
nan

>  <Num_Resolved_Atoms>  (106) 
nan

>  <Num_Not_Resolved_Atoms>  (106) 
nan

$$$$
CHEMBL3421972
     RDKit          3D

  0  0  0  0  0  0  0  0  0  0999 V3000
M  V30 BEGIN CTAB
M  V30 COUNTS 58 62 0 0 0
M  V30 BEGIN ATOM
M  V30 1 C 1.918582 0.339715 -2.388994 0
M  V30 2 O 1.043672 -0.469097 -1.652388 0
M  V30 3 C 0.710268 -0.099193 -0.343501 0
M  V30 4 C 1.232775 1.042239 0.214855 0
M  V30 5 C 0.929440 1.443967 1.504436 0
M  V30 6 O 1.552521 2.616944 1.885029 0
M  V30 7 C 1.432530 3.254270 3.119406 0
M  V30 8 C 2.758128 3.377139 3.855053 0
M  V30 9 C 3.563132 4.537571 3.254973 0
M  V30 10 N 2.987917 4.784055 1.927154 0
M  V30 11 C 3.904975 5.449249 1.053613 0
M  V30 12 C 1.751120 5.481453 2.113454 0
M  V30 13 C 0.841866 4.648142 2.982817 0
M  V30 14 C 0.070731 0.642949 2.216468 0
M  V30 15 C -0.433726 -0.493595 1.625052 0
M  V30 16 C -0.167283 -0.935281 0.357617 0
M  V30 17 N -0.710079 -2.101855 -0.194320 0
M  V30 18 C -1.594480 -3.041219 0.367113 0
M  V30 19 N -2.100957 -2.979486 1.604447 0
M  V30 20 C -2.935856 -3.913332 2.061741 0
M  V30 21 C -3.304445 -4.976120 1.269678 0
M  V30 22 C -2.804546 -5.059672 0.013867 0
M  V30 23 C -3.173594 -6.170841 -0.851582 0
M  V30 24 C -4.014008 -7.207586 -0.539460 0
M  V30 25 N -4.117251 -8.052572 -1.598137 0
M  V30 26 C -3.343310 -7.572488 -2.611169 0
M  V30 27 C -3.067110 -8.014219 -3.909856 0
M  V30 28 N -2.229996 -7.302664 -4.711619 0
M  V30 29 C -1.653223 -6.154822 -4.258780 0
M  V30 30 C -1.909668 -5.692470 -2.973150 0
M  V30 31 C -2.752332 -6.395902 -2.146477 0
M  V30 32 N -1.972654 -4.089550 -0.381214 0
M  V30 33 H 1.568129 1.404396 -2.445408 0
M  V30 34 H 2.003433 -0.069812 -3.423879 0
M  V30 35 H 2.908597 0.384318 -1.878573 0
M  V30 36 H 1.907232 1.612106 -0.434402 0
M  V30 37 H 0.760292 2.696106 3.779069 0
M  V30 38 H 2.524245 3.535263 4.919003 0
M  V30 39 H 3.340180 2.446249 3.754657 0
M  V30 40 H 3.435527 5.443847 3.857723 0
M  V30 41 H 4.627028 4.298272 3.146782 0
M  V30 42 H 4.529564 4.729807 0.493933 0
M  V30 43 H 4.620167 6.057541 1.676141 0
M  V30 44 H 3.404176 6.106891 0.311481 0
M  V30 45 H 1.944385 6.438071 2.680969 0
M  V30 46 H 1.270985 5.703592 1.133240 0
M  V30 47 H 0.709137 5.101021 3.990126 0
M  V30 48 H -0.154028 4.572833 2.454526 0
M  V30 49 H -0.146668 0.980163 3.215482 0
M  V30 50 H -1.091080 -1.022017 2.298538 0
M  V30 51 H -0.384229 -2.276729 -1.192695 0
M  V30 52 H -3.299141 -3.783497 3.079902 0
M  V30 53 H -3.984266 -5.691762 1.710456 0
M  V30 54 H -4.528378 -7.348704 0.405803 0
M  V30 55 H -4.682067 -8.936562 -1.674612 0
M  V30 56 H -3.537493 -8.930927 -4.249471 0
M  V30 57 H -0.989926 -5.608629 -4.920968 0
M  V30 58 H -1.424328 -4.775416 -2.666684 0
M  V30 END ATOM
M  V30 BEGIN BOND
M  V30 1 1 1 2
M  V30 2 1 2 3
M  V30 3 2 3 4
M  V30 4 1 4 5
M  V30 5 1 5 6
M  V30 6 1 6 7
M  V30 7 1 7 8
M  V30 8 1 8 9
M  V30 9 1 9 10
M  V30 10 1 10 11
M  V30 11 1 10 12
M  V30 12 1 12 13
M  V30 13 2 5 14
M  V30 14 1 14 15
M  V30 15 2 15 16
M  V30 16 1 16 17
M  V30 17 1 17 18
M  V30 18 2 18 19
M  V30 19 1 19 20
M  V30 20 2 20 21
M  V30 21 1 21 22
M  V30 22 1 22 23
M  V30 23 2 23 24
M  V30 24 1 24 25
M  V30 25 1 25 26
M  V30 26 2 26 27
M  V30 27 1 27 28
M  V30 28 2 28 29
M  V30 29 1 29 30
M  V30 30 2 30 31
M  V30 31 2 22 32
M  V30 32 1 16 3
M  V30 33 1 32 18
M  V30 34 1 13 7
M  V30 35 1 31 23
M  V30 36 1 31 26
M  V30 37 1 1 33
M  V30 38 1 1 34
M  V30 39 1 1 35
M  V30 40 1 4 36
M  V30 41 1 7 37
M  V30 42 1 8 38
M  V30 43 1 8 39
M  V30 44 1 9 40
M  V30 45 1 9 41
M  V30 46 1 11 42
M  V30 47 1 11 43
M  V30 48 1 11 44
M  V30 49 1 12 45
M  V30 50 1 12 46
M  V30 51 1 13 47
M  V30 52 1 13 48
M  V30 53 1 14 49
M  V30 54 1 15 50
M  V30 55 1 17 51
M  V30 56 1 20 52
M  V30 57 1 21 53
M  V30 58 1 24 54
M  V30 59 1 25 55
M  V30 60 1 27 56
M  V30 61 1 29 57
M  V30 62 1 30 58
M  V30 END BOND
M  V30 END CTAB
M  END
>  <Dataset>  (107) 
ChEMBL_Kinases

>  <Ligand_Instance>  (107) 
nan

>  <PDB_ID>  (107) 
nan

>  <Standardized_SMILES>  (107) 
COc1cc(OC2CCN(C)CC2)ccc1Nc1nccc(-c2c[nH]c3cnccc23)n1

>  <Name>  (107) 
nan

>  <Pocket>  (107) 
nan

>  <ATP_Site>  (107) 
nan

>  <Peripheral>  (107) 
nan

>  <Num_H_Atoms_ProtBoundConf>  (107) 
nan

>  <Num_Resolved_Atoms>  (107) 
nan

>  <Num_Not_Resolved_Atoms>  (107) 
nan

$$$$
CHEMBL3417327
     RDKit          3D

  0  0  0  0  0  0  0  0  0  0999 V3000
M  V30 BEGIN CTAB
M  V30 COUNTS 63 66 0 0 0
M  V30 BEGIN ATOM
M  V30 1 C 1.563608 -4.094765 4.824916 0
M  V30 2 O 0.622064 -3.845434 3.817228 0
M  V30 3 C 0.546497 -2.740978 3.017870 0
M  V30 4 C 1.378876 -1.643861 3.029802 0
M  V30 5 C 1.200530 -0.599195 2.178870 0
M  V30 6 C 2.150436 0.502094 2.274831 0
M  V30 7 O 3.237241 0.469610 2.874089 0
M  V30 8 N 1.878054 1.741338 1.660285 0
M  V30 9 C 2.530537 3.016852 1.518346 0
M  V30 10 C 2.575609 3.551898 0.122546 0
M  V30 11 C 1.523040 4.670755 0.027639 0
M  V30 12 N 0.341143 4.109903 0.643095 0
M  V30 13 C -0.895907 4.470787 0.050902 0
M  V30 14 C 0.450396 4.335193 2.058066 0
M  V30 15 C 1.823054 3.968822 2.470225 0
M  V30 16 C 0.175086 -0.584092 1.256660 0
M  V30 17 C -0.662820 -1.689312 1.244102 0
M  V30 18 C -0.499028 -2.770225 2.107751 0
M  V30 19 N -1.497541 -3.760872 1.963704 0
M  V30 20 C -2.516891 -3.928030 0.989797 0
M  V30 21 N -3.707954 -4.384722 1.456148 0
M  V30 22 C -4.744907 -4.617539 0.662738 0
M  V30 23 C -4.538020 -4.366650 -0.673076 0
M  V30 24 F -5.593207 -4.597240 -1.519439 0
M  V30 25 C -3.345024 -3.897768 -1.234244 0
M  V30 26 N -3.200777 -3.682266 -2.623492 0
M  V30 27 C -2.008297 -3.240772 -3.278527 0
M  V30 28 C -0.879233 -4.210984 -2.993156 0
M  V30 29 C 0.386094 -3.428032 -2.963586 0
M  V30 30 C 0.009826 -1.968943 -3.010036 0
M  V30 31 C -1.501558 -1.891319 -2.866903 0
M  V30 32 N -2.386182 -3.707315 -0.309239 0
M  V30 33 H 1.686456 -5.208114 4.913061 0
M  V30 34 H 2.542235 -3.618228 4.690386 0
M  V30 35 H 1.077733 -3.726205 5.780452 0
M  V30 36 H 2.173030 -1.686300 3.761975 0
M  V30 37 H 0.969032 1.894998 1.127908 0
M  V30 38 H 3.592197 2.921613 1.887207 0
M  V30 39 H 3.565484 3.922037 -0.121935 0
M  V30 40 H 2.178146 2.764254 -0.583364 0
M  V30 41 H 1.893112 5.579012 0.548493 0
M  V30 42 H 1.304003 4.830114 -1.031278 0
M  V30 43 H -1.515826 5.152176 0.666931 0
M  V30 44 H -1.493604 3.522012 -0.092246 0
M  V30 45 H -0.735835 4.870908 -0.973852 0
M  V30 46 H 0.191073 5.393558 2.336235 0
M  V30 47 H -0.277868 3.670970 2.580654 0
M  V30 48 H 1.806282 3.488704 3.460625 0
M  V30 49 H 2.513749 4.843332 2.556448 0
M  V30 50 H 0.012071 0.228568 0.567941 0
M  V30 51 H -1.455407 -1.646969 0.509447 0
M  V30 52 H -1.425869 -4.475461 2.745312 0
M  V30 53 H -5.702576 -4.981214 1.005992 0
M  V30 54 H -4.071867 -3.875420 -3.200817 0
M  V30 55 H -2.173526 -3.290580 -4.395336 0
M  V30 56 H -1.116471 -4.699423 -2.021902 0
M  V30 57 H -0.814360 -4.968749 -3.806224 0
M  V30 58 H 1.034818 -3.721512 -3.840947 0
M  V30 59 H 1.024795 -3.665333 -2.081771 0
M  V30 60 H 0.559711 -1.351123 -2.292024 0
M  V30 61 H 0.303335 -1.610754 -4.042621 0
M  V30 62 H -1.816835 -1.568278 -1.857766 0
M  V30 63 H -1.897428 -1.108097 -3.554602 0
M  V30 END ATOM
M  V30 BEGIN BOND
M  V30 1 1 1 2
M  V30 2 1 2 3
M  V30 3 2 3 4
M  V30 4 1 4 5
M  V30 5 1 5 6
M  V30 6 2 6 7
M  V30 7 1 6 8
M  V30 8 1 8 9
M  V30 9 1 9 10
M  V30 10 1 10 11
M  V30 11 1 11 12
M  V30 12 1 12 13
M  V30 13 1 12 14
M  V30 14 1 14 15
M  V30 15 2 5 16
M  V30 16 1 16 17
M  V30 17 2 17 18
M  V30 18 1 18 19
M  V30 19 1 19 20
M  V30 20 2 20 21
M  V30 21 1 21 22
M  V30 22 2 22 23
M  V30 23 1 23 24
M  V30 24 1 23 25
M  V30 25 1 25 26
M  V30 26 1 26 27
M  V30 27 1 27 28
M  V30 28 1 28 29
M  V30 29 1 29 30
M  V30 30 1 30 31
M  V30 31 2 25 32
M  V30 32 1 18 3
M  V30 33 1 32 20
M  V30 34 1 15 9
M  V30 35 1 31 27
M  V30 36 1 1 33
M  V30 37 1 1 34
M  V30 38 1 1 35
M  V30 39 1 4 36
M  V30 40 1 8 37
M  V30 41 1 9 38
M  V30 42 1 10 39
M  V30 43 1 10 40
M  V30 44 1 11 41
M  V30 45 1 11 42
M  V30 46 1 13 43
M  V30 47 1 13 44
M  V30 48 1 13 45
M  V30 49 1 14 46
M  V30 50 1 14 47
M  V30 51 1 15 48
M  V30 52 1 15 49
M  V30 53 1 16 50
M  V30 54 1 17 51
M  V30 55 1 19 52
M  V30 56 1 22 53
M  V30 57 1 26 54
M  V30 58 1 27 55
M  V30 59 1 28 56
M  V30 60 1 28 57
M  V30 61 1 29 58
M  V30 62 1 29 59
M  V30 63 1 30 60
M  V30 64 1 30 61
M  V30 65 1 31 62
M  V30 66 1 31 63
M  V30 END BOND
M  V30 END CTAB
M  END
>  <Dataset>  (108) 
ChEMBL_Kinases

>  <Ligand_Instance>  (108) 
nan

>  <PDB_ID>  (108) 
nan

>  <Standardized_SMILES>  (108) 
COc1cc(C(=O)NC2CCN(C)CC2)ccc1Nc1ncc(F)c(NC2CCCC2)n1

>  <Name>  (108) 
nan

>  <Pocket>  (108) 
nan

>  <ATP_Site>  (108) 
nan

>  <Peripheral>  (108) 
nan

>  <Num_H_Atoms_ProtBoundConf>  (108) 
nan

>  <Num_Resolved_Atoms>  (108) 
nan

>  <Num_Not_Resolved_Atoms>  (108) 
nan

$$$$
CHEMBL379975
     RDKit          3D

  0  0  0  0  0  0  0  0  0  0999 V3000
M  V30 BEGIN CTAB
M  V30 COUNTS 37 41 0 0 0
M  V30 BEGIN ATOM
M  V30 1 O 3.891059 0.158776 -0.079825 0
M  V30 2 C 3.040685 -0.697520 0.206306 0
M  V30 3 N 3.205054 -2.111659 0.437245 0
M  V30 4 C 1.942155 -2.677085 0.734207 0
M  V30 5 O 1.947135 -3.893481 0.953860 0
M  V30 6 C 0.923922 -1.665579 0.707733 0
M  V30 7 C 1.595866 -0.510076 0.394857 0
M  V30 8 C 0.899404 0.685544 0.285460 0
M  V30 9 C 1.565308 1.942232 -0.044762 0
M  V30 10 C 1.703406 2.329819 -1.366828 0
M  V30 11 C 2.309696 3.489068 -1.816448 0
M  V30 12 C 2.815130 4.317217 -0.826327 0
M  V30 13 C 2.710606 3.990667 0.501977 0
M  V30 14 C 2.089953 2.809588 0.906662 0
M  V30 15 Cl 1.946380 2.374829 2.595069 0
M  V30 16 C -0.464829 0.704506 0.492129 0
M  V30 17 C -1.118967 -0.469024 0.805529 0
M  V30 18 N -2.415938 -0.726256 1.051891 0
M  V30 19 C -2.507951 -2.065165 1.308689 0
M  V30 20 C -3.657914 -2.767440 1.613046 0
M  V30 21 C -3.609504 -4.142723 1.854793 0
M  V30 22 C -2.361198 -4.769987 1.776200 0
M  V30 23 O -2.312695 -6.132681 2.015647 0
M  V30 24 C -1.266393 -4.002407 1.468503 0
M  V30 25 C -1.270971 -2.663580 1.226616 0
M  V30 26 C -0.419733 -1.649329 0.911722 0
M  V30 27 H 4.182322 -2.518037 0.360377 0
M  V30 28 H 1.298218 1.661907 -2.121092 0
M  V30 29 H 2.371864 3.709815 -2.868387 0
M  V30 30 H 3.293544 5.229025 -1.152120 0
M  V30 31 H 3.119516 4.666233 1.248077 0
M  V30 32 H -1.012049 1.648941 0.405266 0
M  V30 33 H -3.183841 -0.020689 1.042295 0
M  V30 34 H -4.615752 -2.270454 1.670514 0
M  V30 35 H -4.541996 -4.633316 2.087306 0
M  V30 36 H -2.129639 -6.733004 1.227081 0
M  V30 37 H -0.364205 -4.555102 1.429703 0
M  V30 END ATOM
M  V30 BEGIN BOND
M  V30 1 2 1 2
M  V30 2 1 2 3
M  V30 3 1 3 4
M  V30 4 2 4 5
M  V30 5 1 4 6
M  V30 6 2 6 7
M  V30 7 1 7 8
M  V30 8 1 8 9
M  V30 9 2 9 10
M  V30 10 1 10 11
M  V30 11 2 11 12
M  V30 12 1 12 13
M  V30 13 2 13 14
M  V30 14 1 14 15
M  V30 15 2 8 16
M  V30 16 1 16 17
M  V30 17 1 17 18
M  V30 18 1 18 19
M  V30 19 2 19 20
M  V30 20 1 20 21
M  V30 21 2 21 22
M  V30 22 1 22 23
M  V30 23 1 22 24
M  V30 24 2 24 25
M  V30 25 1 25 26
M  V30 26 1 7 2
M  V30 27 1 14 9
M  V30 28 2 26 17
M  V30 29 1 26 6
M  V30 30 1 25 19
M  V30 31 1 3 27
M  V30 32 1 10 28
M  V30 33 1 11 29
M  V30 34 1 12 30
M  V30 35 1 13 31
M  V30 36 1 16 32
M  V30 37 1 18 33
M  V30 38 1 20 34
M  V30 39 1 21 35
M  V30 40 1 23 36
M  V30 41 1 24 37
M  V30 END BOND
M  V30 END CTAB
M  END
>  <Dataset>  (109) 
ChEMBL_Kinases

>  <Ligand_Instance>  (109) 
nan

>  <PDB_ID>  (109) 
nan

>  <Standardized_SMILES>  (109) 
O=C1NC(=O)c2c1c(-c1ccccc1Cl)cc1[nH]c3ccc(O)cc3c21

>  <Name>  (109) 
nan

>  <Pocket>  (109) 
nan

>  <ATP_Site>  (109) 
nan

>  <Peripheral>  (109) 
nan

>  <Num_H_Atoms_ProtBoundConf>  (109) 
nan

>  <Num_Resolved_Atoms>  (109) 
nan

>  <Num_Not_Resolved_Atoms>  (109) 
nan

$$$$
CHEMBL3666767
     RDKit          3D

  0  0  0  0  0  0  0  0  0  0999 V3000
M  V30 BEGIN CTAB
M  V30 COUNTS 64 68 0 0 0
M  V30 BEGIN ATOM
M  V30 1 C 3.156877 -2.105464 4.169398 0
M  V30 2 O 1.932266 -1.647723 3.656720 0
M  V30 3 C 1.806102 -0.618864 2.747715 0
M  V30 4 C 2.940483 0.018883 2.298195 0
M  V30 5 C 2.873467 1.051763 1.391384 0
M  V30 6 N 3.993257 1.758929 0.875067 0
M  V30 7 C 3.972893 2.928609 0.020653 0
M  V30 8 C 5.082181 2.876170 -1.012114 0
M  V30 9 N 5.319966 1.480223 -1.330624 0
M  V30 10 C 6.209583 1.340294 -2.470075 0
M  V30 11 C 5.928914 0.815725 -0.180866 0
M  V30 12 C 5.380894 1.426599 1.110621 0
M  V30 13 C 1.615617 1.409005 0.962017 0
M  V30 14 C 0.458321 0.785849 1.396765 0
M  V30 15 C 0.540444 -0.265968 2.321250 0
M  V30 16 N -0.639676 -0.909483 2.788248 0
M  V30 17 C -1.960502 -0.609886 2.358844 0
M  V30 18 N -2.823675 0.350373 2.773119 0
M  V30 19 C -4.053806 0.474200 2.245001 0
M  V30 20 C -4.497389 -0.374564 1.252144 0
M  V30 21 C -3.613369 -1.347330 0.838715 0
M  V30 22 N -2.384458 -1.444405 1.389333 0
M  V30 23 C -3.869889 -2.369987 -0.198688 0
M  V30 24 C -5.056771 -2.588407 -0.887675 0
M  V30 25 C -4.734633 -3.645960 -1.713537 0
M  V30 26 C -5.603310 -4.311929 -2.676468 0
M  V30 27 N -5.152825 -5.401053 -3.469487 0
M  V30 28 O -6.799715 -3.985022 -2.881918 0
M  V30 29 N -3.454583 -3.997496 -1.502898 0
M  V30 30 N -2.908496 -3.227312 -0.578645 0
M  V30 31 C -1.543445 -3.325455 -0.100860 0
M  V30 32 C -6.364708 -1.925417 -0.825411 0
M  V30 33 C -6.683149 -1.336905 0.545534 0
M  V30 34 C -5.883531 -0.065854 0.805304 0
M  V30 35 H 3.678671 -2.665615 3.338346 0
M  V30 36 H 2.921715 -2.817456 4.994196 0
M  V30 37 H 3.809079 -1.297417 4.557440 0
M  V30 38 H 3.887017 -0.295544 2.661102 0
M  V30 39 H 4.173076 3.839917 0.658006 0
M  V30 40 H 3.002330 3.048342 -0.520177 0
M  V30 41 H 4.740578 3.397656 -1.923315 0
M  V30 42 H 6.014228 3.356605 -0.609434 0
M  V30 43 H 6.932915 2.183697 -2.468003 0
M  V30 44 H 6.744028 0.369362 -2.489871 0
M  V30 45 H 5.569572 1.366870 -3.381361 0
M  V30 46 H 5.612830 -0.246523 -0.227635 0
M  V30 47 H 7.021748 0.939877 -0.176604 0
M  V30 48 H 5.999797 2.289388 1.438632 0
M  V30 49 H 5.503492 0.641384 1.881615 0
M  V30 50 H 1.377245 2.182459 0.265177 0
M  V30 51 H -0.540123 1.029259 1.090862 0
M  V30 52 H -0.510542 -1.659164 3.503098 0
M  V30 53 H -4.671931 1.262324 2.631587 0
M  V30 54 H -5.161852 -5.466521 -4.504179 0
M  V30 55 H -4.730130 -6.337903 -3.196353 0
M  V30 56 H -0.986284 -4.067753 -0.733981 0
M  V30 57 H -1.021334 -2.356614 -0.329617 0
M  V30 58 H -1.480722 -3.602057 0.967293 0
M  V30 59 H -7.208207 -2.585333 -1.065978 0
M  V30 60 H -6.421346 -1.069038 -1.546109 0
M  V30 61 H -6.325923 -2.072735 1.293283 0
M  V30 62 H -7.767559 -1.179864 0.645209 0
M  V30 63 H -5.759975 0.387535 -0.221697 0
M  V30 64 H -6.375262 0.627343 1.485421 0
M  V30 END ATOM
M  V30 BEGIN BOND
M  V30 1 1 1 2
M  V30 2 1 2 3
M  V30 3 2 3 4
M  V30 4 1 4 5
M  V30 5 1 5 6
M  V30 6 1 6 7
M  V30 7 1 7 8
M  V30 8 1 8 9
M  V30 9 1 9 10
M  V30 10 1 9 11
M  V30 11 1 11 12
M  V30 12 2 5 13
M  V30 13 1 13 14
M  V30 14 2 14 15
M  V30 15 1 15 16
M  V30 16 1 16 17
M  V30 17 2 17 18
M  V30 18 1 18 19
M  V30 19 2 19 20
M  V30 20 1 20 21
M  V30 21 2 21 22
M  V30 22 1 21 23
M  V30 23 2 23 24
M  V30 24 1 24 25
M  V30 25 1 25 26
M  V30 26 1 26 27
M  V30 27 2 26 28
M  V30 28 2 25 29
M  V30 29 1 29 30
M  V30 30 1 30 31
M  V30 31 1 24 32
M  V30 32 1 32 33
M  V30 33 1 33 34
M  V30 34 1 15 3
M  V30 35 1 22 17
M  V30 36 1 30 23
M  V30 37 1 12 6
M  V30 38 1 34 20
M  V30 39 1 1 35
M  V30 40 1 1 36
M  V30 41 1 1 37
M  V30 42 1 4 38
M  V30 43 1 7 39
M  V30 44 1 7 40
M  V30 45 1 8 41
M  V30 46 1 8 42
M  V30 47 1 10 43
M  V30 48 1 10 44
M  V30 49 1 10 45
M  V30 50 1 11 46
M  V30 51 1 11 47
M  V30 52 1 12 48
M  V30 53 1 12 49
M  V30 54 1 13 50
M  V30 55 1 14 51
M  V30 56 1 16 52
M  V30 57 1 19 53
M  V30 58 1 27 54
M  V30 59 1 27 55
M  V30 60 1 31 56
M  V30 61 1 31 57
M  V30 62 1 31 58
M  V30 63 1 32 59
M  V30 64 1 32 60
M  V30 65 1 33 61
M  V30 66 1 33 62
M  V30 67 1 34 63
M  V30 68 1 34 64
M  V30 END BOND
M  V30 END CTAB
M  END
>  <Dataset>  (110) 
ChEMBL_Kinases

>  <Ligand_Instance>  (110) 
nan

>  <PDB_ID>  (110) 
nan

>  <Standardized_SMILES>  (110) 
COc1cc(N2CCN(C)CC2)ccc1Nc1ncc2c(n1)-c1c(c(C(N)=O)nn1C)CCC2

>  <Name>  (110) 
nan

>  <Pocket>  (110) 
nan

>  <ATP_Site>  (110) 
nan

>  <Peripheral>  (110) 
nan

>  <Num_H_Atoms_ProtBoundConf>  (110) 
nan

>  <Num_Resolved_Atoms>  (110) 
nan

>  <Num_Not_Resolved_Atoms>  (110) 
nan

$$$$
CHEMBL4092984
     RDKit          3D

  0  0  0  0  0  0  0  0  0  0999 V3000
M  V30 BEGIN CTAB
M  V30 COUNTS 48 52 0 0 0
M  V30 BEGIN ATOM
M  V30 1 C -3.062635 -5.046624 3.481352 0
M  V30 2 O -2.386644 -4.066413 2.733186 0
M  V30 3 C -1.026566 -4.131024 2.525056 0
M  V30 4 C -0.427103 -3.141658 1.784804 0
M  V30 5 C 0.911299 -3.054885 1.484244 0
M  V30 6 C 1.595943 -2.020031 0.718918 0
M  V30 7 C 2.703637 -2.478956 -0.009812 0
M  V30 8 C 3.517568 -1.694310 -0.796886 0
M  V30 9 C 3.193794 -0.365644 -0.851286 0
M  V30 10 N 3.994492 0.412878 -1.629167 0
M  V30 11 C 3.758245 1.731354 -1.748126 0
M  V30 12 C 2.690928 2.194644 -1.048316 0
M  V30 13 N 2.208702 3.455755 -0.961078 0
M  V30 14 N 1.159945 3.438930 -0.162184 0
M  V30 15 N 0.902578 2.206472 0.304919 0
M  V30 16 C -0.196486 2.002568 1.195840 0 CFG=1
M  V30 17 C -0.602246 3.385633 1.789649 0
M  V30 18 C -1.413473 1.566008 0.449177 0
M  V30 19 C -2.221130 0.475383 0.546193 0
M  V30 20 C -3.295609 0.292292 -0.294479 0
M  V30 21 C -3.601879 1.216609 -1.280218 0
M  V30 22 F -4.668208 0.973204 -2.067447 0
M  V30 23 C -2.788184 2.334586 -1.391906 0
M  V30 24 C -1.695659 2.522246 -0.538638 0
M  V30 25 C 1.842426 1.466753 -0.245778 0
M  V30 26 C 2.119094 0.137469 -0.156636 0
M  V30 27 C 1.328738 -0.659729 0.614414 0
M  V30 28 C 1.666241 -4.107298 2.016060 0
M  V30 29 C 1.097668 -5.114383 2.761838 0
M  V30 30 N -0.227778 -5.097829 2.994442 0
M  V30 31 H -3.041995 -6.019704 2.908163 0
M  V30 32 H -4.083043 -4.718655 3.727598 0
M  V30 33 H -2.485674 -5.230598 4.421488 0
M  V30 34 H -1.039699 -2.349266 1.386493 0
M  V30 35 H 2.983031 -3.528143 0.013188 0
M  V30 36 H 4.352954 -2.090497 -1.335800 0
M  V30 37 H 4.364747 2.392126 -2.353911 0
M  V30 38 H 0.003821 1.439555 2.116825 0
M  V30 39 H -1.586461 3.222705 2.266022 0
M  V30 40 H 0.107732 3.646195 2.621992 0
M  V30 41 H -0.682313 4.147589 1.017211 0
M  V30 42 H -1.890907 -0.160943 1.348357 0
M  V30 43 H -3.870634 -0.606756 -0.132038 0
M  V30 44 H -3.112836 2.989404 -2.188520 0
M  V30 45 H -1.213301 3.453123 -0.811572 0
M  V30 46 H 0.471635 -0.425764 1.190491 0
M  V30 47 H 2.733597 -4.222395 1.895930 0
M  V30 48 H 1.655670 -5.939189 3.184671 0
M  V30 END ATOM
M  V30 BEGIN BOND
M  V30 1 1 1 2
M  V30 2 1 2 3
M  V30 3 2 3 4
M  V30 4 1 4 5
M  V30 5 1 5 6
M  V30 6 2 6 7
M  V30 7 1 7 8
M  V30 8 2 8 9
M  V30 9 1 9 10
M  V30 10 2 10 11
M  V30 11 1 11 12
M  V30 12 1 12 13
M  V30 13 2 13 14
M  V30 14 1 14 15
M  V30 15 1 15 16
M  V30 16 1 16 17
M  V30 17 1 16 18
M  V30 18 2 18 19
M  V30 19 1 19 20
M  V30 20 2 20 21
M  V30 21 1 21 22
M  V30 22 1 21 23
M  V30 23 2 23 24
M  V30 24 1 15 25
M  V30 25 1 25 26
M  V30 26 2 26 27
M  V30 27 2 5 28
M  V30 28 1 28 29
M  V30 29 2 29 30
M  V30 30 1 30 3
M  V30 31 1 27 6
M  V30 32 1 26 9
M  V30 33 2 25 12
M  V30 34 1 24 18
M  V30 35 1 1 31
M  V30 36 1 1 32
M  V30 37 1 1 33
M  V30 38 1 4 34
M  V30 39 1 7 35
M  V30 40 1 8 36
M  V30 41 1 11 37
M  V30 42 1 16 38 CFG=1
M  V30 43 1 17 39
M  V30 44 1 17 40
M  V30 45 1 17 41
M  V30 46 1 19 42
M  V30 47 1 20 43
M  V30 48 1 23 44
M  V30 49 1 24 45
M  V30 50 1 27 46
M  V30 51 1 28 47
M  V30 52 1 29 48
M  V30 END BOND
M  V30 END CTAB
M  END
>  <Dataset>  (111) 
ChEMBL_Kinases

>  <Ligand_Instance>  (111) 
nan

>  <PDB_ID>  (111) 
nan

>  <Standardized_SMILES>  (111) 
COc1cc(-c2ccc3ncc4nnn([C@@H](C)c5ccc(F)cc5)c4c3c2)ccn1

>  <Name>  (111) 
nan

>  <Pocket>  (111) 
nan

>  <ATP_Site>  (111) 
nan

>  <Peripheral>  (111) 
nan

>  <Num_H_Atoms_ProtBoundConf>  (111) 
nan

>  <Num_Resolved_Atoms>  (111) 
nan

>  <Num_Not_Resolved_Atoms>  (111) 
nan

$$$$
CHEMBL3666763
     RDKit          3D

  0  0  0  0  0  0  0  0  0  0999 V3000
M  V30 BEGIN CTAB
M  V30 COUNTS 60 64 0 0 0
M  V30 BEGIN ATOM
M  V30 1 C 2.079473 -2.834220 7.570224 0
M  V30 2 N 2.369686 -2.343584 6.237132 0
M  V30 3 C 3.582151 -1.582941 6.185082 0
M  V30 4 C 3.910503 -1.113669 4.780509 0
M  V30 5 N 2.666604 -0.646169 4.179737 0
M  V30 6 C 2.560591 -0.534417 2.768257 0
M  V30 7 C 3.666680 -0.819934 2.012240 0
M  V30 8 C 3.634084 -0.735607 0.639320 0
M  V30 9 C 2.507701 -0.365297 -0.053383 0
M  V30 10 N 2.386062 -0.232709 -1.461060 0
M  V30 11 C 1.236710 -0.180134 -2.295164 0
M  V30 12 N 1.508470 0.108499 -3.577061 0
M  V30 13 C 0.577855 0.187120 -4.534670 0
M  V30 14 C -0.726379 -0.042245 -4.176870 0
M  V30 15 C -0.974406 -0.337073 -2.853923 0
M  V30 16 N -0.040904 -0.413398 -1.902594 0
M  V30 17 C -2.313905 -0.616896 -2.357149 0
M  V30 18 C -3.543379 -0.390840 -2.931629 0
M  V30 19 C -4.539159 -0.810050 -2.098410 0
M  V30 20 C -5.974365 -0.770861 -2.274414 0
M  V30 21 N -6.723908 -0.279256 -3.364125 0
M  V30 22 O -6.864015 -1.167503 -1.492365 0
M  V30 23 N -3.921074 -1.293691 -1.014988 0
M  V30 24 N -2.590861 -1.175343 -1.176655 0
M  V30 25 C -1.667112 -1.627904 -0.155864 0
M  V30 26 C -3.724476 0.211707 -4.282837 0
M  V30 27 C -2.834128 -0.501365 -5.287730 0
M  V30 28 C -1.492562 0.130223 -5.442077 0
M  V30 29 C 1.423726 -0.089816 0.779044 0
M  V30 30 C 1.386663 -0.153972 2.155666 0
M  V30 31 C 1.643719 -0.337043 5.157143 0
M  V30 32 C 1.195837 -1.649529 5.759975 0
M  V30 33 H 2.984120 -3.326800 8.026242 0
M  V30 34 H 1.237710 -3.523901 7.596807 0
M  V30 35 H 1.840311 -1.992633 8.273279 0
M  V30 36 H 4.407014 -2.294672 6.475595 0
M  V30 37 H 3.630988 -0.768665 6.931651 0
M  V30 38 H 4.376793 -1.947616 4.248756 0
M  V30 39 H 4.659721 -0.301549 4.874508 0
M  V30 40 H 4.646690 -1.130494 2.403713 0
M  V30 41 H 4.516229 -0.960804 0.017170 0
M  V30 42 H 3.348273 -0.171166 -1.858231 0
M  V30 43 H 0.916015 0.432291 -5.556721 0
M  V30 44 H -7.310280 0.526557 -3.633119 0
M  V30 45 H -7.315885 0.529238 -3.642783 0
M  V30 46 H -0.751649 -2.075522 -0.531471 0
M  V30 47 H -1.564559 -0.812665 0.577419 0
M  V30 48 H -2.169822 -2.456520 0.432643 0
M  V30 49 H -4.762789 0.013269 -4.601637 0
M  V30 50 H -3.609739 1.307784 -4.292921 0
M  V30 51 H -2.740763 -1.550853 -4.943627 0
M  V30 52 H -3.359678 -0.450370 -6.271771 0
M  V30 53 H -0.932795 -0.198785 -6.315628 0
M  V30 54 H -1.685600 1.232093 -5.619302 0
M  V30 55 H 0.511837 0.221328 0.290477 0
M  V30 56 H 0.508535 0.074880 2.704258 0
M  V30 57 H 2.134807 0.260097 5.977844 0
M  V30 58 H 0.802658 0.234141 4.714822 0
M  V30 59 H 0.788540 -2.302130 4.933565 0
M  V30 60 H 0.444112 -1.503577 6.561973 0
M  V30 END ATOM
M  V30 BEGIN BOND
M  V30 1 1 1 2
M  V30 2 1 2 3
M  V30 3 1 3 4
M  V30 4 1 4 5
M  V30 5 1 5 6
M  V30 6 2 6 7
M  V30 7 1 7 8
M  V30 8 2 8 9
M  V30 9 1 9 10
M  V30 10 1 10 11
M  V30 11 2 11 12
M  V30 12 1 12 13
M  V30 13 2 13 14
M  V30 14 1 14 15
M  V30 15 2 15 16
M  V30 16 1 15 17
M  V30 17 2 17 18
M  V30 18 1 18 19
M  V30 19 1 19 20
M  V30 20 1 20 21
M  V30 21 2 20 22
M  V30 22 2 19 23
M  V30 23 1 23 24
M  V30 24 1 24 25
M  V30 25 1 18 26
M  V30 26 1 26 27
M  V30 27 1 27 28
M  V30 28 1 9 29
M  V30 29 2 29 30
M  V30 30 1 5 31
M  V30 31 1 31 32
M  V30 32 1 32 2
M  V30 33 1 30 6
M  V30 34 1 16 11
M  V30 35 1 24 17
M  V30 36 1 28 14
M  V30 37 1 1 33
M  V30 38 1 1 34
M  V30 39 1 1 35
M  V30 40 1 3 36
M  V30 41 1 3 37
M  V30 42 1 4 38
M  V30 43 1 4 39
M  V30 44 1 7 40
M  V30 45 1 8 41
M  V30 46 1 10 42
M  V30 47 1 13 43
M  V30 48 1 21 44
M  V30 49 1 21 45
M  V30 50 1 25 46
M  V30 51 1 25 47
M  V30 52 1 25 48
M  V30 53 1 26 49
M  V30 54 1 26 50
M  V30 55 1 27 51
M  V30 56 1 27 52
M  V30 57 1 28 53
M  V30 58 1 28 54
M  V30 59 1 29 55
M  V30 60 1 30 56
M  V30 61 1 31 57
M  V30 62 1 31 58
M  V30 63 1 32 59
M  V30 64 1 32 60
M  V30 END BOND
M  V30 END CTAB
M  END
>  <Dataset>  (112) 
ChEMBL_Kinases

>  <Ligand_Instance>  (112) 
nan

>  <PDB_ID>  (112) 
nan

>  <Standardized_SMILES>  (112) 
CN1CCN(c2ccc(Nc3ncc4c(n3)-c3c(c(C(N)=O)nn3C)CCC4)cc2)CC1

>  <Name>  (112) 
nan

>  <Pocket>  (112) 
nan

>  <ATP_Site>  (112) 
nan

>  <Peripheral>  (112) 
nan

>  <Num_H_Atoms_ProtBoundConf>  (112) 
nan

>  <Num_Resolved_Atoms>  (112) 
nan

>  <Num_Not_Resolved_Atoms>  (112) 
nan

$$$$
CHEMBL3414669
     RDKit          3D

  0  0  0  0  0  0  0  0  0  0999 V3000
M  V30 BEGIN CTAB
M  V30 COUNTS 48 49 0 0 0
M  V30 BEGIN ATOM
M  V30 1 C 3.054497 -3.629549 -1.596401 0
M  V30 2 C 1.950440 -3.347885 -0.641023 0
M  V30 3 C 1.975761 -3.928514 0.608884 0
M  V30 4 O 2.974930 -4.770351 1.044339 0
M  V30 5 C 0.945700 -3.673320 1.517082 0
M  V30 6 C -0.079484 -2.854009 1.168753 0
M  V30 7 C -0.083667 -2.284086 -0.087713 0
M  V30 8 C 0.924046 -2.514144 -1.019598 0
M  V30 9 C 0.943605 -1.913121 -2.378924 0
M  V30 10 O -1.125564 -1.445243 -0.455581 0
M  V30 11 C -1.713494 -0.512595 0.488672 0 CFG=2
M  V30 12 C -3.248683 -0.725629 0.375024 0
M  V30 13 C -1.356632 0.820587 -0.063993 0
M  V30 14 C -1.767597 2.029874 0.643609 0
M  V30 15 C -1.144116 2.417222 1.913103 0
M  V30 16 C 0.251768 2.940708 1.916019 0
M  V30 17 C 0.567348 3.226953 3.408211 0
M  V30 18 C 1.292791 2.016677 1.444389 0
M  V30 19 C -1.334314 -0.891206 1.857701 0
M  V30 20 C -1.256271 -2.448523 1.956783 0
M  V30 21 H 3.432485 -2.705782 -2.089098 0
M  V30 22 H 3.924672 -4.092904 -1.096272 0
M  V30 23 H 2.699180 -4.277846 -2.431075 0
M  V30 24 H 3.953445 -4.644452 0.898785 0
M  V30 25 H 0.878970 -4.081831 2.517420 0
M  V30 26 H -0.129049 -1.690733 -2.619595 0
M  V30 27 H 1.421943 -0.904966 -2.289482 0
M  V30 28 H 1.414763 -2.559430 -3.116044 0
M  V30 29 H -3.803007 0.144410 0.731135 0
M  V30 30 H -3.429410 -0.985844 -0.684082 0
M  V30 31 H -3.549803 -1.590344 0.992508 0
M  V30 32 H -1.734866 0.797535 -1.138149 0
M  V30 33 H -0.238857 0.817178 -0.223202 0
M  V30 34 H -2.903432 2.069451 0.698825 0
M  V30 35 H -1.579433 2.906145 -0.083416 0
M  V30 36 H -1.118275 1.566867 2.672735 0
M  V30 37 H -1.819326 3.204606 2.388251 0
M  V30 38 H 0.303330 3.946070 1.380149 0
M  V30 39 H -0.361051 3.429220 3.976143 0
M  V30 40 H 1.323624 4.020287 3.503307 0
M  V30 41 H 1.002504 2.293726 3.832216 0
M  V30 42 H 2.271454 2.236018 2.015508 0
M  V30 43 H 1.089206 0.983283 1.713557 0
M  V30 44 H 1.550074 2.134098 0.359853 0
M  V30 45 H -2.087222 -0.559466 2.617832 0
M  V30 46 H -0.319979 -0.605993 2.141095 0
M  V30 47 H -1.021255 -2.614697 3.032870 0
M  V30 48 H -2.197722 -2.915664 1.693616 0
M  V30 END ATOM
M  V30 BEGIN BOND
M  V30 1 1 1 2
M  V30 2 2 2 3
M  V30 3 1 3 4
M  V30 4 1 3 5
M  V30 5 2 5 6
M  V30 6 1 6 7
M  V30 7 2 7 8
M  V30 8 1 8 9
M  V30 9 1 7 10
M  V30 10 1 10 11
M  V30 11 1 11 12 CFG=1
M  V30 12 1 11 13
M  V30 13 1 13 14
M  V30 14 1 14 15
M  V30 15 1 15 16
M  V30 16 1 16 17
M  V30 17 1 16 18
M  V30 18 1 11 19
M  V30 19 1 19 20
M  V30 20 1 8 2
M  V30 21 1 20 6
M  V30 22 1 1 21
M  V30 23 1 1 22
M  V30 24 1 1 23
M  V30 25 1 4 24
M  V30 26 1 5 25
M  V30 27 1 9 26
M  V30 28 1 9 27
M  V30 29 1 9 28
M  V30 30 1 12 29
M  V30 31 1 12 30
M  V30 32 1 12 31
M  V30 33 1 13 32
M  V30 34 1 13 33
M  V30 35 1 14 34
M  V30 36 1 14 35
M  V30 37 1 15 36
M  V30 38 1 15 37
M  V30 39 1 16 38
M  V30 40 1 17 39
M  V30 41 1 17 40
M  V30 42 1 17 41
M  V30 43 1 18 42
M  V30 44 1 18 43
M  V30 45 1 18 44
M  V30 46 1 19 45
M  V30 47 1 19 46
M  V30 48 1 20 47
M  V30 49 1 20 48
M  V30 END BOND
M  V30 END CTAB
M  END
>  <Dataset>  (113) 
ChEMBL_Kinases

>  <Ligand_Instance>  (113) 
nan

>  <PDB_ID>  (113) 
nan

>  <Standardized_SMILES>  (113) 
Cc1c(O)cc2c(c1C)O[C@](C)(CCCC(C)C)CC2

>  <Name>  (113) 
nan

>  <Pocket>  (113) 
nan

>  <ATP_Site>  (113) 
nan

>  <Peripheral>  (113) 
nan

>  <Num_H_Atoms_ProtBoundConf>  (113) 
nan

>  <Num_Resolved_Atoms>  (113) 
nan

>  <Num_Not_Resolved_Atoms>  (113) 
nan

$$$$
CHEMBL4092706
     RDKit          3D

  0  0  0  0  0  0  0  0  0  0999 V3000
M  V30 BEGIN CTAB
M  V30 COUNTS 44 47 0 0 0
M  V30 BEGIN ATOM
M  V30 1 N 2.034929 -4.793053 2.914961 0
M  V30 2 C 2.303728 -4.993545 1.527346 0
M  V30 3 O 2.904993 -6.030770 1.138612 0
M  V30 4 C 1.860883 -3.962536 0.581983 0
M  V30 5 C 2.114188 -4.142237 -0.768741 0
M  V30 6 C 1.686130 -3.154444 -1.642226 0
M  V30 7 Cl 1.980106 -3.329929 -3.362110 0
M  V30 8 C 1.027061 -2.029070 -1.162516 0
M  V30 9 C 0.492632 -0.903833 -1.754719 0
M  V30 10 Cl 0.558746 -0.648655 -3.500538 0
M  V30 11 C -0.060321 -0.087837 -0.761165 0
M  V30 12 C -0.694785 1.174778 -1.116621 0
M  V30 13 C 0.009612 1.970601 -2.028216 0
M  V30 14 C -0.435396 3.189571 -2.477618 0
M  V30 15 C -1.636140 3.678143 -2.022487 0
M  V30 16 C -2.333666 2.906709 -1.129708 0
M  V30 17 C -1.895456 1.683843 -0.673785 0
M  V30 18 N 0.149829 -0.731569 0.400689 0
M  V30 19 C -0.287715 -0.188602 1.673291 0
M  V30 20 C 0.339186 -1.018067 2.775151 0
M  V30 21 C 0.076500 -0.367874 4.126218 0
M  V30 22 C 0.419233 1.105893 4.088213 0
M  V30 23 N 1.132055 1.354157 2.862993 0
M  V30 24 C 0.157508 1.258005 1.793534 0
M  V30 25 C 0.796598 -1.892536 0.190821 0
M  V30 26 N 1.219194 -2.856390 1.000872 0
M  V30 27 H 2.572359 -5.048133 3.768402 0
M  V30 28 H 1.153528 -4.307922 3.177574 0
M  V30 29 H 2.628481 -5.024307 -1.125014 0
M  V30 30 H 0.971052 1.637721 -2.427380 0
M  V30 31 H 0.146698 3.769733 -3.184790 0
M  V30 32 H -2.046256 4.620250 -2.328677 0
M  V30 33 H -3.296503 3.272237 -0.749126 0
M  V30 34 H -2.417511 1.063014 0.019288 0
M  V30 35 H -1.388864 -0.197393 1.773688 0
M  V30 36 H 1.420897 -1.065128 2.622663 0
M  V30 37 H -0.168752 -2.001835 2.735577 0
M  V30 38 H 0.722184 -0.873324 4.858824 0
M  V30 39 H -0.981902 -0.554152 4.406976 0
M  V30 40 H -0.550786 1.651381 4.018613 0
M  V30 41 H 1.030874 1.436830 4.951948 0
M  V30 42 H 1.687680 2.213468 2.857134 0
M  V30 43 H -0.693047 1.954521 1.949587 0
M  V30 44 H 0.688121 1.591467 0.878067 0
M  V30 END ATOM
M  V30 BEGIN BOND
M  V30 1 1 1 2
M  V30 2 2 2 3
M  V30 3 1 2 4
M  V30 4 2 4 5
M  V30 5 1 5 6
M  V30 6 1 6 7
M  V30 7 2 6 8
M  V30 8 1 8 9
M  V30 9 1 9 10
M  V30 10 2 9 11
M  V30 11 1 11 12
M  V30 12 2 12 13
M  V30 13 1 13 14
M  V30 14 2 14 15
M  V30 15 1 15 16
M  V30 16 2 16 17
M  V30 17 1 11 18
M  V30 18 1 18 19
M  V30 19 1 19 20
M  V30 20 1 20 21
M  V30 21 1 21 22
M  V30 22 1 22 23
M  V30 23 1 23 24
M  V30 24 1 18 25
M  V30 25 2 25 26
M  V30 26 1 26 4
M  V30 27 1 25 8
M  V30 28 1 17 12
M  V30 29 1 24 19
M  V30 30 1 1 27
M  V30 31 1 1 28
M  V30 32 1 5 29
M  V30 33 1 13 30
M  V30 34 1 14 31
M  V30 35 1 15 32
M  V30 36 1 16 33
M  V30 37 1 17 34
M  V30 38 1 19 35
M  V30 39 1 20 36
M  V30 40 1 20 37
M  V30 41 1 21 38
M  V30 42 1 21 39
M  V30 43 1 22 40
M  V30 44 1 22 41
M  V30 45 1 23 42
M  V30 46 1 24 43
M  V30 47 1 24 44
M  V30 END BOND
M  V30 END CTAB
M  END
>  <Dataset>  (114) 
ChEMBL_Kinases

>  <Ligand_Instance>  (114) 
nan

>  <PDB_ID>  (114) 
nan

>  <Standardized_SMILES>  (114) 
NC(=O)c1cc(Cl)c2c(Cl)c(-c3ccccc3)n(C3CCCNC3)c2n1

>  <Name>  (114) 
nan

>  <Pocket>  (114) 
nan

>  <ATP_Site>  (114) 
nan

>  <Peripheral>  (114) 
nan

>  <Num_H_Atoms_ProtBoundConf>  (114) 
nan

>  <Num_Resolved_Atoms>  (114) 
nan

>  <Num_Not_Resolved_Atoms>  (114) 
nan

$$$$
CHEMBL3799983
     RDKit          3D

  0  0  0  0  0  0  0  0  0  0999 V3000
M  V30 BEGIN CTAB
M  V30 COUNTS 47 50 0 0 0
M  V30 BEGIN ATOM
M  V30 1 O 3.321974 0.072262 2.632399 0
M  V30 2 C 2.155860 -0.052945 2.199606 0
M  V30 3 N 1.683358 0.730415 1.122252 0
M  V30 4 C 2.531216 1.704238 0.482280 0
M  V30 5 C 1.991794 3.107480 0.505673 0
M  V30 6 O 2.918704 3.932089 -0.148433 0
M  V30 7 C 2.690889 1.353856 -0.954805 0
M  V30 8 C 3.904488 1.377364 -1.609832 0
M  V30 9 C 3.961283 1.038380 -2.940218 0
M  V30 10 C 2.849381 0.663327 -3.691138 0
M  V30 11 C 1.660896 0.646384 -3.026434 0
M  V30 12 Cl 0.243839 0.171757 -3.970619 0
M  V30 13 C 1.564799 0.981701 -1.685939 0
M  V30 14 C 1.315615 -1.030993 2.847852 0
M  V30 15 C 1.804322 -1.784385 3.900717 0
M  V30 16 C 1.086608 -2.745005 4.589829 0
M  V30 17 C -0.221589 -2.955409 4.179919 0
M  V30 18 N -1.175805 -3.790441 4.617982 0
M  V30 19 N -2.271710 -3.632004 3.912645 0
M  V30 20 C -2.083459 -2.671834 2.966025 0
M  V30 21 C -3.034322 -2.183125 1.974211 0
M  V30 22 C -3.283485 -0.868413 1.638878 0
M  V30 23 C -4.226063 -0.567459 0.667379 0
M  V30 24 C -4.913700 -1.593595 0.037839 0
M  V30 25 O -5.851552 -1.226924 -0.933063 0
M  V30 26 C -4.681674 -2.923523 0.356827 0
M  V30 27 F -5.372098 -3.893129 -0.279126 0
M  V30 28 C -3.736095 -3.196548 1.329582 0
M  V30 29 C -0.787225 -2.238678 3.129212 0
M  V30 30 C 0.000759 -1.295321 2.493009 0
M  V30 31 H 0.713013 0.644071 0.742819 0
M  V30 32 H 3.546456 1.742832 0.935214 0
M  V30 33 H 1.874362 3.533767 1.509794 0
M  V30 34 H 1.029106 3.230800 -0.017327 0
M  V30 35 H 3.851011 3.607461 -0.021708 0
M  V30 36 H 4.793283 1.661593 -1.069081 0
M  V30 37 H 4.915203 1.053445 -3.468155 0
M  V30 38 H 2.972377 0.411486 -4.729099 0
M  V30 39 H 0.566806 0.929485 -1.272939 0
M  V30 40 H 2.823904 -1.631087 4.231753 0
M  V30 41 H 1.493056 -3.311375 5.400364 0
M  V30 42 H -1.038135 -4.460253 5.409412 0
M  V30 43 H -2.702704 -0.134743 2.179047 0
M  V30 44 H -4.355333 0.487244 0.469714 0
M  V30 45 H -5.914927 -1.829344 -1.758878 0
M  V30 46 H -3.591195 -4.258401 1.543494 0
M  V30 47 H -0.433205 -0.750771 1.692663 0
M  V30 END ATOM
M  V30 BEGIN BOND
M  V30 1 2 1 2
M  V30 2 1 2 3
M  V30 3 1 3 4
M  V30 4 1 4 5
M  V30 5 1 5 6
M  V30 6 1 4 7
M  V30 7 2 7 8
M  V30 8 1 8 9
M  V30 9 2 9 10
M  V30 10 1 10 11
M  V30 11 1 11 12
M  V30 12 2 11 13
M  V30 13 1 2 14
M  V30 14 2 14 15
M  V30 15 1 15 16
M  V30 16 2 16 17
M  V30 17 1 17 18
M  V30 18 1 18 19
M  V30 19 2 19 20
M  V30 20 1 20 21
M  V30 21 2 21 22
M  V30 22 1 22 23
M  V30 23 2 23 24
M  V30 24 1 24 25
M  V30 25 1 24 26
M  V30 26 1 26 27
M  V30 27 2 26 28
M  V30 28 1 20 29
M  V30 29 2 29 30
M  V30 30 1 13 7
M  V30 31 1 30 14
M  V30 32 1 29 17
M  V30 33 1 28 21
M  V30 34 1 3 31
M  V30 35 1 4 32
M  V30 36 1 5 33
M  V30 37 1 5 34
M  V30 38 1 6 35
M  V30 39 1 8 36
M  V30 40 1 9 37
M  V30 41 1 10 38
M  V30 42 1 13 39
M  V30 43 1 15 40
M  V30 44 1 16 41
M  V30 45 1 18 42
M  V30 46 1 22 43
M  V30 47 1 23 44
M  V30 48 1 25 45
M  V30 49 1 28 46
M  V30 50 1 30 47
M  V30 END BOND
M  V30 END CTAB
M  END
>  <Dataset>  (115) 
ChEMBL_Kinases

>  <Ligand_Instance>  (115) 
nan

>  <PDB_ID>  (115) 
nan

>  <Standardized_SMILES>  (115) 
O=C(NC(CO)c1cccc(Cl)c1)c1ccc2[nH]nc(-c3ccc(O)c(F)c3)c2c1

>  <Name>  (115) 
nan

>  <Pocket>  (115) 
nan

>  <ATP_Site>  (115) 
nan

>  <Peripheral>  (115) 
nan

>  <Num_H_Atoms_ProtBoundConf>  (115) 
nan

>  <Num_Resolved_Atoms>  (115) 
nan

>  <Num_Not_Resolved_Atoms>  (115) 
nan

$$$$
CHEMBL3666717
     RDKit          3D

  0  0  0  0  0  0  0  0  0  0999 V3000
M  V30 BEGIN CTAB
M  V30 COUNTS 49 53 0 0 0
M  V30 BEGIN ATOM
M  V30 1 N 2.434856 -5.410101 4.194201 0
M  V30 2 C 3.063811 -4.713757 3.107650 0
M  V30 3 O 2.403211 -5.072268 2.102640 0
M  V30 4 C 4.168988 -3.924897 3.719146 0
M  V30 5 O 4.828911 -3.205677 2.719475 0
M  V30 6 C 4.172252 -2.267735 1.948290 0
M  V30 7 C 5.014332 -1.666900 1.011370 0
M  V30 8 C 4.316722 -0.721890 0.244682 0
M  V30 9 C 2.955208 -0.427806 0.399125 0
M  V30 10 C 2.214203 -1.106083 1.376196 0
M  V30 11 C 0.794788 -0.800429 1.436336 0
M  V30 12 N 0.139961 0.171178 0.791776 0
M  V30 13 C -1.177095 0.355324 0.862052 0
M  V30 14 N -1.833857 1.406128 0.180177 0
M  V30 15 C -1.936496 1.953330 -1.112941 0
M  V30 16 C -0.771272 2.396470 -1.728941 0
M  V30 17 C -0.772469 2.933558 -3.002379 0
M  V30 18 C -1.947763 3.049475 -3.713971 0
M  V30 19 N -2.316075 3.509072 -4.940851 0
M  V30 20 N -3.630101 3.372228 -5.105323 0
M  V30 21 C -4.158754 2.815363 -3.981684 0
M  V30 22 C -3.110531 2.604649 -3.093705 0
M  V30 23 C -3.150809 2.058484 -1.813539 0
M  V30 24 C -1.916412 -0.518753 1.653305 0
M  V30 25 C -3.285552 -0.407622 1.766544 0
M  V30 26 C -3.957321 -1.333900 2.572351 0
M  V30 27 C -3.358706 -2.351227 3.264305 0
M  V30 28 C -1.995513 -2.416512 3.116304 0
M  V30 29 C -1.242748 -1.550839 2.343493 0
M  V30 30 N 0.093408 -1.666464 2.219408 0
M  V30 31 C 2.868292 -2.033122 2.145256 0
M  V30 32 H 1.817939 -5.967760 4.803095 0
M  V30 33 H 2.434161 -5.680583 5.185227 0
M  V30 34 H 4.900724 -4.663554 4.196665 0
M  V30 35 H 3.787951 -3.289080 4.536614 0
M  V30 36 H 6.054994 -1.826862 0.823757 0
M  V30 37 H 4.905480 -0.195724 -0.521346 0
M  V30 38 H 2.590866 0.327229 -0.283244 0
M  V30 39 H -2.373360 1.930184 0.899616 0
M  V30 40 H 0.183178 2.325355 -1.199961 0
M  V30 41 H 0.153713 3.266957 -3.455134 0
M  V30 42 H -1.558674 3.890846 -5.553626 0
M  V30 43 H -5.206311 2.563179 -3.772014 0
M  V30 44 H -4.022043 1.707505 -1.322065 0
M  V30 45 H -3.772450 0.370457 1.235722 0
M  V30 46 H -5.037423 -1.173050 2.611932 0
M  V30 47 H -3.927846 -3.033689 3.873771 0
M  V30 48 H -1.473587 -3.211759 3.643994 0
M  V30 49 H 2.228121 -2.476380 2.861847 0
M  V30 END ATOM
M  V30 BEGIN BOND
M  V30 1 1 1 2
M  V30 2 2 2 3
M  V30 3 1 2 4
M  V30 4 1 4 5
M  V30 5 1 5 6
M  V30 6 2 6 7
M  V30 7 1 7 8
M  V30 8 2 8 9
M  V30 9 1 9 10
M  V30 10 1 10 11
M  V30 11 2 11 12
M  V30 12 1 12 13
M  V30 13 1 13 14
M  V30 14 1 14 15
M  V30 15 2 15 16
M  V30 16 1 16 17
M  V30 17 2 17 18
M  V30 18 1 18 19
M  V30 19 1 19 20
M  V30 20 2 20 21
M  V30 21 1 21 22
M  V30 22 2 22 23
M  V30 23 2 13 24
M  V30 24 1 24 25
M  V30 25 2 25 26
M  V30 26 1 26 27
M  V30 27 2 27 28
M  V30 28 1 28 29
M  V30 29 2 29 30
M  V30 30 2 10 31
M  V30 31 1 31 6
M  V30 32 1 30 11
M  V30 33 1 23 15
M  V30 34 1 29 24
M  V30 35 1 22 18
M  V30 36 1 1 32
M  V30 37 1 1 33
M  V30 38 1 4 34
M  V30 39 1 4 35
M  V30 40 1 7 36
M  V30 41 1 8 37
M  V30 42 1 9 38
M  V30 43 1 14 39
M  V30 44 1 16 40
M  V30 45 1 17 41
M  V30 46 1 19 42
M  V30 47 1 21 43
M  V30 48 1 23 44
M  V30 49 1 25 45
M  V30 50 1 26 46
M  V30 51 1 27 47
M  V30 52 1 28 48
M  V30 53 1 31 49
M  V30 END BOND
M  V30 END CTAB
M  END
>  <Dataset>  (116) 
ChEMBL_Kinases

>  <Ligand_Instance>  (116) 
nan

>  <PDB_ID>  (116) 
nan

>  <Standardized_SMILES>  (116) 
NC(=O)COc1cccc(-c2nc(Nc3ccc4[nH]ncc4c3)c3ccccc3n2)c1

>  <Name>  (116) 
nan

>  <Pocket>  (116) 
nan

>  <ATP_Site>  (116) 
nan

>  <Peripheral>  (116) 
nan

>  <Num_H_Atoms_ProtBoundConf>  (116) 
nan

>  <Num_Resolved_Atoms>  (116) 
nan

>  <Num_Not_Resolved_Atoms>  (116) 
nan

$$$$
CHEMBL4092555
     RDKit          3D

  0  0  0  0  0  0  0  0  0  0999 V3000
M  V30 BEGIN CTAB
M  V30 COUNTS 72 76 0 0 0
M  V30 BEGIN ATOM
M  V30 1 C 7.378962 -4.306475 7.382281 0
M  V30 2 C 6.259616 -3.617101 7.302256 0
M  V30 3 C 5.206732 -3.869109 6.327012 0
M  V30 4 O 4.121613 -3.198170 6.252661 0
M  V30 5 N 5.244756 -4.895383 5.327062 0
M  V30 6 C 4.025618 -4.817781 4.567934 0
M  V30 7 C 2.957756 -5.561391 5.014489 0
M  V30 8 C 1.783333 -5.493615 4.296051 0
M  V30 9 C 1.715351 -4.699711 3.175355 0
M  V30 10 C 2.760013 -3.939512 2.693557 0
M  V30 11 C 2.722939 -3.091723 1.519999 0
M  V30 12 O 3.768133 -2.480967 1.205108 0
M  V30 13 N 1.581094 -2.909340 0.706835 0
M  V30 14 C 1.416357 -2.117437 -0.454018 0
M  V30 15 C 2.362540 -1.337614 -1.070503 0
M  V30 16 C 2.135298 -0.584517 -2.200883 0
M  V30 17 C 0.896609 -0.584624 -2.781422 0
M  V30 18 N 0.664602 0.186586 -3.948781 0
M  V30 19 C -0.251979 1.256521 -4.115234 0
M  V30 20 C -1.058537 1.782977 -3.159837 0
M  V30 21 C -1.942042 2.823049 -3.366774 0
M  V30 22 C -2.755686 3.293827 -2.230466 0
M  V30 23 C -4.087374 3.393438 -1.901222 0
M  V30 24 C -5.064512 2.931052 -2.880825 0
M  V30 25 C -5.894430 3.973294 -3.281141 0
M  V30 26 C -6.903909 3.741964 -4.217208 0
M  V30 27 C -7.062509 2.458369 -4.738071 0
M  V30 28 F -8.033797 2.188976 -5.652540 0
M  V30 29 C -6.221133 1.427214 -4.324667 0
M  V30 30 C -5.225600 1.663336 -3.399092 0
M  V30 31 N -4.153478 3.937532 -0.653930 0
M  V30 32 C -2.895959 4.169191 -0.221099 0
M  V30 33 S -2.664810 4.885492 1.399226 0
M  V30 34 C -2.540261 3.575381 2.665884 0
M  V30 35 N -2.037421 3.770452 -1.197099 0
M  V30 36 C -0.601207 3.933736 -0.933857 0
M  V30 37 C -2.020011 3.380229 -4.643951 0
M  V30 38 C -1.179313 2.822111 -5.613951 0
M  V30 39 N -0.343464 1.807893 -5.336378 0
M  V30 40 C -0.081324 -1.356475 -2.191266 0
M  V30 41 C -1.452073 -1.413007 -2.771402 0
M  V30 42 C 0.180773 -2.097362 -1.061013 0
M  V30 43 C 3.903447 -4.049659 3.453401 0
M  V30 44 H 7.616530 -5.117022 6.735143 0
M  V30 45 H 8.100042 -4.049590 8.134503 0
M  V30 46 H 6.058974 -2.800413 7.980782 0
M  V30 47 H 6.102476 -5.509506 5.301603 0
M  V30 48 H 3.019637 -6.182337 5.895889 0
M  V30 49 H 0.934205 -6.077687 4.640650 0
M  V30 50 H 0.770688 -4.684783 2.651295 0
M  V30 51 H 0.771675 -3.458690 1.054875 0
M  V30 52 H 3.342652 -1.290804 -0.675015 0
M  V30 53 H 2.920374 0.012285 -2.644152 0
M  V30 54 H 1.276556 -0.145384 -4.697436 0
M  V30 55 H -1.008817 1.365978 -2.163287 0
M  V30 56 H -5.857894 5.003380 -2.940853 0
M  V30 57 H -7.587748 4.514424 -4.572861 0
M  V30 58 H -6.307103 0.398970 -4.706473 0
M  V30 59 H -4.520441 0.936992 -3.011372 0
M  V30 60 H -2.693532 2.569739 2.201616 0
M  V30 61 H -1.552269 3.657604 3.130922 0
M  V30 62 H -3.322401 3.788874 3.423076 0
M  V30 63 H -0.390477 4.871797 -0.406524 0
M  V30 64 H -0.215260 3.017806 -0.428898 0
M  V30 65 H -0.031610 3.959779 -1.907653 0
M  V30 66 H -2.706519 4.189271 -4.808388 0
M  V30 67 H -1.232579 3.248470 -6.609686 0
M  V30 68 H -1.839798 -2.473880 -2.752184 0
M  V30 69 H -2.114879 -0.768201 -2.151055 0
M  V30 70 H -1.428779 -1.017695 -3.796817 0
M  V30 71 H -0.644083 -2.692910 -0.638381 0
M  V30 72 H 4.794319 -3.499792 3.177276 0
M  V30 END ATOM
M  V30 BEGIN BOND
M  V30 1 2 1 2
M  V30 2 1 2 3
M  V30 3 2 3 4
M  V30 4 1 3 5
M  V30 5 1 5 6
M  V30 6 2 6 7
M  V30 7 1 7 8
M  V30 8 2 8 9
M  V30 9 1 9 10
M  V30 10 1 10 11
M  V30 11 2 11 12
M  V30 12 1 11 13
M  V30 13 1 13 14
M  V30 14 2 14 15
M  V30 15 1 15 16
M  V30 16 2 16 17
M  V30 17 1 17 18
M  V30 18 1 18 19
M  V30 19 2 19 20
M  V30 20 1 20 21
M  V30 21 1 21 22
M  V30 22 2 22 23
M  V30 23 1 23 24
M  V30 24 2 24 25
M  V30 25 1 25 26
M  V30 26 2 26 27
M  V30 27 1 27 28
M  V30 28 1 27 29
M  V30 29 2 29 30
M  V30 30 1 23 31
M  V30 31 2 31 32
M  V30 32 1 32 33
M  V30 33 1 33 34
M  V30 34 1 32 35
M  V30 35 1 35 36
M  V30 36 2 21 37
M  V30 37 1 37 38
M  V30 38 2 38 39
M  V30 39 1 17 40
M  V30 40 1 40 41
M  V30 41 2 40 42
M  V30 42 2 10 43
M  V30 43 1 43 6
M  V30 44 1 42 14
M  V30 45 1 39 19
M  V30 46 1 35 22
M  V30 47 1 30 24
M  V30 48 1 1 44
M  V30 49 1 1 45
M  V30 50 1 2 46
M  V30 51 1 5 47
M  V30 52 1 7 48
M  V30 53 1 8 49
M  V30 54 1 9 50
M  V30 55 1 13 51
M  V30 56 1 15 52
M  V30 57 1 16 53
M  V30 58 1 18 54
M  V30 59 1 20 55
M  V30 60 1 25 56
M  V30 61 1 26 57
M  V30 62 1 29 58
M  V30 63 1 30 59
M  V30 64 1 34 60
M  V30 65 1 34 61
M  V30 66 1 34 62
M  V30 67 1 36 63
M  V30 68 1 36 64
M  V30 69 1 36 65
M  V30 70 1 37 66
M  V30 71 1 38 67
M  V30 72 1 41 68
M  V30 73 1 41 69
M  V30 74 1 41 70
M  V30 75 1 42 71
M  V30 76 1 43 72
M  V30 END BOND
M  V30 END CTAB
M  END
>  <Dataset>  (117) 
ChEMBL_Kinases

>  <Ligand_Instance>  (117) 
nan

>  <PDB_ID>  (117) 
nan

>  <Standardized_SMILES>  (117) 
C=CC(=O)Nc1cccc(C(=O)Nc2ccc(Nc3cc(-c4c(-c5ccc(F)cc5)nc(SC)n4C)ccn3)c(C)c2)c1

>  <Name>  (117) 
nan

>  <Pocket>  (117) 
nan

>  <ATP_Site>  (117) 
nan

>  <Peripheral>  (117) 
nan

>  <Num_H_Atoms_ProtBoundConf>  (117) 
nan

>  <Num_Resolved_Atoms>  (117) 
nan

>  <Num_Not_Resolved_Atoms>  (117) 
nan

$$$$
CHEMBL3416305
     RDKit          3D

  0  0  0  0  0  0  0  0  0  0999 V3000
M  V30 BEGIN CTAB
M  V30 COUNTS 37 39 0 0 0
M  V30 BEGIN ATOM
M  V30 1 C -0.176348 -5.186143 1.697004 0
M  V30 2 C 1.158986 -4.574143 1.890582 0
M  V30 3 O 2.185383 -5.163746 2.356867 0
M  V30 4 C 1.421546 -3.182276 1.547759 0
M  V30 5 C 2.597918 -2.594182 1.703380 0
M  V30 6 O 3.682085 -3.340069 2.211144 0
M  V30 7 C 2.872103 -1.202299 1.408617 0
M  V30 8 C 1.838682 -0.504601 0.989229 0
M  V30 9 O 1.784718 0.826352 0.600122 0
M  V30 10 C 0.555263 1.046474 -0.056340 0
M  V30 11 C -0.000034 2.168736 -0.686769 0
M  V30 12 C 0.745195 3.421979 -0.694226 0
M  V30 13 N 0.209356 4.559264 -1.319355 0
M  V30 14 O 1.864490 3.407209 -0.118641 0
M  V30 15 C -1.257482 2.069524 -1.297622 0
M  V30 16 O -1.819185 3.183101 -1.929012 0
M  V30 17 C -1.965859 0.860803 -1.284793 0
M  V30 18 C -1.430952 -0.274156 -0.655028 0
M  V30 19 O -2.201865 -1.417902 -0.694112 0
M  V30 20 C -0.197646 -0.109635 -0.071934 0
M  V30 21 C 0.461787 -0.995086 0.864359 0 CFG=2
M  V30 22 C -0.111442 -0.585752 2.314403 0
M  V30 23 C 0.374129 -2.416416 0.811067 0
M  V30 24 O -0.475605 -3.135376 0.220959 0
M  V30 25 H -0.933723 -4.562899 2.218596 0
M  V30 26 H -0.424195 -5.431617 0.658485 0
M  V30 27 H -0.112266 -6.184442 2.221747 0
M  V30 28 H 3.704758 -3.385955 3.237267 0
M  V30 29 H 3.864074 -0.768907 1.527165 0
M  V30 30 H 0.150402 4.758212 -2.355429 0
M  V30 31 H -0.116905 5.162257 -0.527550 0
M  V30 32 H -2.412658 3.797058 -1.351000 0
M  V30 33 H -2.933339 0.861495 -1.783009 0
M  V30 34 H -2.816988 -1.573221 0.096596 0
M  V30 35 H 0.051168 0.500972 2.328604 0
M  V30 36 H -1.139120 -0.905922 2.379498 0
M  V30 37 H 0.601216 -1.085116 2.984340 0
M  V30 END ATOM
M  V30 BEGIN BOND
M  V30 1 1 1 2
M  V30 2 2 2 3
M  V30 3 1 2 4
M  V30 4 2 4 5
M  V30 5 1 5 6
M  V30 6 1 5 7
M  V30 7 2 7 8
M  V30 8 1 8 9
M  V30 9 1 9 10
M  V30 10 2 10 11
M  V30 11 1 11 12
M  V30 12 1 12 13
M  V30 13 2 12 14
M  V30 14 1 11 15
M  V30 15 1 15 16
M  V30 16 2 15 17
M  V30 17 1 17 18
M  V30 18 1 18 19
M  V30 19 2 18 20
M  V30 20 1 20 21
M  V30 21 1 21 22 CFG=1
M  V30 22 1 21 23
M  V30 23 2 23 24
M  V30 24 1 23 4
M  V30 25 1 21 8
M  V30 26 1 20 10
M  V30 27 1 1 25
M  V30 28 1 1 26
M  V30 29 1 1 27
M  V30 30 1 6 28
M  V30 31 1 7 29
M  V30 32 1 13 30
M  V30 33 1 13 31
M  V30 34 1 16 32
M  V30 35 1 17 33
M  V30 36 1 19 34
M  V30 37 1 22 35
M  V30 38 1 22 36
M  V30 39 1 22 37
M  V30 END BOND
M  V30 END CTAB
M  END
>  <Dataset>  (118) 
ChEMBL_Kinases

>  <Ligand_Instance>  (118) 
nan

>  <PDB_ID>  (118) 
nan

>  <Standardized_SMILES>  (118) 
CC(=O)C1=C(O)C=C2Oc3c(C(N)=O)c(O)cc(O)c3[C@@]2(C)C1=O

>  <Name>  (118) 
nan

>  <Pocket>  (118) 
nan

>  <ATP_Site>  (118) 
nan

>  <Peripheral>  (118) 
nan

>  <Num_H_Atoms_ProtBoundConf>  (118) 
nan

>  <Num_Resolved_Atoms>  (118) 
nan

>  <Num_Not_Resolved_Atoms>  (118) 
nan

$$$$
CHEMBL3800134
     RDKit          3D

  0  0  0  0  0  0  0  0  0  0999 V3000
M  V30 BEGIN CTAB
M  V30 COUNTS 45 48 0 0 0
M  V30 BEGIN ATOM
M  V30 1 O 0.710430 -1.549135 -0.366786 0
M  V30 2 C 0.465127 -0.400132 0.061572 0
M  V30 3 N 1.359186 0.565341 -0.505538 0
M  V30 4 C 2.407891 0.299369 -1.440540 0
M  V30 5 C 2.006221 0.940018 -2.773435 0
M  V30 6 O 1.826583 2.300012 -2.683971 0
M  V30 7 C 3.751383 0.706504 -1.036014 0
M  V30 8 C 3.931905 1.959418 -0.466237 0
M  V30 9 C 5.189974 2.391577 -0.065519 0
M  V30 10 C 6.310913 1.582539 -0.222127 0
M  V30 11 C 6.136525 0.334463 -0.788778 0
M  V30 12 Cl 7.534608 -0.713829 -1.000997 0
M  V30 13 C 4.882507 -0.090454 -1.185689 0
M  V30 14 C -0.560521 0.014113 1.005733 0
M  V30 15 C -0.808447 1.292718 1.461027 0
M  V30 16 C -1.829413 1.508870 2.363072 0
M  V30 17 C -2.626171 0.496876 2.839535 0
M  V30 18 N -3.658720 0.392176 3.689526 0
M  V30 19 N -4.071924 -0.867120 3.795106 0
M  V30 20 C -3.284112 -1.585719 2.992731 0
M  V30 21 C -3.470627 -3.024911 2.872650 0
M  V30 22 C -3.467354 -3.685973 1.663494 0
M  V30 23 C -3.647093 -5.065637 1.560742 0
M  V30 24 N -3.829125 -5.760602 2.696170 0
M  V30 25 C -3.841147 -5.160699 3.910916 0
M  V30 26 C -3.662725 -3.779492 4.033466 0
M  V30 27 C -2.360309 -0.754387 2.374392 0
M  V30 28 C -1.359978 -1.027191 1.478822 0
M  V30 29 H 1.311701 1.586644 -0.268475 0
M  V30 30 H 2.375441 -0.809935 -1.627513 0
M  V30 31 H 2.799081 0.750735 -3.551337 0
M  V30 32 H 1.100786 0.457123 -3.185915 0
M  V30 33 H 0.855981 2.547570 -2.739539 0
M  V30 34 H 3.103498 2.647952 -0.311513 0
M  V30 35 H 5.288003 3.382692 0.377557 0
M  V30 36 H 7.293700 1.897155 0.081015 0
M  V30 37 H 4.767343 -1.083549 -1.632544 0
M  V30 38 H -0.159779 2.060724 1.062340 0
M  V30 39 H -1.998600 2.519953 2.700470 0
M  V30 40 H -4.081296 1.197859 4.200887 0
M  V30 41 H -3.323121 -3.142276 0.751406 0
M  V30 42 H -3.641097 -5.564124 0.603176 0
M  V30 43 H -3.994875 -5.786939 4.800458 0
M  V30 44 H -3.675019 -3.308352 5.024421 0
M  V30 45 H -1.228499 -2.044949 1.171931 0
M  V30 END ATOM
M  V30 BEGIN BOND
M  V30 1 2 1 2
M  V30 2 1 2 3
M  V30 3 1 3 4
M  V30 4 1 4 5
M  V30 5 1 5 6
M  V30 6 1 4 7
M  V30 7 2 7 8
M  V30 8 1 8 9
M  V30 9 2 9 10
M  V30 10 1 10 11
M  V30 11 1 11 12
M  V30 12 2 11 13
M  V30 13 1 2 14
M  V30 14 2 14 15
M  V30 15 1 15 16
M  V30 16 2 16 17
M  V30 17 1 17 18
M  V30 18 1 18 19
M  V30 19 2 19 20
M  V30 20 1 20 21
M  V30 21 2 21 22
M  V30 22 1 22 23
M  V30 23 2 23 24
M  V30 24 1 24 25
M  V30 25 2 25 26
M  V30 26 1 20 27
M  V30 27 2 27 28
M  V30 28 1 13 7
M  V30 29 1 28 14
M  V30 30 1 27 17
M  V30 31 1 26 21
M  V30 32 1 3 29
M  V30 33 1 4 30
M  V30 34 1 5 31
M  V30 35 1 5 32
M  V30 36 1 6 33
M  V30 37 1 8 34
M  V30 38 1 9 35
M  V30 39 1 10 36
M  V30 40 1 13 37
M  V30 41 1 15 38
M  V30 42 1 16 39
M  V30 43 1 18 40
M  V30 44 1 22 41
M  V30 45 1 23 42
M  V30 46 1 25 43
M  V30 47 1 26 44
M  V30 48 1 28 45
M  V30 END BOND
M  V30 END CTAB
M  END
>  <Dataset>  (119) 
ChEMBL_Kinases

>  <Ligand_Instance>  (119) 
nan

>  <PDB_ID>  (119) 
nan

>  <Standardized_SMILES>  (119) 
O=C(NC(CO)c1cccc(Cl)c1)c1ccc2[nH]nc(-c3ccncc3)c2c1

>  <Name>  (119) 
nan

>  <Pocket>  (119) 
nan

>  <ATP_Site>  (119) 
nan

>  <Peripheral>  (119) 
nan

>  <Num_H_Atoms_ProtBoundConf>  (119) 
nan

>  <Num_Resolved_Atoms>  (119) 
nan

>  <Num_Not_Resolved_Atoms>  (119) 
nan

$$$$
CHEMBL3800189
     RDKit          3D

  0  0  0  0  0  0  0  0  0  0999 V3000
M  V30 BEGIN CTAB
M  V30 COUNTS 47 50 0 0 0
M  V30 BEGIN ATOM
M  V30 1 C -2.095422 -3.652325 -2.049107 0
M  V30 2 C -1.149836 -4.111454 -1.004675 0
M  V30 3 C -1.184761 -3.288787 0.264864 0
M  V30 4 N -0.865638 -1.907441 0.083187 0
M  V30 5 C 0.241223 -1.147554 0.559820 0
M  V30 6 O 1.057981 -1.814730 1.248591 0
M  V30 7 C 0.363344 0.272264 0.245684 0
M  V30 8 C -0.516083 1.024987 -0.505230 0
M  V30 9 C -0.294901 2.366171 -0.736421 0
M  V30 10 C 0.827065 2.963687 -0.205965 0
M  V30 11 N 1.219664 4.246024 -0.314901 0
M  V30 12 N 2.349774 4.354746 0.354744 0
M  V30 13 C 2.685289 3.155755 0.891475 0
M  V30 14 C 3.864241 2.865789 1.700734 0
M  V30 15 C 4.106530 3.830681 2.684479 0
M  V30 16 C 5.218814 3.622247 3.499929 0
M  V30 17 N 6.029806 2.557806 3.366436 0
M  V30 18 C 5.787955 1.635857 2.417342 0
M  V30 19 C 4.709296 1.780291 1.580505 0
M  V30 20 C 1.720556 2.230924 0.548173 0
M  V30 21 C 1.493418 0.888498 0.776018 0
M  V30 22 C -2.441298 -3.506485 1.026585 0
M  V30 23 C -3.501568 -4.359472 0.798212 0
M  V30 24 C -4.558948 -4.367409 1.668163 0
M  V30 25 C -4.635647 -3.559870 2.783870 0
M  V30 26 C -3.563099 -2.692621 3.020577 0
M  V30 27 Cl -3.667237 -1.670791 4.438337 0
M  V30 28 C -2.469714 -2.665244 2.145979 0
M  V30 29 H -2.728438 -2.796154 -1.760520 0
M  V30 30 H -1.494873 -3.272067 -2.925030 0
M  V30 31 H -2.755361 -4.436207 -2.475597 0
M  V30 32 H -1.428222 -5.149043 -0.701981 0
M  V30 33 H -0.115791 -4.204219 -1.396314 0
M  V30 34 H -0.366348 -3.745043 0.897122 0
M  V30 35 H -1.622845 -1.487998 -0.500752 0
M  V30 36 H -1.377527 0.498654 -0.893978 0
M  V30 37 H -1.031331 2.875120 -1.331930 0
M  V30 38 H 0.708491 5.009452 -0.840803 0
M  V30 39 H 3.486585 4.718349 2.845560 0
M  V30 40 H 5.433257 4.351809 4.271335 0
M  V30 41 H 6.416991 0.770054 2.281717 0
M  V30 42 H 4.427205 1.099833 0.788602 0
M  V30 43 H 2.223366 0.351970 1.375057 0
M  V30 44 H -3.356380 -4.941575 -0.081333 0
M  V30 45 H -5.343394 -5.080509 1.392366 0
M  V30 46 H -5.499210 -3.612646 3.434049 0
M  V30 47 H -1.716896 -1.945597 2.456621 0
M  V30 END ATOM
M  V30 BEGIN BOND
M  V30 1 1 1 2
M  V30 2 1 2 3
M  V30 3 1 3 4
M  V30 4 1 4 5
M  V30 5 2 5 6
M  V30 6 1 5 7
M  V30 7 2 7 8
M  V30 8 1 8 9
M  V30 9 2 9 10
M  V30 10 1 10 11
M  V30 11 1 11 12
M  V30 12 2 12 13
M  V30 13 1 13 14
M  V30 14 2 14 15
M  V30 15 1 15 16
M  V30 16 2 16 17
M  V30 17 1 17 18
M  V30 18 2 18 19
M  V30 19 1 13 20
M  V30 20 2 20 21
M  V30 21 1 3 22
M  V30 22 2 22 23
M  V30 23 1 23 24
M  V30 24 2 24 25
M  V30 25 1 25 26
M  V30 26 1 26 27
M  V30 27 2 26 28
M  V30 28 1 21 7
M  V30 29 1 28 22
M  V30 30 1 20 10
M  V30 31 1 19 14
M  V30 32 1 1 29
M  V30 33 1 1 30
M  V30 34 1 1 31
M  V30 35 1 2 32
M  V30 36 1 2 33
M  V30 37 1 3 34
M  V30 38 1 4 35
M  V30 39 1 8 36
M  V30 40 1 9 37
M  V30 41 1 11 38
M  V30 42 1 15 39
M  V30 43 1 16 40
M  V30 44 1 18 41
M  V30 45 1 19 42
M  V30 46 1 21 43
M  V30 47 1 23 44
M  V30 48 1 24 45
M  V30 49 1 25 46
M  V30 50 1 28 47
M  V30 END BOND
M  V30 END CTAB
M  END
>  <Dataset>  (120) 
ChEMBL_Kinases

>  <Ligand_Instance>  (120) 
nan

>  <PDB_ID>  (120) 
nan

>  <Standardized_SMILES>  (120) 
CCC(NC(=O)c1ccc2[nH]nc(-c3ccncc3)c2c1)c1cccc(Cl)c1

>  <Name>  (120) 
nan

>  <Pocket>  (120) 
nan

>  <ATP_Site>  (120) 
nan

>  <Peripheral>  (120) 
nan

>  <Num_H_Atoms_ProtBoundConf>  (120) 
nan

>  <Num_Resolved_Atoms>  (120) 
nan

>  <Num_Not_Resolved_Atoms>  (120) 
nan

$$$$
CHEMBL3800263
     RDKit          3D

  0  0  0  0  0  0  0  0  0  0999 V3000
M  V30 BEGIN CTAB
M  V30 COUNTS 41 44 0 0 0
M  V30 BEGIN ATOM
M  V30 1 O 1.144851 -2.134691 1.136123 0
M  V30 2 C 1.119493 -1.014247 0.519262 0
M  V30 3 N 2.147736 -0.696937 -0.404501 0
M  V30 4 C 3.179898 -1.714610 -0.575550 0
M  V30 5 C 4.164643 -1.212956 -1.573073 0
M  V30 6 C 4.142934 -1.721546 -2.875703 0
M  V30 7 C 4.983563 -1.360407 -3.906681 0
M  V30 8 C 5.931085 -0.395118 -3.582752 0
M  V30 9 C 6.000689 0.141875 -2.317904 0
M  V30 10 C 5.133856 -0.255219 -1.320533 0
M  V30 11 Cl 5.197247 0.410165 0.303255 0
M  V30 12 C 0.023614 -0.088285 0.786624 0
M  V30 13 C -0.111581 1.146439 0.185572 0
M  V30 14 C -1.132601 2.026126 0.422914 0
M  V30 15 C -2.116088 1.671640 1.331177 0
M  V30 16 N -3.232013 2.245131 1.808929 0
M  V30 17 N -3.816052 1.428413 2.690827 0
M  V30 18 C -3.091987 0.299024 2.809324 0
M  V30 19 C -3.457617 -0.801518 3.694799 0
M  V30 20 C -3.874288 -0.558599 4.990194 0
M  V30 21 C -4.241849 -1.529660 5.909211 0
M  V30 22 N -4.183305 -2.812328 5.491545 0
M  V30 23 C -3.787633 -3.111378 4.248387 0
M  V30 24 C -3.423832 -2.138139 3.341251 0
M  V30 25 C -2.016659 0.439639 1.956573 0
M  V30 26 C -0.966717 -0.420166 1.687248 0
M  V30 27 H 2.166301 0.202388 -0.927304 0
M  V30 28 H 3.709375 -1.895589 0.378395 0
M  V30 29 H 2.807346 -2.677113 -0.922066 0
M  V30 30 H 3.380932 -2.480582 -3.090806 0
M  V30 31 H 4.863148 -1.830330 -4.874198 0
M  V30 32 H 6.602351 -0.096573 -4.381276 0
M  V30 33 H 6.759018 0.902334 -2.089338 0
M  V30 34 H 0.619121 1.464152 -0.520375 0
M  V30 35 H -1.226830 2.978384 -0.047328 0
M  V30 36 H -3.556191 3.187076 1.508799 0
M  V30 37 H -3.934365 0.475944 5.364612 0
M  V30 38 H -4.558250 -1.249969 6.911187 0
M  V30 39 H -3.759120 -4.173552 3.961834 0
M  V30 40 H -3.102550 -2.386820 2.330999 0
M  V30 41 H -0.934837 -1.358449 2.195427 0
M  V30 END ATOM
M  V30 BEGIN BOND
M  V30 1 2 1 2
M  V30 2 1 2 3
M  V30 3 1 3 4
M  V30 4 1 4 5
M  V30 5 2 5 6
M  V30 6 1 6 7
M  V30 7 2 7 8
M  V30 8 1 8 9
M  V30 9 2 9 10
M  V30 10 1 10 11
M  V30 11 1 2 12
M  V30 12 2 12 13
M  V30 13 1 13 14
M  V30 14 2 14 15
M  V30 15 1 15 16
M  V30 16 1 16 17
M  V30 17 2 17 18
M  V30 18 1 18 19
M  V30 19 2 19 20
M  V30 20 1 20 21
M  V30 21 2 21 22
M  V30 22 1 22 23
M  V30 23 2 23 24
M  V30 24 1 18 25
M  V30 25 2 25 26
M  V30 26 1 10 5
M  V30 27 1 26 12
M  V30 28 1 25 15
M  V30 29 1 24 19
M  V30 30 1 3 27
M  V30 31 1 4 28
M  V30 32 1 4 29
M  V30 33 1 6 30
M  V30 34 1 7 31
M  V30 35 1 8 32
M  V30 36 1 9 33
M  V30 37 1 13 34
M  V30 38 1 14 35
M  V30 39 1 16 36
M  V30 40 1 20 37
M  V30 41 1 21 38
M  V30 42 1 23 39
M  V30 43 1 24 40
M  V30 44 1 26 41
M  V30 END BOND
M  V30 END CTAB
M  END
>  <Dataset>  (121) 
ChEMBL_Kinases

>  <Ligand_Instance>  (121) 
nan

>  <PDB_ID>  (121) 
nan

>  <Standardized_SMILES>  (121) 
O=C(NCc1ccccc1Cl)c1ccc2[nH]nc(-c3ccncc3)c2c1

>  <Name>  (121) 
nan

>  <Pocket>  (121) 
nan

>  <ATP_Site>  (121) 
nan

>  <Peripheral>  (121) 
nan

>  <Num_H_Atoms_ProtBoundConf>  (121) 
nan

>  <Num_Resolved_Atoms>  (121) 
nan

>  <Num_Not_Resolved_Atoms>  (121) 
nan

$$$$
CHEMBL4091972
     RDKit          3D

  0  0  0  0  0  0  0  0  0  0999 V3000
M  V30 BEGIN CTAB
M  V30 COUNTS 62 66 0 0 0
M  V30 BEGIN ATOM
M  V30 1 O 1.456279 1.604484 4.438260 0
M  V30 2 C 1.495897 0.954284 3.362633 0
M  V30 3 N 2.206545 -0.271386 3.341432 0
M  V30 4 C 2.920430 -0.896767 4.438087 0
M  V30 5 C 4.207141 -0.170505 4.595120 0
M  V30 6 C 5.276366 -0.638076 3.826093 0
M  V30 7 C 6.530253 -0.078657 3.861346 0
M  V30 8 C 6.776554 0.988793 4.678568 0
M  V30 9 C 5.748007 1.470617 5.445482 0
M  V30 10 C 4.489793 0.906508 5.407809 0
M  V30 11 C 0.800439 1.530202 2.232830 0
M  V30 12 C 0.135758 2.727389 2.397505 0
M  V30 13 C -0.545264 3.317609 1.355888 0
M  V30 14 C -0.579821 2.726720 0.123230 0
M  V30 15 C 0.067107 1.519259 -0.116656 0
M  V30 16 N 0.032692 0.920072 -1.397815 0
M  V30 17 C 0.569973 -0.308214 -1.936856 0
M  V30 18 C -0.029408 -1.521516 -1.328295 0
M  V30 19 N 0.303509 -2.231802 -0.264562 0
M  V30 20 N -0.542923 -3.231686 -0.155362 0
M  V30 21 C -1.425083 -3.149816 -1.168466 0
M  V30 22 C -2.396165 -4.263563 -1.087219 0
M  V30 23 C -3.224006 -4.447600 0.000431 0
M  V30 24 C -4.111160 -5.508760 0.016839 0
M  V30 25 N -4.169404 -6.360309 -1.021785 0
M  V30 26 C -3.394704 -6.225949 -2.089676 0
M  V30 27 C -2.503314 -5.171323 -2.121990 0
M  V30 28 N -1.124920 -2.063275 -1.941026 0
M  V30 29 C -1.978700 -1.860179 -3.062008 0
M  V30 30 C -3.143250 -1.005263 -2.775883 0
M  V30 31 C -3.160261 0.366739 -3.051101 0
M  V30 32 C -4.214581 1.220017 -2.803580 0
M  V30 33 C -5.353055 0.698924 -2.240077 0
M  V30 34 C -5.419429 -0.639272 -1.938687 0
M  V30 35 C -4.327854 -1.430479 -2.213958 0
M  V30 36 C 0.726533 0.989133 0.968753 0
M  V30 37 H 2.211521 -0.765576 2.443760 0
M  V30 38 H 3.143080 -1.960211 4.206348 0
M  V30 39 H 2.347825 -0.812001 5.391353 0
M  V30 40 H 5.221488 -1.487072 3.127340 0
M  V30 41 H 7.370638 -0.423728 3.276067 0
M  V30 42 H 7.692174 1.540954 4.826299 0
M  V30 43 H 5.812635 2.308606 6.132155 0
M  V30 44 H 3.659369 1.259142 6.001159 0
M  V30 45 H 0.102431 3.271843 3.326834 0
M  V30 46 H -1.068043 4.252965 1.474857 0
M  V30 47 H -1.131433 3.221426 -0.688651 0
M  V30 48 H -0.494103 1.485405 -2.130598 0
M  V30 49 H 0.550153 -0.342042 -3.026268 0
M  V30 50 H 1.676782 -0.389891 -1.676686 0
M  V30 51 H -3.144452 -3.736770 0.817626 0
M  V30 52 H -4.741740 -5.611528 0.896156 0
M  V30 53 H -3.507270 -6.962327 -2.886496 0
M  V30 54 H -1.885005 -5.086488 -3.004231 0
M  V30 55 H -1.360479 -1.270692 -3.808873 0
M  V30 56 H -2.220789 -2.790959 -3.612537 0
M  V30 57 H -2.295310 0.830126 -3.502285 0
M  V30 58 H -4.151878 2.271720 -3.044904 0
M  V30 59 H -6.184687 1.358286 -2.041719 0
M  V30 60 H -6.320055 -1.043554 -1.494870 0
M  V30 61 H -4.446689 -2.465589 -1.957874 0
M  V30 62 H 1.262682 0.059361 0.864441 0
M  V30 END ATOM
M  V30 BEGIN BOND
M  V30 1 2 1 2
M  V30 2 1 2 3
M  V30 3 1 3 4
M  V30 4 1 4 5
M  V30 5 2 5 6
M  V30 6 1 6 7
M  V30 7 2 7 8
M  V30 8 1 8 9
M  V30 9 2 9 10
M  V30 10 1 2 11
M  V30 11 2 11 12
M  V30 12 1 12 13
M  V30 13 2 13 14
M  V30 14 1 14 15
M  V30 15 1 15 16
M  V30 16 1 16 17
M  V30 17 1 17 18
M  V30 18 2 18 19
M  V30 19 1 19 20
M  V30 20 2 20 21
M  V30 21 1 21 22
M  V30 22 2 22 23
M  V30 23 1 23 24
M  V30 24 2 24 25
M  V30 25 1 25 26
M  V30 26 2 26 27
M  V30 27 1 21 28
M  V30 28 1 28 29
M  V30 29 1 29 30
M  V30 30 2 30 31
M  V30 31 1 31 32
M  V30 32 2 32 33
M  V30 33 1 33 34
M  V30 34 2 34 35
M  V30 35 2 15 36
M  V30 36 1 10 5
M  V30 37 1 36 11
M  V30 38 1 28 18
M  V30 39 1 35 30
M  V30 40 1 27 22
M  V30 41 1 3 37
M  V30 42 1 4 38
M  V30 43 1 4 39
M  V30 44 1 6 40
M  V30 45 1 7 41
M  V30 46 1 8 42
M  V30 47 1 9 43
M  V30 48 1 10 44
M  V30 49 1 12 45
M  V30 50 1 13 46
M  V30 51 1 14 47
M  V30 52 1 16 48
M  V30 53 1 17 49
M  V30 54 1 17 50
M  V30 55 1 23 51
M  V30 56 1 24 52
M  V30 57 1 26 53
M  V30 58 1 27 54
M  V30 59 1 29 55
M  V30 60 1 29 56
M  V30 61 1 31 57
M  V30 62 1 32 58
M  V30 63 1 33 59
M  V30 64 1 34 60
M  V30 65 1 35 61
M  V30 66 1 36 62
M  V30 END BOND
M  V30 END CTAB
M  END
>  <Dataset>  (122) 
ChEMBL_Kinases

>  <Ligand_Instance>  (122) 
nan

>  <PDB_ID>  (122) 
nan

>  <Standardized_SMILES>  (122) 
O=C(NCc1ccccc1)c1cccc(NCc2nnc(-c3ccncc3)n2Cc2ccccc2)c1

>  <Name>  (122) 
nan

>  <Pocket>  (122) 
nan

>  <ATP_Site>  (122) 
nan

>  <Peripheral>  (122) 
nan

>  <Num_H_Atoms_ProtBoundConf>  (122) 
nan

>  <Num_Resolved_Atoms>  (122) 
nan

>  <Num_Not_Resolved_Atoms>  (122) 
nan

$$$$
CHEMBL3664634
     RDKit          3D

  0  0  0  0  0  0  0  0  0  0999 V3000
M  V30 BEGIN CTAB
M  V30 COUNTS 48 52 0 0 0
M  V30 BEGIN ATOM
M  V30 1 F 1.653624 -2.687320 -0.367283 0
M  V30 2 C 0.383325 -2.790046 -0.825217 0
M  V30 3 C -0.567460 -1.810157 -0.140449 0
M  V30 4 O -0.339612 -0.520764 -0.239766 0
M  V30 5 C -0.172297 0.642240 -0.756506 0
M  V30 6 C -0.229259 0.978255 -2.089053 0
M  V30 7 C -0.045594 2.271869 -2.516881 0
M  V30 8 C 0.202546 3.239176 -1.573167 0
M  V30 9 C 0.283814 2.998590 -0.195437 0
M  V30 10 C 0.514024 3.975968 0.746384 0
M  V30 11 C 0.547122 3.589897 2.080375 0
M  V30 12 C 0.359517 2.279497 2.447205 0
M  V30 13 C 0.489287 1.999590 3.889531 0
M  V30 14 N 0.627428 2.798045 4.953170 0
M  V30 15 N 0.791550 1.983933 6.034430 0
M  V30 16 C 0.734819 0.715284 5.508703 0
M  V30 17 C 0.928886 -0.059714 6.691628 0
M  V30 18 C 0.885992 -1.394647 6.058956 0
M  V30 19 C 0.699617 -1.658900 4.680087 0
M  V30 20 C 0.528810 -0.646069 3.721858 0
M  V30 21 N 0.552956 0.655396 4.211617 0
M  V30 22 N 0.139050 1.386661 1.474405 0
M  V30 23 C 0.085052 1.656703 0.173686 0
M  V30 24 C 0.412583 -2.599996 -2.319673 0
M  V30 25 C -0.987660 -2.740058 -2.851074 0
M  V30 26 N -1.586928 -3.989603 -2.532037 0
M  V30 27 C -1.439194 -4.487974 -1.216506 0
M  V30 28 C -0.125167 -4.213073 -0.563190 0
M  V30 29 H -0.577250 -2.177371 0.953923 0
M  V30 30 H -1.588827 -2.115062 -0.509879 0
M  V30 31 H -0.419371 0.255474 -2.856557 0
M  V30 32 H -0.079864 2.615467 -3.561614 0
M  V30 33 H 0.352891 4.285904 -1.802237 0
M  V30 34 H 0.651649 4.980565 0.380730 0
M  V30 35 H 0.726504 4.409902 2.754558 0
M  V30 36 H 1.060540 -0.611368 7.493753 0
M  V30 37 H 0.970125 -2.498261 6.296068 0
M  V30 38 H 0.629481 -2.527641 3.992716 0
M  V30 39 H 0.371319 -0.562136 2.680235 0
M  V30 40 H 0.888425 -1.668482 -2.620901 0
M  V30 41 H 0.994995 -3.467537 -2.725308 0
M  V30 42 H -0.889137 -2.704504 -3.967677 0
M  V30 43 H -1.636223 -1.885019 -2.525652 0
M  V30 44 H -2.620025 -3.931146 -2.770130 0
M  V30 45 H -2.284061 -4.259215 -0.518000 0
M  V30 46 H -1.491523 -5.623809 -1.309590 0
M  V30 47 H -0.286127 -4.341318 0.538990 0
M  V30 48 H 0.643676 -4.914440 -0.914498 0
M  V30 END ATOM
M  V30 BEGIN BOND
M  V30 1 1 1 2
M  V30 2 1 2 3
M  V30 3 1 3 4
M  V30 4 1 4 5
M  V30 5 2 5 6
M  V30 6 1 6 7
M  V30 7 2 7 8
M  V30 8 1 8 9
M  V30 9 2 9 10
M  V30 10 1 10 11
M  V30 11 2 11 12
M  V30 12 1 12 13
M  V30 13 2 13 14
M  V30 14 1 14 15
M  V30 15 2 15 16
M  V30 16 1 16 17
M  V30 17 2 17 18
M  V30 18 1 18 19
M  V30 19 2 19 20
M  V30 20 1 20 21
M  V30 21 1 12 22
M  V30 22 2 22 23
M  V30 23 1 2 24
M  V30 24 1 24 25
M  V30 25 1 25 26
M  V30 26 1 26 27
M  V30 27 1 27 28
M  V30 28 1 28 2
M  V30 29 1 23 5
M  V30 30 1 23 9
M  V30 31 1 21 13
M  V30 32 1 21 16
M  V30 33 1 3 29
M  V30 34 1 3 30
M  V30 35 1 6 31
M  V30 36 1 7 32
M  V30 37 1 8 33
M  V30 38 1 10 34
M  V30 39 1 11 35
M  V30 40 1 17 36
M  V30 41 1 18 37
M  V30 42 1 19 38
M  V30 43 1 20 39
M  V30 44 1 24 40
M  V30 45 1 24 41
M  V30 46 1 25 42
M  V30 47 1 25 43
M  V30 48 1 26 44
M  V30 49 1 27 45
M  V30 50 1 27 46
M  V30 51 1 28 47
M  V30 52 1 28 48
M  V30 END BOND
M  V30 END CTAB
M  END
>  <Dataset>  (123) 
ChEMBL_Kinases

>  <Ligand_Instance>  (123) 
nan

>  <PDB_ID>  (123) 
nan

>  <Standardized_SMILES>  (123) 
FC1(COc2cccc3ccc(-c4nnc5ccccn45)nc23)CCNCC1

>  <Name>  (123) 
nan

>  <Pocket>  (123) 
nan

>  <ATP_Site>  (123) 
nan

>  <Peripheral>  (123) 
nan

>  <Num_H_Atoms_ProtBoundConf>  (123) 
nan

>  <Num_Resolved_Atoms>  (123) 
nan

>  <Num_Not_Resolved_Atoms>  (123) 
nan

$$$$
CHEMBL380048
     RDKit          3D

  0  0  0  0  0  0  0  0  0  0999 V3000
M  V30 BEGIN CTAB
M  V30 COUNTS 40 44 0 0 0
M  V30 BEGIN ATOM
M  V30 1 C 0.492228 -6.320611 0.693437 0
M  V30 2 C 0.228743 -5.118316 -0.148552 0
M  V30 3 C -0.023862 -5.199203 -1.502266 0
M  V30 4 C -0.261181 -4.054036 -2.233061 0
M  V30 5 C -0.231624 -2.860874 -1.549021 0
M  V30 6 C 0.015010 -2.716659 -0.197175 0
M  V30 7 C 0.016106 -1.363220 0.337165 0
M  V30 8 C 0.864437 -0.523201 -0.395197 0
M  V30 9 C 1.012517 0.798298 -0.022542 0
M  V30 10 N 1.757695 1.816878 -0.545746 0
M  V30 11 C 1.510194 2.888494 0.228952 0
M  V30 12 C 2.062507 4.151930 0.058044 0
M  V30 13 C 1.737178 5.182406 0.915386 0
M  V30 14 C 0.838982 4.906218 1.951624 0
M  V30 15 O 0.517771 5.949831 2.809292 0
M  V30 16 C 0.328481 3.634902 2.065447 0
M  V30 17 C 0.624847 2.592648 1.240261 0
M  V30 18 C 0.322698 1.277523 1.067860 0
M  V30 19 C -0.503895 0.468522 1.784626 0
M  V30 20 C -0.658742 -0.846667 1.423200 0
M  V30 21 C -1.580700 -1.575018 2.284422 0
M  V30 22 O -1.945345 -2.776864 2.234811 0
M  V30 23 N -2.002709 -0.582435 3.243123 0
M  V30 24 C -1.349260 0.633677 2.929721 0
M  V30 25 O -1.612742 1.588449 3.670913 0
M  V30 26 C 0.245719 -3.893919 0.482493 0
M  V30 27 H 0.341708 -7.212154 0.056949 0
M  V30 28 H 1.509368 -6.302280 1.139480 0
M  V30 29 H -0.255946 -6.380400 1.529956 0
M  V30 30 H -0.027423 -6.181742 -1.956129 0
M  V30 31 H -0.460192 -4.099815 -3.292549 0
M  V30 32 H -0.422451 -1.984653 -2.156425 0
M  V30 33 H 1.442649 -0.822667 -1.265863 0
M  V30 34 H 2.388216 1.744907 -1.386456 0
M  V30 35 H 2.755585 4.380311 -0.735040 0
M  V30 36 H 2.152662 6.170442 0.802846 0
M  V30 37 H 0.950658 5.925202 3.731494 0
M  V30 38 H -0.334604 3.517524 2.867773 0
M  V30 39 H -2.692317 -0.855565 4.003606 0
M  V30 40 H 0.450513 -3.806309 1.538965 0
M  V30 END ATOM
M  V30 BEGIN BOND
M  V30 1 1 1 2
M  V30 2 2 2 3
M  V30 3 1 3 4
M  V30 4 2 4 5
M  V30 5 1 5 6
M  V30 6 1 6 7
M  V30 7 2 7 8
M  V30 8 1 8 9
M  V30 9 1 9 10
M  V30 10 1 10 11
M  V30 11 2 11 12
M  V30 12 1 12 13
M  V30 13 2 13 14
M  V30 14 1 14 15
M  V30 15 1 14 16
M  V30 16 2 16 17
M  V30 17 1 17 18
M  V30 18 1 18 19
M  V30 19 2 19 20
M  V30 20 1 20 21
M  V30 21 2 21 22
M  V30 22 1 21 23
M  V30 23 1 23 24
M  V30 24 2 24 25
M  V30 25 2 6 26
M  V30 26 1 26 2
M  V30 27 1 20 7
M  V30 28 2 18 9
M  V30 29 1 24 19
M  V30 30 1 17 11
M  V30 31 1 1 27
M  V30 32 1 1 28
M  V30 33 1 1 29
M  V30 34 1 3 30
M  V30 35 1 4 31
M  V30 36 1 5 32
M  V30 37 1 8 33
M  V30 38 1 10 34
M  V30 39 1 12 35
M  V30 40 1 13 36
M  V30 41 1 15 37
M  V30 42 1 16 38
M  V30 43 1 23 39
M  V30 44 1 26 40
M  V30 END BOND
M  V30 END CTAB
M  END
>  <Dataset>  (124) 
ChEMBL_Kinases

>  <Ligand_Instance>  (124) 
nan

>  <PDB_ID>  (124) 
nan

>  <Standardized_SMILES>  (124) 
Cc1cccc(-c2cc3[nH]c4ccc(O)cc4c3c3c2C(=O)NC3=O)c1

>  <Name>  (124) 
nan

>  <Pocket>  (124) 
nan

>  <ATP_Site>  (124) 
nan

>  <Peripheral>  (124) 
nan

>  <Num_H_Atoms_ProtBoundConf>  (124) 
nan

>  <Num_Resolved_Atoms>  (124) 
nan

>  <Num_Not_Resolved_Atoms>  (124) 
nan

$$$$
CHEMBL3414688
     RDKit          3D

  0  0  0  0  0  0  0  0  0  0999 V3000
M  V30 BEGIN CTAB
M  V30 COUNTS 46 47 0 0 0
M  V30 BEGIN ATOM
M  V30 1 C 0.096343 -5.307198 1.703072 0
M  V30 2 C 0.618761 -5.061804 0.307568 0
M  V30 3 C 2.129636 -4.991407 0.300503 0
M  V30 4 C -0.044467 -3.969782 -0.427108 0
M  V30 5 C -0.019826 -2.602685 0.091680 0
M  V30 6 C -0.598275 -2.293185 1.408127 0
M  V30 7 C -0.448630 -0.789099 1.703003 0
M  V30 8 C -1.091523 -0.623881 3.088250 0
M  V30 9 C 0.993156 -0.463440 1.843945 0
M  V30 10 C 1.537208 0.484297 0.834819 0
M  V30 11 C 0.541274 1.507885 0.418269 0
M  V30 12 C 0.973392 2.781185 0.043741 0
M  V30 13 C 0.074661 3.752084 -0.347533 0
M  V30 14 S 0.567171 5.352994 -0.822850 0
M  V30 15 N 0.613583 6.432537 0.544718 0
M  V30 16 O 1.959625 5.357611 -1.401229 0
M  V30 17 O -0.363580 5.950455 -1.835819 0
M  V30 18 C -1.294946 3.474491 -0.375632 0
M  V30 19 C -1.741353 2.215591 -0.006987 0
M  V30 20 Br -3.591175 1.741098 -0.012742 0
M  V30 21 C -0.830029 1.254756 0.382113 0
M  V30 22 O -1.147214 -0.031953 0.770868 0
M  V30 23 H -0.032155 -6.407683 1.905891 0
M  V30 24 H 0.841300 -4.986235 2.461874 0
M  V30 25 H -0.925064 -4.895685 1.874799 0
M  V30 26 H 0.389835 -6.005019 -0.270890 0
M  V30 27 H 2.542028 -4.424343 -0.538237 0
M  V30 28 H 2.579390 -6.006275 0.272652 0
M  V30 29 H 2.433633 -4.595825 1.313396 0
M  V30 30 H 0.346453 -3.929083 -1.481385 0
M  V30 31 H -1.119259 -4.290902 -0.581890 0
M  V30 32 H -0.562926 -1.966217 -0.668865 0
M  V30 33 H 1.029111 -2.193395 0.066307 0
M  V30 34 H 0.055594 -2.746490 2.213184 0
M  V30 35 H -1.642451 -2.553470 1.557054 0
M  V30 36 H -1.040931 0.455173 3.386903 0
M  V30 37 H -2.106321 -1.032380 3.126297 0
M  V30 38 H -0.424140 -1.181014 3.794795 0
M  V30 39 H 1.628537 -1.396419 1.838106 0
M  V30 40 H 1.229283 -0.016944 2.855655 0
M  V30 41 H 1.954575 0.010519 -0.086171 0
M  V30 42 H 2.395455 1.047311 1.257979 0
M  V30 43 H 2.026156 3.065233 0.042489 0
M  V30 44 H 0.747032 5.805094 1.385463 0
M  V30 45 H -0.353147 6.821987 0.627464 0
M  V30 46 H -2.037482 4.205046 -0.675747 0
M  V30 END ATOM
M  V30 BEGIN BOND
M  V30 1 1 1 2
M  V30 2 1 2 3
M  V30 3 1 2 4
M  V30 4 1 4 5
M  V30 5 1 5 6
M  V30 6 1 6 7
M  V30 7 1 7 8
M  V30 8 1 7 9
M  V30 9 1 9 10
M  V30 10 1 10 11
M  V30 11 2 11 12
M  V30 12 1 12 13
M  V30 13 1 13 14
M  V30 14 1 14 15
M  V30 15 2 14 16
M  V30 16 2 14 17
M  V30 17 2 13 18
M  V30 18 1 18 19
M  V30 19 1 19 20
M  V30 20 2 19 21
M  V30 21 1 21 22
M  V30 22 1 22 7
M  V30 23 1 21 11
M  V30 24 1 1 23
M  V30 25 1 1 24
M  V30 26 1 1 25
M  V30 27 1 2 26
M  V30 28 1 3 27
M  V30 29 1 3 28
M  V30 30 1 3 29
M  V30 31 1 4 30
M  V30 32 1 4 31
M  V30 33 1 5 32
M  V30 34 1 5 33
M  V30 35 1 6 34
M  V30 36 1 6 35
M  V30 37 1 8 36
M  V30 38 1 8 37
M  V30 39 1 8 38
M  V30 40 1 9 39
M  V30 41 1 9 40
M  V30 42 1 10 41
M  V30 43 1 10 42
M  V30 44 1 12 43
M  V30 45 1 15 44
M  V30 46 1 15 45
M  V30 47 1 18 46
M  V30 END BOND
M  V30 END CTAB
M  END
>  <Dataset>  (125) 
ChEMBL_Kinases

>  <Ligand_Instance>  (125) 
nan

>  <PDB_ID>  (125) 
nan

>  <Standardized_SMILES>  (125) 
CC(C)CCCC1(C)CCc2cc(S(N)(=O)=O)cc(Br)c2O1

>  <Name>  (125) 
nan

>  <Pocket>  (125) 
nan

>  <ATP_Site>  (125) 
nan

>  <Peripheral>  (125) 
nan

>  <Num_H_Atoms_ProtBoundConf>  (125) 
nan

>  <Num_Resolved_Atoms>  (125) 
nan

>  <Num_Not_Resolved_Atoms>  (125) 
nan

$$$$
CHEMBL380152
     RDKit          3D

  0  0  0  0  0  0  0  0  0  0999 V3000
M  V30 BEGIN CTAB
M  V30 COUNTS 52 53 0 0 0
M  V30 BEGIN ATOM
M  V30 1 C 3.671827 2.138360 -4.881223 0
M  V30 2 O 3.644623 0.744618 -4.699396 0
M  V30 3 C 3.430166 0.102964 -3.486452 0
M  V30 4 C 3.445983 -1.294097 -3.556674 0
M  V30 5 C 3.236918 -2.004511 -2.374214 0
M  V30 6 C 3.020001 -1.376579 -1.165194 0
M  V30 7 O 2.807602 -2.031555 0.038887 0
M  V30 8 C 2.798823 -3.441296 0.122505 0
M  V30 9 C 3.012797 0.024826 -1.144672 0
M  V30 10 C 2.763340 0.714536 0.177371 0
M  V30 11 C 1.283661 0.646890 0.476245 0
M  V30 12 O 0.632721 0.076946 -0.425828 0
M  V30 13 N 0.795127 1.205174 1.685108 0
M  V30 14 C -0.612288 1.064053 1.810072 0
M  V30 15 C -1.270459 2.159134 1.265797 0
M  V30 16 C -2.644090 2.278759 1.254525 0
M  V30 17 N -3.344964 3.393147 0.702417 0
M  V30 18 C -3.431777 1.288701 1.797681 0
M  V30 19 C -4.868067 1.326996 1.831381 0
M  V30 20 N -6.022581 1.362913 1.870198 0
M  V30 21 C -2.746771 0.206701 2.334170 0
M  V30 22 O -3.419992 -0.864837 2.915680 0
M  V30 23 C -2.822776 -1.987396 3.476305 0
M  V30 24 C -3.862477 -2.941865 4.015215 0
M  V30 25 S -3.108726 -4.382066 4.740772 0
M  V30 26 C -2.143340 -5.255227 3.523812 0
M  V30 27 O -4.179265 -5.313046 5.224773 0
M  V30 28 O -2.268103 -4.010671 5.928218 0
M  V30 29 N -1.407970 0.110067 2.334807 0
M  V30 30 C 3.217879 0.763529 -2.303627 0
M  V30 31 H 3.088986 2.334579 -5.828969 0
M  V30 32 H 4.674403 2.571043 -5.010185 0
M  V30 33 H 3.082949 2.700479 -4.106647 0
M  V30 34 H 3.610457 -1.837670 -4.475722 0
M  V30 35 H 3.244928 -3.084981 -2.410564 0
M  V30 36 H 3.512947 -3.929658 -0.589649 0
M  V30 37 H 3.060061 -3.754086 1.174750 0
M  V30 38 H 1.789442 -3.829674 -0.090718 0
M  V30 39 H 3.333190 0.222194 0.967149 0
M  V30 40 H 3.052768 1.764756 0.030877 0
M  V30 41 H 1.387787 1.655160 2.399695 0
M  V30 42 H -0.794707 3.029150 0.796818 0
M  V30 43 H -3.733469 3.703056 -0.223295 0
M  V30 44 H -3.600778 4.197301 1.297810 0
M  V30 45 H -2.234543 -1.640586 4.366464 0
M  V30 46 H -2.095555 -2.496559 2.815067 0
M  V30 47 H -4.518516 -3.272635 3.184912 0
M  V30 48 H -4.463354 -2.427994 4.776227 0
M  V30 49 H -2.467865 -6.308269 3.400108 0
M  V30 50 H -1.073819 -5.269273 3.769327 0
M  V30 51 H -2.308503 -4.755711 2.524622 0
M  V30 52 H 3.209711 1.827668 -2.273048 0
M  V30 END ATOM
M  V30 BEGIN BOND
M  V30 1 1 1 2
M  V30 2 1 2 3
M  V30 3 2 3 4
M  V30 4 1 4 5
M  V30 5 2 5 6
M  V30 6 1 6 7
M  V30 7 1 7 8
M  V30 8 1 6 9
M  V30 9 1 9 10
M  V30 10 1 10 11
M  V30 11 2 11 12
M  V30 12 1 11 13
M  V30 13 1 13 14
M  V30 14 2 14 15
M  V30 15 1 15 16
M  V30 16 1 16 17
M  V30 17 2 16 18
M  V30 18 1 18 19
M  V30 19 3 19 20
M  V30 20 1 18 21
M  V30 21 1 21 22
M  V30 22 1 22 23
M  V30 23 1 23 24
M  V30 24 1 24 25
M  V30 25 1 25 26
M  V30 26 2 25 27
M  V30 27 2 25 28
M  V30 28 2 21 29
M  V30 29 2 9 30
M  V30 30 1 30 3
M  V30 31 1 29 14
M  V30 32 1 1 31
M  V30 33 1 1 32
M  V30 34 1 1 33
M  V30 35 1 4 34
M  V30 36 1 5 35
M  V30 37 1 8 36
M  V30 38 1 8 37
M  V30 39 1 8 38
M  V30 40 1 10 39
M  V30 41 1 10 40
M  V30 42 1 13 41
M  V30 43 1 15 42
M  V30 44 1 17 43
M  V30 45 1 17 44
M  V30 46 1 23 45
M  V30 47 1 23 46
M  V30 48 1 24 47
M  V30 49 1 24 48
M  V30 50 1 26 49
M  V30 51 1 26 50
M  V30 52 1 26 51
M  V30 53 1 30 52
M  V30 END BOND
M  V30 END CTAB
M  END
>  <Dataset>  (126) 
ChEMBL_Kinases

>  <Ligand_Instance>  (126) 
nan

>  <PDB_ID>  (126) 
nan

>  <Standardized_SMILES>  (126) 
COc1ccc(OC)c(CC(=O)Nc2cc(N)c(C#N)c(OCCS(C)(=O)=O)n2)c1

>  <Name>  (126) 
nan

>  <Pocket>  (126) 
nan

>  <ATP_Site>  (126) 
nan

>  <Peripheral>  (126) 
nan

>  <Num_H_Atoms_ProtBoundConf>  (126) 
nan

>  <Num_Resolved_Atoms>  (126) 
nan

>  <Num_Not_Resolved_Atoms>  (126) 
nan

$$$$
CHEMBL3664616
     RDKit          3D

  0  0  0  0  0  0  0  0  0  0999 V3000
M  V30 BEGIN CTAB
M  V30 COUNTS 50 53 0 0 0
M  V30 BEGIN ATOM
M  V30 1 C -0.959252 -2.538682 1.762578 0
M  V30 2 C -0.456334 -3.023718 0.378930 0
M  V30 3 C -1.250037 -2.282037 -0.643374 0
M  V30 4 C 1.032527 -2.800118 0.302693 0
M  V30 5 O 1.215803 -1.412277 0.491716 0
M  V30 6 C 2.389604 -0.720667 0.506759 0
M  V30 7 C 3.653441 -1.278949 0.332908 0
M  V30 8 C 4.779202 -0.482072 0.366817 0
M  V30 9 C 4.691833 0.874952 0.571139 0
M  V30 10 C 3.429490 1.439255 0.745760 0
M  V30 11 C 3.404149 2.803707 0.946634 0
M  V30 12 C 2.120039 3.329918 1.117293 0
M  V30 13 C 0.982029 2.567948 1.089373 0
M  V30 14 C -0.311953 3.217190 1.278714 0
M  V30 15 N -0.540925 4.525424 1.486259 0
M  V30 16 N -1.845549 4.749793 1.614427 0
M  V30 17 C -2.493858 3.572520 1.490164 0
M  V30 18 C -3.809451 3.157171 1.525846 0
M  V30 19 C -4.187760 1.841519 1.361655 0
M  V30 20 C -3.172297 0.914616 1.152184 0
M  V30 21 C -1.857648 1.331934 1.116859 0
M  V30 22 N -1.531461 2.640229 1.283790 0
M  V30 23 N 1.111500 1.242549 0.886580 0
M  V30 24 C 2.308001 0.644378 0.711830 0
M  V30 25 C -0.782640 -4.507413 0.394343 0 CFG=1
M  V30 26 O -2.196855 -4.642454 0.567106 0
M  V30 27 C -0.447862 -5.173726 -0.896144 0
M  V30 28 O 0.914742 -5.142661 -1.132323 0
M  V30 29 H -2.025190 -2.295973 1.717681 0
M  V30 30 H -0.667663 -3.282168 2.504930 0
M  V30 31 H -0.417075 -1.577443 1.918019 0
M  V30 32 H -1.256524 -2.728375 -1.653318 0
M  V30 33 H -2.278389 -2.132793 -0.228697 0
M  V30 34 H -0.813460 -1.259682 -0.722776 0
M  V30 35 H 1.378586 -3.000767 -0.754075 0
M  V30 36 H 1.606304 -3.444949 0.958449 0
M  V30 37 H 3.612771 -2.351638 0.179420 0
M  V30 38 H 5.682944 -1.058739 0.216616 0
M  V30 39 H 5.637070 1.401030 0.578750 0
M  V30 40 H 4.295875 3.394564 0.967608 0
M  V30 41 H 2.026077 4.402292 1.280584 0
M  V30 42 H -4.556502 3.932578 1.693586 0
M  V30 43 H -5.247258 1.626418 1.407804 0
M  V30 44 H -3.497839 -0.117756 1.025446 0
M  V30 45 H -1.164762 0.527413 0.948837 0
M  V30 46 H -0.297565 -5.050423 1.222932 0
M  V30 47 H -2.580350 -4.161528 -0.222957 0
M  V30 48 H -1.014112 -4.751374 -1.755747 0
M  V30 49 H -0.778119 -6.239048 -0.824160 0
M  V30 50 H 1.068227 -5.321405 -2.100181 0
M  V30 END ATOM
M  V30 BEGIN BOND
M  V30 1 1 1 2
M  V30 2 1 2 3
M  V30 3 1 2 4
M  V30 4 1 4 5
M  V30 5 1 5 6
M  V30 6 2 6 7
M  V30 7 1 7 8
M  V30 8 2 8 9
M  V30 9 1 9 10
M  V30 10 2 10 11
M  V30 11 1 11 12
M  V30 12 2 12 13
M  V30 13 1 13 14
M  V30 14 2 14 15
M  V30 15 1 15 16
M  V30 16 2 16 17
M  V30 17 1 17 18
M  V30 18 2 18 19
M  V30 19 1 19 20
M  V30 20 2 20 21
M  V30 21 1 21 22
M  V30 22 1 13 23
M  V30 23 2 23 24
M  V30 24 1 2 25
M  V30 25 1 25 26
M  V30 26 1 25 27
M  V30 27 1 27 28
M  V30 28 1 24 6
M  V30 29 1 24 10
M  V30 30 1 22 14
M  V30 31 1 22 17
M  V30 32 1 1 29
M  V30 33 1 1 30
M  V30 34 1 1 31
M  V30 35 1 3 32
M  V30 36 1 3 33
M  V30 37 1 3 34
M  V30 38 1 4 35
M  V30 39 1 4 36
M  V30 40 1 7 37
M  V30 41 1 8 38
M  V30 42 1 9 39
M  V30 43 1 11 40
M  V30 44 1 12 41
M  V30 45 1 18 42
M  V30 46 1 19 43
M  V30 47 1 20 44
M  V30 48 1 21 45
M  V30 49 1 25 46 CFG=1
M  V30 50 1 26 47
M  V30 51 1 27 48
M  V30 52 1 27 49
M  V30 53 1 28 50
M  V30 END BOND
M  V30 END CTAB
M  END
>  <Dataset>  (127) 
ChEMBL_Kinases

>  <Ligand_Instance>  (127) 
nan

>  <PDB_ID>  (127) 
nan

>  <Standardized_SMILES>  (127) 
CC(C)(COc1cccc2ccc(-c3nnc4ccccn34)nc12)[C@@H](O)CO

>  <Name>  (127) 
nan

>  <Pocket>  (127) 
nan

>  <ATP_Site>  (127) 
nan

>  <Peripheral>  (127) 
nan

>  <Num_H_Atoms_ProtBoundConf>  (127) 
nan

>  <Num_Resolved_Atoms>  (127) 
nan

>  <Num_Not_Resolved_Atoms>  (127) 
nan

$$$$
CHEMBL3664615
     RDKit          3D

  0  0  0  0  0  0  0  0  0  0999 V3000
M  V30 BEGIN CTAB
M  V30 COUNTS 50 53 0 0 0
M  V30 BEGIN ATOM
M  V30 1 C -0.678999 -3.204942 1.147866 0
M  V30 2 C 0.048197 -3.164802 -0.202816 0
M  V30 3 C -0.882545 -2.513737 -1.173698 0
M  V30 4 C 1.315025 -2.395102 0.029897 0
M  V30 5 O 1.122817 -1.087567 0.476545 0
M  V30 6 C 2.189546 -0.216932 0.747788 0
M  V30 7 C 3.502028 -0.608684 0.586486 0
M  V30 8 C 4.538262 0.288566 0.867398 0
M  V30 9 F 5.814383 -0.146362 0.692288 0
M  V30 10 C 4.221371 1.575515 1.309809 0
M  V30 11 C 2.910946 1.983415 1.476531 0
M  V30 12 C 2.640806 3.272158 1.918523 0
M  V30 13 C 1.282495 3.577323 2.051530 0
M  V30 14 C 0.274314 2.675216 1.768360 0
M  V30 15 C -1.119762 3.082103 1.936586 0
M  V30 16 N -1.598897 4.271761 2.349619 0
M  V30 17 N -2.937635 4.241775 2.368827 0
M  V30 18 C -3.328836 3.000538 1.957424 0
M  V30 19 C -4.613488 2.513587 1.820831 0
M  V30 20 C -4.739970 1.197002 1.378131 0
M  V30 21 C -3.613617 0.446519 1.099503 0
M  V30 22 C -2.388039 1.054643 1.278393 0
M  V30 23 N -2.199894 2.315006 1.700717 0
M  V30 24 N 0.630234 1.446617 1.344840 0
M  V30 25 C 1.905084 1.061686 1.186670 0
M  V30 26 C 0.383157 -4.582167 -0.528856 0 CFG=1
M  V30 27 O -0.783868 -5.367422 -0.617773 0
M  V30 28 C 1.184028 -4.779978 -1.767195 0
M  V30 29 O 0.510628 -4.414639 -2.927077 0
M  V30 30 H -0.823502 -2.173471 1.489704 0
M  V30 31 H -1.644748 -3.761048 1.011274 0
M  V30 32 H -0.042753 -3.816474 1.823637 0
M  V30 33 H -1.883570 -2.978611 -1.088367 0
M  V30 34 H -1.031493 -1.460798 -0.815157 0
M  V30 35 H -0.492635 -2.431679 -2.196742 0
M  V30 36 H 1.946834 -2.349585 -0.871116 0
M  V30 37 H 1.866473 -2.931440 0.848489 0
M  V30 38 H 3.647470 -1.615020 0.242784 0
M  V30 39 H 5.049365 2.257159 1.522324 0
M  V30 40 H 3.435929 3.947459 2.129612 0
M  V30 41 H 1.030177 4.590180 2.399779 0
M  V30 42 H -5.485720 3.108246 2.041157 0
M  V30 43 H -5.747527 0.808410 1.268743 0
M  V30 44 H -3.710604 -0.574713 0.756091 0
M  V30 45 H -1.527194 0.432403 1.048973 0
M  V30 46 H 0.984360 -4.986249 0.318756 0
M  V30 47 H -0.915121 -5.874076 0.211851 0
M  V30 48 H 2.155956 -4.259295 -1.719459 0
M  V30 49 H 1.379488 -5.868450 -1.859525 0
M  V30 50 H 1.122565 -4.225480 -3.670689 0
M  V30 END ATOM
M  V30 BEGIN BOND
M  V30 1 1 1 2
M  V30 2 1 2 3
M  V30 3 1 2 4
M  V30 4 1 4 5
M  V30 5 1 5 6
M  V30 6 2 6 7
M  V30 7 1 7 8
M  V30 8 1 8 9
M  V30 9 2 8 10
M  V30 10 1 10 11
M  V30 11 2 11 12
M  V30 12 1 12 13
M  V30 13 2 13 14
M  V30 14 1 14 15
M  V30 15 2 15 16
M  V30 16 1 16 17
M  V30 17 2 17 18
M  V30 18 1 18 19
M  V30 19 2 19 20
M  V30 20 1 20 21
M  V30 21 2 21 22
M  V30 22 1 22 23
M  V30 23 1 14 24
M  V30 24 2 24 25
M  V30 25 1 2 26
M  V30 26 1 26 27
M  V30 27 1 26 28
M  V30 28 1 28 29
M  V30 29 1 25 6
M  V30 30 1 25 11
M  V30 31 1 23 15
M  V30 32 1 23 18
M  V30 33 1 1 30
M  V30 34 1 1 31
M  V30 35 1 1 32
M  V30 36 1 3 33
M  V30 37 1 3 34
M  V30 38 1 3 35
M  V30 39 1 4 36
M  V30 40 1 4 37
M  V30 41 1 7 38
M  V30 42 1 10 39
M  V30 43 1 12 40
M  V30 44 1 13 41
M  V30 45 1 19 42
M  V30 46 1 20 43
M  V30 47 1 21 44
M  V30 48 1 22 45
M  V30 49 1 26 46 CFG=1
M  V30 50 1 27 47
M  V30 51 1 28 48
M  V30 52 1 28 49
M  V30 53 1 29 50
M  V30 END BOND
M  V30 END CTAB
M  END
>  <Dataset>  (128) 
ChEMBL_Kinases

>  <Ligand_Instance>  (128) 
nan

>  <PDB_ID>  (128) 
nan

>  <Standardized_SMILES>  (128) 
CC(C)(COc1cc(F)cc2ccc(-c3nnc4ccccn34)nc12)[C@@H](O)CO

>  <Name>  (128) 
nan

>  <Pocket>  (128) 
nan

>  <ATP_Site>  (128) 
nan

>  <Peripheral>  (128) 
nan

>  <Num_H_Atoms_ProtBoundConf>  (128) 
nan

>  <Num_Resolved_Atoms>  (128) 
nan

>  <Num_Not_Resolved_Atoms>  (128) 
nan

$$$$
CHEMBL4092482
     RDKit          3D

  0  0  0  0  0  0  0  0  0  0999 V3000
M  V30 BEGIN CTAB
M  V30 COUNTS 71 75 0 0 0
M  V30 BEGIN ATOM
M  V30 1 C 8.156841 -4.282478 -1.106596 0
M  V30 2 C 7.740967 -3.721530 -2.455457 0
M  V30 3 C 7.226013 -2.321935 -2.243229 0
M  V30 4 O 7.193478 -1.933428 -1.029154 0
M  V30 5 N 6.780513 -1.406432 -3.232308 0
M  V30 6 C 6.392961 -0.216404 -2.542137 0
M  V30 7 C 7.459389 0.662207 -2.335866 0
M  V30 8 C 7.161281 1.834650 -1.674549 0
M  V30 9 C 5.897234 2.151911 -1.232342 0
M  V30 10 C 4.853510 1.255042 -1.456844 0
M  V30 11 C 3.460080 1.474233 -1.028337 0
M  V30 12 O 2.484962 0.700767 -1.327541 0
M  V30 13 N 3.056375 2.576447 -0.230267 0
M  V30 14 C 1.656719 2.637903 0.090381 0
M  V30 15 C 0.730752 3.372552 -0.670456 0
M  V30 16 C -0.602525 3.377713 -0.317049 0
M  V30 17 C -1.070747 2.664059 0.791225 0
M  V30 18 N -2.455619 2.671886 1.184851 0
M  V30 19 C -2.799844 1.610071 2.107132 0
M  V30 20 C -3.369974 0.538712 1.405258 0
M  V30 21 C -3.798423 -0.656396 2.014829 0
M  V30 22 C -4.396399 -1.719155 1.245353 0
M  V30 23 C -5.598288 -2.364549 1.549495 0
M  V30 24 C -6.500049 -2.169829 2.678488 0
M  V30 25 C -6.612514 -3.349212 3.432913 0
M  V30 26 C -7.459534 -3.248631 4.543193 0
M  V30 27 C -8.174832 -2.149980 4.963252 0
M  V30 28 F -8.961347 -2.185511 6.056268 0
M  V30 29 C -8.009363 -1.027164 4.165546 0
M  V30 30 C -7.193640 -1.041442 3.054569 0
M  V30 31 N -5.840529 -3.288790 0.576324 0
M  V30 32 C -4.809140 -3.214861 -0.311455 0
M  V30 33 S -4.807782 -4.306396 -1.736968 0
M  V30 34 C -5.692226 -3.501278 -3.131822 0
M  V30 35 N -3.941196 -2.269539 0.094834 0
M  V30 36 C -2.733763 -1.940849 -0.637026 0
M  V30 37 C -3.611252 -0.693343 3.386365 0
M  V30 38 C -3.041162 0.392415 4.043296 0
M  V30 39 N -2.643862 1.511763 3.443445 0
M  V30 40 C -0.105774 1.966385 1.487955 0
M  V30 41 C 1.237499 1.920715 1.187149 0
M  V30 42 C 5.108450 0.065403 -2.113681 0
M  V30 43 H 9.274112 -4.253091 -0.988063 0
M  V30 44 H 7.700780 -3.659918 -0.288937 0
M  V30 45 H 7.828328 -5.315391 -0.944920 0
M  V30 46 H 6.953017 -4.366515 -2.866111 0
M  V30 47 H 8.575233 -3.703504 -3.160857 0
M  V30 48 H 6.833161 -1.792212 -4.202188 0
M  V30 49 H 8.474955 0.460868 -2.666160 0
M  V30 50 H 7.951056 2.557519 -1.487299 0
M  V30 51 H 5.653014 3.072655 -0.712973 0
M  V30 52 H 3.790335 3.264981 0.068898 0
M  V30 53 H 1.097979 3.923025 -1.528656 0
M  V30 54 H -1.331072 3.938997 -0.886589 0
M  V30 55 H -3.017077 3.441868 0.749257 0
M  V30 56 H -3.535035 0.532393 0.310887 0
M  V30 57 H -6.116256 -4.290986 3.231223 0
M  V30 58 H -7.594519 -4.142213 5.178873 0
M  V30 59 H -8.535046 -0.116172 4.428503 0
M  V30 60 H -7.035573 -0.190152 2.402986 0
M  V30 61 H -6.681047 -3.983103 -3.319575 0
M  V30 62 H -5.849949 -2.423537 -2.921919 0
M  V30 63 H -5.065380 -3.615605 -4.029209 0
M  V30 64 H -2.905547 -1.119089 -1.388816 0
M  V30 65 H -2.408657 -2.817983 -1.254731 0
M  V30 66 H -1.878885 -1.710417 0.028019 0
M  V30 67 H -3.921073 -1.595727 3.933154 0
M  V30 68 H -2.891827 0.362595 5.121174 0
M  V30 69 H -0.452286 1.417844 2.332375 0
M  V30 70 H 1.941620 1.338408 1.796314 0
M  V30 71 H 4.415676 -0.720672 -2.354098 0
M  V30 END ATOM
M  V30 BEGIN BOND
M  V30 1 1 1 2
M  V30 2 1 2 3
M  V30 3 2 3 4
M  V30 4 1 3 5
M  V30 5 1 5 6
M  V30 6 2 6 7
M  V30 7 1 7 8
M  V30 8 2 8 9
M  V30 9 1 9 10
M  V30 10 1 10 11
M  V30 11 2 11 12
M  V30 12 1 11 13
M  V30 13 1 13 14
M  V30 14 2 14 15
M  V30 15 1 15 16
M  V30 16 2 16 17
M  V30 17 1 17 18
M  V30 18 1 18 19
M  V30 19 2 19 20
M  V30 20 1 20 21
M  V30 21 1 21 22
M  V30 22 2 22 23
M  V30 23 1 23 24
M  V30 24 2 24 25
M  V30 25 1 25 26
M  V30 26 2 26 27
M  V30 27 1 27 28
M  V30 28 1 27 29
M  V30 29 2 29 30
M  V30 30 1 23 31
M  V30 31 2 31 32
M  V30 32 1 32 33
M  V30 33 1 33 34
M  V30 34 1 32 35
M  V30 35 1 35 36
M  V30 36 2 21 37
M  V30 37 1 37 38
M  V30 38 2 38 39
M  V30 39 1 17 40
M  V30 40 2 40 41
M  V30 41 2 10 42
M  V30 42 1 42 6
M  V30 43 1 41 14
M  V30 44 1 39 19
M  V30 45 1 35 22
M  V30 46 1 30 24
M  V30 47 1 1 43
M  V30 48 1 1 44
M  V30 49 1 1 45
M  V30 50 1 2 46
M  V30 51 1 2 47
M  V30 52 1 5 48
M  V30 53 1 7 49
M  V30 54 1 8 50
M  V30 55 1 9 51
M  V30 56 1 13 52
M  V30 57 1 15 53
M  V30 58 1 16 54
M  V30 59 1 18 55
M  V30 60 1 20 56
M  V30 61 1 25 57
M  V30 62 1 26 58
M  V30 63 1 29 59
M  V30 64 1 30 60
M  V30 65 1 34 61
M  V30 66 1 34 62
M  V30 67 1 34 63
M  V30 68 1 36 64
M  V30 69 1 36 65
M  V30 70 1 36 66
M  V30 71 1 37 67
M  V30 72 1 38 68
M  V30 73 1 40 69
M  V30 74 1 41 70
M  V30 75 1 42 71
M  V30 END BOND
M  V30 END CTAB
M  END
>  <Dataset>  (129) 
ChEMBL_Kinases

>  <Ligand_Instance>  (129) 
nan

>  <PDB_ID>  (129) 
nan

>  <Standardized_SMILES>  (129) 
CCC(=O)Nc1cccc(C(=O)Nc2ccc(Nc3cc(-c4c(-c5ccc(F)cc5)nc(SC)n4C)ccn3)cc2)c1

>  <Name>  (129) 
nan

>  <Pocket>  (129) 
nan

>  <ATP_Site>  (129) 
nan

>  <Peripheral>  (129) 
nan

>  <Num_H_Atoms_ProtBoundConf>  (129) 
nan

>  <Num_Resolved_Atoms>  (129) 
nan

>  <Num_Not_Resolved_Atoms>  (129) 
nan

$$$$
CHEMBL3648120
     RDKit          3D

  0  0  0  0  0  0  0  0  0  0999 V3000
M  V30 BEGIN CTAB
M  V30 COUNTS 51 52 0 0 0
M  V30 BEGIN ATOM
M  V30 1 C 3.416281 -6.019287 4.113659 0
M  V30 2 C 3.228215 -5.058569 2.942825 0
M  V30 3 S 3.229319 -3.422359 3.626582 0
M  V30 4 N 2.088998 -3.299991 4.710610 0
M  V30 5 O 4.508827 -3.117684 4.353625 0
M  V30 6 C 2.999858 -2.170890 2.435602 0
M  V30 7 C 4.034122 -1.749380 1.622026 0
M  V30 8 C 3.842619 -0.738909 0.707139 0
M  V30 9 C 2.612486 -0.079158 0.540262 0
M  V30 10 N 2.485692 0.974510 -0.407516 0
M  V30 11 C 1.263336 1.700908 -0.465593 0
M  V30 12 N 1.520364 3.032743 -0.541986 0
M  V30 13 C 0.589112 3.976510 -0.600820 0
M  V30 14 C -0.740713 3.631651 -0.588449 0
M  V30 15 Br -2.196707 4.868688 -0.662477 0
M  V30 16 C -1.023086 2.285091 -0.513762 0
M  V30 17 N -2.331709 1.747264 -0.468046 0
M  V30 18 C -2.793237 0.382089 -0.414154 0 CFG=2
M  V30 19 C -2.494750 -0.447143 -1.607139 0
M  V30 20 O -3.000491 -0.063799 -2.805218 0
M  V30 21 C -2.638285 1.136964 -3.325031 0
M  V30 22 C -4.206290 0.299655 0.096836 0 CFG=1
M  V30 23 C -4.794129 -1.061335 0.050513 0
M  V30 24 O -4.310908 0.809044 1.391844 0
M  V30 25 N -0.014080 1.357781 -0.454149 0
M  V30 26 C 1.603065 -0.524482 1.364927 0
M  V30 27 C 1.792199 -1.535676 2.280104 0
M  V30 28 H 4.404500 -5.820463 4.562431 0
M  V30 29 H 2.602485 -5.731714 4.838808 0
M  V30 30 H 3.298027 -7.077451 3.811339 0
M  V30 31 H 2.333019 -5.343629 2.409570 0
M  V30 32 H 4.184282 -5.154966 2.345948 0
M  V30 33 H 2.071191 -2.392138 5.224694 0
M  V30 34 H 5.012951 -2.201313 1.680302 0
M  V30 35 H 4.658105 -0.427152 0.082670 0
M  V30 36 H 3.284184 1.173643 -1.027211 0
M  V30 37 H 0.802337 5.036734 -0.659979 0
M  V30 38 H -3.096366 2.487059 -0.467261 0
M  V30 39 H -2.171738 -0.081337 0.427141 0
M  V30 40 H -2.908784 -1.470310 -1.394259 0
M  V30 41 H -1.388624 -0.614249 -1.621170 0
M  V30 42 H -3.185362 1.227782 -4.318355 0
M  V30 43 H -2.966305 2.026334 -2.765540 0
M  V30 44 H -1.562575 1.198193 -3.625689 0
M  V30 45 H -4.835212 0.963331 -0.544425 0
M  V30 46 H -5.536921 -1.151112 0.888246 0
M  V30 47 H -5.434239 -1.242019 -0.863585 0
M  V30 48 H -4.072769 -1.898498 0.213126 0
M  V30 49 H -3.557294 0.405656 1.927851 0
M  V30 50 H 0.631791 -0.070251 1.295002 0
M  V30 51 H 1.010917 -1.883076 2.922791 0
M  V30 END ATOM
M  V30 BEGIN BOND
M  V30 1 1 1 2
M  V30 2 1 2 3
M  V30 3 2 3 4
M  V30 4 2 3 5
M  V30 5 1 3 6
M  V30 6 2 6 7
M  V30 7 1 7 8
M  V30 8 2 8 9
M  V30 9 1 9 10
M  V30 10 1 10 11
M  V30 11 2 11 12
M  V30 12 1 12 13
M  V30 13 2 13 14
M  V30 14 1 14 15
M  V30 15 1 14 16
M  V30 16 1 16 17
M  V30 17 1 17 18
M  V30 18 1 18 19
M  V30 19 1 19 20
M  V30 20 1 20 21
M  V30 21 1 18 22
M  V30 22 1 22 23
M  V30 23 1 22 24
M  V30 24 2 16 25
M  V30 25 1 9 26
M  V30 26 2 26 27
M  V30 27 1 27 6
M  V30 28 1 25 11
M  V30 29 1 1 28
M  V30 30 1 1 29
M  V30 31 1 1 30
M  V30 32 1 2 31
M  V30 33 1 2 32
M  V30 34 1 4 33
M  V30 35 1 7 34
M  V30 36 1 8 35
M  V30 37 1 10 36
M  V30 38 1 13 37
M  V30 39 1 17 38
M  V30 40 1 18 39 CFG=1
M  V30 41 1 19 40
M  V30 42 1 19 41
M  V30 43 1 21 42
M  V30 44 1 21 43
M  V30 45 1 21 44
M  V30 46 1 22 45 CFG=3
M  V30 47 1 23 46
M  V30 48 1 23 47
M  V30 49 1 23 48
M  V30 50 1 24 49
M  V30 51 1 26 50
M  V30 52 1 27 51
M  V30 END BOND
M  V30 END CTAB
M  END
>  <Dataset>  (130) 
ChEMBL_Kinases

>  <Ligand_Instance>  (130) 
nan

>  <PDB_ID>  (130) 
nan

>  <Standardized_SMILES>  (130) 
CCS(=N)(=O)c1ccc(Nc2ncc(Br)c(N[C@H](COC)[C@@H](C)O)n2)cc1

>  <Name>  (130) 
nan

>  <Pocket>  (130) 
nan

>  <ATP_Site>  (130) 
nan

>  <Peripheral>  (130) 
nan

>  <Num_H_Atoms_ProtBoundConf>  (130) 
nan

>  <Num_Resolved_Atoms>  (130) 
nan

>  <Num_Not_Resolved_Atoms>  (130) 
nan

$$$$
CHEMBL3648121
     RDKit          3D

  0  0  0  0  0  0  0  0  0  0999 V3000
M  V30 BEGIN CTAB
M  V30 COUNTS 51 52 0 0 0
M  V30 BEGIN ATOM
M  V30 1 C 3.608105 -5.885863 4.149883 0
M  V30 2 C 3.236840 -4.869960 3.090970 0
M  V30 3 S 3.777353 -3.283250 3.669434 0
M  V30 4 N 3.084926 -2.951764 5.043064 0
M  V30 5 O 5.251387 -3.281682 3.911335 0
M  V30 6 C 3.414734 -1.994847 2.540807 0
M  V30 7 C 4.222469 -1.540404 1.517724 0
M  V30 8 C 3.790284 -0.508063 0.711120 0
M  V30 9 C 2.571282 0.120450 0.859840 0
M  V30 10 N 2.131486 1.186737 0.026437 0
M  V30 11 C 0.871081 1.812071 0.214893 0
M  V30 12 N 0.871974 2.845530 1.074953 0
M  V30 13 C -0.241559 3.542642 1.361091 0
M  V30 14 C -1.438919 3.217627 0.774461 0
M  V30 15 Br -3.100393 4.128024 1.093034 0
M  V30 16 C -1.469916 2.148838 -0.123206 0
M  V30 17 N -2.603216 1.680932 -0.815043 0
M  V30 18 C -3.042100 0.692523 -1.754725 0 CFG=1
M  V30 19 C -2.853355 -0.715700 -1.263514 0
M  V30 20 O -1.562661 -1.092765 -1.026272 0
M  V30 21 C -0.749118 -1.072648 -2.165482 0
M  V30 22 C -4.483135 0.885444 -2.190474 0 CFG=2
M  V30 23 C -5.435887 0.874608 -1.011669 0
M  V30 24 O -4.768534 -0.128567 -3.089601 0
M  V30 25 N -0.321248 1.540720 -0.325852 0
M  V30 26 C 1.761928 -0.333073 1.882802 0
M  V30 27 C 2.172443 -1.366748 2.705327 0
M  V30 28 H 4.585639 -5.583071 4.623346 0
M  V30 29 H 2.852422 -5.768960 4.962873 0
M  V30 30 H 3.648059 -6.903905 3.752694 0
M  V30 31 H 2.153567 -4.876998 2.904331 0
M  V30 32 H 3.847567 -5.102310 2.176932 0
M  V30 33 H 3.480715 -2.129914 5.550428 0
M  V30 34 H 5.159515 -2.042275 1.423905 0
M  V30 35 H 4.450710 -0.178181 -0.080903 0
M  V30 36 H 2.762395 1.517206 -0.750462 0
M  V30 37 H -0.348142 4.382863 2.032611 0
M  V30 38 H -3.433888 2.284753 -0.530563 0
M  V30 39 H -2.438920 0.807765 -2.691977 0
M  V30 40 H -3.388360 -1.456517 -1.895386 0
M  V30 41 H -3.378260 -0.752392 -0.261438 0
M  V30 42 H 0.262705 -1.409389 -1.800865 0
M  V30 43 H -0.617525 -0.069647 -2.594520 0
M  V30 44 H -1.114683 -1.837692 -2.853427 0
M  V30 45 H -4.540584 1.867698 -2.729245 0
M  V30 46 H -4.957884 1.017397 -0.041739 0
M  V30 47 H -6.144009 1.726879 -1.148507 0
M  V30 48 H -6.063251 -0.044527 -1.003343 0
M  V30 49 H -5.518847 -0.663152 -2.722506 0
M  V30 50 H 0.794415 0.119420 2.049521 0
M  V30 51 H 1.498099 -1.682573 3.491562 0
M  V30 END ATOM
M  V30 BEGIN BOND
M  V30 1 1 1 2
M  V30 2 1 2 3
M  V30 3 2 3 4
M  V30 4 2 3 5
M  V30 5 1 3 6
M  V30 6 2 6 7
M  V30 7 1 7 8
M  V30 8 2 8 9
M  V30 9 1 9 10
M  V30 10 1 10 11
M  V30 11 2 11 12
M  V30 12 1 12 13
M  V30 13 2 13 14
M  V30 14 1 14 15
M  V30 15 1 14 16
M  V30 16 1 16 17
M  V30 17 1 17 18
M  V30 18 1 18 19
M  V30 19 1 19 20
M  V30 20 1 20 21
M  V30 21 1 18 22
M  V30 22 1 22 23
M  V30 23 1 22 24
M  V30 24 2 16 25
M  V30 25 1 9 26
M  V30 26 2 26 27
M  V30 27 1 27 6
M  V30 28 1 25 11
M  V30 29 1 1 28
M  V30 30 1 1 29
M  V30 31 1 1 30
M  V30 32 1 2 31
M  V30 33 1 2 32
M  V30 34 1 4 33
M  V30 35 1 7 34
M  V30 36 1 8 35
M  V30 37 1 10 36
M  V30 38 1 13 37
M  V30 39 1 17 38
M  V30 40 1 18 39 CFG=3
M  V30 41 1 19 40
M  V30 42 1 19 41
M  V30 43 1 21 42
M  V30 44 1 21 43
M  V30 45 1 21 44
M  V30 46 1 22 45 CFG=3
M  V30 47 1 23 46
M  V30 48 1 23 47
M  V30 49 1 23 48
M  V30 50 1 24 49
M  V30 51 1 26 50
M  V30 52 1 27 51
M  V30 END BOND
M  V30 END CTAB
M  END
>  <Dataset>  (131) 
ChEMBL_Kinases

>  <Ligand_Instance>  (131) 
nan

>  <PDB_ID>  (131) 
nan

>  <Standardized_SMILES>  (131) 
CCS(=N)(=O)c1ccc(Nc2ncc(Br)c(N[C@@H](COC)[C@H](C)O)n2)cc1

>  <Name>  (131) 
nan

>  <Pocket>  (131) 
nan

>  <ATP_Site>  (131) 
nan

>  <Peripheral>  (131) 
nan

>  <Num_H_Atoms_ProtBoundConf>  (131) 
nan

>  <Num_Resolved_Atoms>  (131) 
nan

>  <Num_Not_Resolved_Atoms>  (131) 
nan

$$$$
CHEMBL3648122
     RDKit          3D

  0  0  0  0  0  0  0  0  0  0999 V3000
M  V30 BEGIN CTAB
M  V30 COUNTS 47 48 0 0 0
M  V30 BEGIN ATOM
M  V30 1 C -1.900458 -5.473669 -0.027419 0
M  V30 2 C -0.453532 -5.537176 0.351348 0
M  V30 3 S 0.643614 -4.957785 -0.904077 0
M  V30 4 N 0.500721 -5.837247 -2.198810 0
M  V30 5 O 2.069460 -5.149699 -0.422753 0
M  V30 6 C 0.360333 -3.296275 -1.341207 0
M  V30 7 C 0.979538 -2.407418 -0.496676 0
M  V30 8 C 0.868320 -1.028908 -0.702014 0
M  V30 9 C 0.124077 -0.585203 -1.770559 0
M  V30 10 N -0.095165 0.776247 -2.087446 0
M  V30 11 C 0.046093 1.956151 -1.316867 0
M  V30 12 N -0.047638 3.220419 -1.621447 0
M  V30 13 C 0.082477 4.208153 -0.734485 0
M  V30 14 C 0.330593 3.919900 0.587610 0
M  V30 15 Br 0.419266 5.528183 1.621638 0
M  V30 16 C 0.441144 2.565193 0.956099 0
M  V30 17 N 0.693164 2.449720 2.319898 0
M  V30 18 C 0.946610 2.332401 3.691187 0 CFG=1
M  V30 19 C 1.032709 3.708773 4.373708 0
M  V30 20 C -0.006390 1.479526 4.505664 0 CFG=2
M  V30 21 C 0.102246 0.030520 4.034862 0
M  V30 22 O -1.313622 1.928501 4.470432 0
M  V30 23 N 0.283080 1.723410 -0.055399 0
M  V30 24 C -0.499455 -1.497266 -2.620906 0
M  V30 25 C -0.387916 -2.854064 -2.414873 0
M  V30 26 H -2.253086 -6.391942 -0.542220 0
M  V30 27 H -2.475371 -5.407363 0.919992 0
M  V30 28 H -2.060984 -4.627168 -0.708721 0
M  V30 29 H -0.228025 -4.976201 1.294154 0
M  V30 30 H -0.194982 -6.608326 0.553629 0
M  V30 31 H 0.916545 -6.793636 -2.137893 0
M  V30 32 H 1.593954 -2.673607 0.379721 0
M  V30 33 H 1.354213 -0.334644 -0.044267 0
M  V30 34 H -0.423800 1.073872 -3.046932 0
M  V30 35 H -0.031622 5.196391 -1.210533 0
M  V30 36 H 0.711964 1.383858 2.293064 0
M  V30 37 H 1.981262 1.911570 3.878931 0
M  V30 38 H 1.300453 3.465047 5.439783 0
M  V30 39 H 1.889580 4.216202 3.941278 0
M  V30 40 H 0.077653 4.219745 4.390908 0
M  V30 41 H 0.409432 1.477393 5.536193 0
M  V30 42 H -0.318733 -0.671571 4.793407 0
M  V30 43 H 1.188237 -0.200593 3.980624 0
M  V30 44 H -0.385432 -0.148686 3.066827 0
M  V30 45 H -1.747698 1.551031 3.641994 0
M  V30 46 H -1.090548 -1.187374 -3.468755 0
M  V30 47 H -0.842194 -3.620658 -3.027096 0
M  V30 END ATOM
M  V30 BEGIN BOND
M  V30 1 1 1 2
M  V30 2 1 2 3
M  V30 3 2 3 4
M  V30 4 2 3 5
M  V30 5 1 3 6
M  V30 6 2 6 7
M  V30 7 1 7 8
M  V30 8 2 8 9
M  V30 9 1 9 10
M  V30 10 1 10 11
M  V30 11 2 11 12
M  V30 12 1 12 13
M  V30 13 2 13 14
M  V30 14 1 14 15
M  V30 15 1 14 16
M  V30 16 1 16 17
M  V30 17 1 17 18
M  V30 18 1 18 19
M  V30 19 1 18 20
M  V30 20 1 20 21
M  V30 21 1 20 22
M  V30 22 2 16 23
M  V30 23 1 9 24
M  V30 24 2 24 25
M  V30 25 1 25 6
M  V30 26 1 23 11
M  V30 27 1 1 26
M  V30 28 1 1 27
M  V30 29 1 1 28
M  V30 30 1 2 29
M  V30 31 1 2 30
M  V30 32 1 4 31
M  V30 33 1 7 32
M  V30 34 1 8 33
M  V30 35 1 10 34
M  V30 36 1 13 35
M  V30 37 1 17 36
M  V30 38 1 18 37 CFG=3
M  V30 39 1 19 38
M  V30 40 1 19 39
M  V30 41 1 19 40
M  V30 42 1 20 41 CFG=1
M  V30 43 1 21 42
M  V30 44 1 21 43
M  V30 45 1 21 44
M  V30 46 1 22 45
M  V30 47 1 24 46
M  V30 48 1 25 47
M  V30 END BOND
M  V30 END CTAB
M  END
>  <Dataset>  (132) 
ChEMBL_Kinases

>  <Ligand_Instance>  (132) 
nan

>  <PDB_ID>  (132) 
nan

>  <Standardized_SMILES>  (132) 
CCS(=N)(=O)c1ccc(Nc2ncc(Br)c(N[C@@H](C)[C@H](C)O)n2)cc1

>  <Name>  (132) 
nan

>  <Pocket>  (132) 
nan

>  <ATP_Site>  (132) 
nan

>  <Peripheral>  (132) 
nan

>  <Num_H_Atoms_ProtBoundConf>  (132) 
nan

>  <Num_Resolved_Atoms>  (132) 
nan

>  <Num_Not_Resolved_Atoms>  (132) 
nan

$$$$
CHEMBL3648123
     RDKit          3D

  0  0  0  0  0  0  0  0  0  0999 V3000
M  V30 BEGIN CTAB
M  V30 COUNTS 50 51 0 0 0
M  V30 BEGIN ATOM
M  V30 1 C -3.014056 -6.351841 0.466351 0
M  V30 2 C -2.619037 -4.916828 0.093376 0
M  V30 3 S -0.964592 -4.941448 -0.568884 0
M  V30 4 N -0.884630 -5.909129 -1.782873 0
M  V30 5 O -0.077668 -5.512780 0.526528 0
M  V30 6 C -0.433991 -3.336958 -1.020284 0
M  V30 7 C -0.662053 -2.921598 -2.308109 0
M  V30 8 C -0.290498 -1.682266 -2.771868 0
M  V30 9 C 0.352025 -0.767040 -1.931271 0
M  V30 10 N 0.781387 0.530244 -2.326395 0
M  V30 11 C 1.271779 1.644944 -1.591256 0
M  V30 12 N 1.667582 2.697259 -2.283928 0
M  V30 13 C 2.127063 3.783520 -1.658439 0
M  V30 14 C 2.180160 3.786160 -0.287969 0
M  V30 15 Br 2.843930 5.360869 0.552212 0
M  V30 16 C 1.776231 2.706422 0.484789 0
M  V30 17 N 1.856104 2.773539 1.885174 0
M  V30 18 C 1.503719 1.816311 2.880045 0 CFG=2
M  V30 19 C 2.264571 0.536518 2.618748 0
M  V30 20 C 0.036661 1.479207 2.957249 0
M  V30 21 C -0.795299 2.664195 3.398465 0
M  V30 22 C -0.092853 0.408610 4.017325 0
M  V30 23 O -0.420841 0.953699 1.757164 0
M  V30 24 N 1.336314 1.679494 -0.256580 0
M  V30 25 C 0.562036 -1.224426 -0.646348 0
M  V30 26 C 0.195267 -2.465218 -0.165052 0
M  V30 27 H -3.284491 -6.955798 -0.422430 0
M  V30 28 H -2.135341 -6.856534 0.955616 0
M  V30 29 H -3.825364 -6.376866 1.223217 0
M  V30 30 H -2.678392 -4.353717 1.028495 0
M  V30 31 H -3.310817 -4.607602 -0.704883 0
M  V30 32 H -0.083655 -6.552410 -1.851925 0
M  V30 33 H -1.150542 -3.533815 -3.057456 0
M  V30 34 H -0.477599 -1.358230 -3.808002 0
M  V30 35 H 0.696487 0.620436 -3.376727 0
M  V30 36 H 2.451115 4.644976 -2.231970 0
M  V30 37 H 2.240849 3.683460 2.285966 0
M  V30 38 H 1.822780 2.131449 3.908397 0
M  V30 39 H 2.930815 0.240607 3.457656 0
M  V30 40 H 1.571216 -0.304983 2.400065 0
M  V30 41 H 2.919876 0.641902 1.712737 0
M  V30 42 H -0.213882 3.539276 3.705161 0
M  V30 43 H -1.501979 2.421821 4.218367 0
M  V30 44 H -1.467698 2.963432 2.541441 0
M  V30 45 H -0.797461 -0.346099 3.665919 0
M  V30 46 H 0.878082 -0.062531 4.290378 0
M  V30 47 H -0.560176 0.845545 4.946888 0
M  V30 48 H -1.045189 1.566831 1.297795 0
M  V30 49 H 1.051875 -0.625904 0.099742 0
M  V30 50 H 0.371702 -2.798143 0.846647 0
M  V30 END ATOM
M  V30 BEGIN BOND
M  V30 1 1 1 2
M  V30 2 1 2 3
M  V30 3 2 3 4
M  V30 4 2 3 5
M  V30 5 1 3 6
M  V30 6 2 6 7
M  V30 7 1 7 8
M  V30 8 2 8 9
M  V30 9 1 9 10
M  V30 10 1 10 11
M  V30 11 2 11 12
M  V30 12 1 12 13
M  V30 13 2 13 14
M  V30 14 1 14 15
M  V30 15 1 14 16
M  V30 16 1 16 17
M  V30 17 1 17 18
M  V30 18 1 18 19
M  V30 19 1 18 20
M  V30 20 1 20 21
M  V30 21 1 20 22
M  V30 22 1 20 23
M  V30 23 2 16 24
M  V30 24 1 9 25
M  V30 25 2 25 26
M  V30 26 1 26 6
M  V30 27 1 24 11
M  V30 28 1 1 27
M  V30 29 1 1 28
M  V30 30 1 1 29
M  V30 31 1 2 30
M  V30 32 1 2 31
M  V30 33 1 4 32
M  V30 34 1 7 33
M  V30 35 1 8 34
M  V30 36 1 10 35
M  V30 37 1 13 36
M  V30 38 1 17 37
M  V30 39 1 18 38 CFG=1
M  V30 40 1 19 39
M  V30 41 1 19 40
M  V30 42 1 19 41
M  V30 43 1 21 42
M  V30 44 1 21 43
M  V30 45 1 21 44
M  V30 46 1 22 45
M  V30 47 1 22 46
M  V30 48 1 22 47
M  V30 49 1 23 48
M  V30 50 1 25 49
M  V30 51 1 26 50
M  V30 END BOND
M  V30 END CTAB
M  END
>  <Dataset>  (133) 
ChEMBL_Kinases

>  <Ligand_Instance>  (133) 
nan

>  <PDB_ID>  (133) 
nan

>  <Standardized_SMILES>  (133) 
CCS(=N)(=O)c1ccc(Nc2ncc(Br)c(N[C@H](C)C(C)(C)O)n2)cc1

>  <Name>  (133) 
nan

>  <Pocket>  (133) 
nan

>  <ATP_Site>  (133) 
nan

>  <Peripheral>  (133) 
nan

>  <Num_H_Atoms_ProtBoundConf>  (133) 
nan

>  <Num_Resolved_Atoms>  (133) 
nan

>  <Num_Not_Resolved_Atoms>  (133) 
nan

$$$$
CHEMBL3648124
     RDKit          3D

  0  0  0  0  0  0  0  0  0  0999 V3000
M  V30 BEGIN CTAB
M  V30 COUNTS 50 51 0 0 0
M  V30 BEGIN ATOM
M  V30 1 C 1.773398 -7.622758 -0.092087 0
M  V30 2 C 1.279897 -6.188668 -0.291947 0
M  V30 3 S 2.518746 -5.182809 -1.053136 0
M  V30 4 N 2.934925 -5.741828 -2.441012 0
M  V30 5 O 3.744413 -5.236932 -0.182735 0
M  V30 6 C 1.970330 -3.543082 -1.287769 0
M  V30 7 C 1.326720 -3.105071 -2.424128 0
M  V30 8 C 0.925043 -1.788034 -2.525826 0
M  V30 9 C 1.166585 -0.896737 -1.485114 0
M  V30 10 N 0.774351 0.490299 -1.522673 0
M  V30 11 C 1.062145 1.358132 -0.413553 0
M  V30 12 N 2.211778 2.032643 -0.400406 0
M  V30 13 C 2.556476 2.863444 0.598456 0
M  V30 14 C 1.725011 3.054906 1.664162 0
M  V30 15 Br 2.003184 4.173826 3.180451 0
M  V30 16 C 0.515534 2.347816 1.654483 0
M  V30 17 N -0.509399 2.359198 2.642781 0
M  V30 18 C -1.783816 1.791513 2.910374 0 CFG=1
M  V30 19 C -2.278318 2.162941 4.313120 0
M  V30 20 C -2.899997 2.190574 1.981998 0
M  V30 21 C -2.730324 1.822086 0.552552 0
M  V30 22 C -3.206613 3.670541 2.065278 0
M  V30 23 O -4.084284 1.537458 2.422769 0
M  V30 24 N 0.250591 1.549965 0.634414 0
M  V30 25 C 1.820259 -1.366704 -0.346055 0
M  V30 26 C 2.224857 -2.685784 -0.239074 0
M  V30 27 H 1.560480 -8.239537 -0.979188 0
M  V30 28 H 2.862432 -7.630291 0.128509 0
M  V30 29 H 1.279100 -8.084800 0.787990 0
M  V30 30 H 0.981522 -5.841620 0.693701 0
M  V30 31 H 0.414040 -6.249890 -0.968268 0
M  V30 32 H 3.698980 -6.433335 -2.449412 0
M  V30 33 H 1.152391 -3.800296 -3.206363 0
M  V30 34 H 0.422321 -1.418554 -3.396938 0
M  V30 35 H 0.283051 0.782027 -2.398561 0
M  V30 36 H 3.467862 3.449892 0.690559 0
M  V30 37 H -0.175835 3.018335 3.414486 0
M  V30 38 H -1.706216 0.685022 2.911123 0
M  V30 39 H -1.971327 3.198637 4.596051 0
M  V30 40 H -3.362835 2.060746 4.391421 0
M  V30 41 H -1.746477 1.486374 5.011947 0
M  V30 42 H -2.205364 2.631598 -0.019525 0
M  V30 43 H -3.778790 1.856416 0.107851 0
M  V30 44 H -2.390706 0.810124 0.337082 0
M  V30 45 H -3.766631 3.917396 2.972578 0
M  V30 46 H -3.864449 3.898262 1.190442 0
M  V30 47 H -2.307445 4.299591 1.911527 0
M  V30 48 H -3.973920 0.565702 2.379575 0
M  V30 49 H 2.010198 -0.661754 0.475806 0
M  V30 50 H 2.727648 -2.988419 0.671550 0
M  V30 END ATOM
M  V30 BEGIN BOND
M  V30 1 1 1 2
M  V30 2 1 2 3
M  V30 3 2 3 4
M  V30 4 2 3 5
M  V30 5 1 3 6
M  V30 6 2 6 7
M  V30 7 1 7 8
M  V30 8 2 8 9
M  V30 9 1 9 10
M  V30 10 1 10 11
M  V30 11 2 11 12
M  V30 12 1 12 13
M  V30 13 2 13 14
M  V30 14 1 14 15
M  V30 15 1 14 16
M  V30 16 1 16 17
M  V30 17 1 17 18
M  V30 18 1 18 19
M  V30 19 1 18 20
M  V30 20 1 20 21
M  V30 21 1 20 22
M  V30 22 1 20 23
M  V30 23 2 16 24
M  V30 24 1 9 25
M  V30 25 2 25 26
M  V30 26 1 26 6
M  V30 27 1 24 11
M  V30 28 1 1 27
M  V30 29 1 1 28
M  V30 30 1 1 29
M  V30 31 1 2 30
M  V30 32 1 2 31
M  V30 33 1 4 32
M  V30 34 1 7 33
M  V30 35 1 8 34
M  V30 36 1 10 35
M  V30 37 1 13 36
M  V30 38 1 17 37
M  V30 39 1 18 38 CFG=1
M  V30 40 1 19 39
M  V30 41 1 19 40
M  V30 42 1 19 41
M  V30 43 1 21 42
M  V30 44 1 21 43
M  V30 45 1 21 44
M  V30 46 1 22 45
M  V30 47 1 22 46
M  V30 48 1 22 47
M  V30 49 1 23 48
M  V30 50 1 25 49
M  V30 51 1 26 50
M  V30 END BOND
M  V30 END CTAB
M  END
>  <Dataset>  (134) 
ChEMBL_Kinases

>  <Ligand_Instance>  (134) 
nan

>  <PDB_ID>  (134) 
nan

>  <Standardized_SMILES>  (134) 
CCS(=N)(=O)c1ccc(Nc2ncc(Br)c(N[C@@H](C)C(C)(C)O)n2)cc1

>  <Name>  (134) 
nan

>  <Pocket>  (134) 
nan

>  <ATP_Site>  (134) 
nan

>  <Peripheral>  (134) 
nan

>  <Num_H_Atoms_ProtBoundConf>  (134) 
nan

>  <Num_Resolved_Atoms>  (134) 
nan

>  <Num_Not_Resolved_Atoms>  (134) 
nan

$$$$
CHEMBL3648125
     RDKit          3D

  0  0  0  0  0  0  0  0  0  0999 V3000
M  V30 BEGIN CTAB
M  V30 COUNTS 50 51 0 0 0
M  V30 BEGIN ATOM
M  V30 1 C -0.939427 -5.968060 1.867061 0
M  V30 2 C -0.849758 -4.776271 1.011928 0
M  V30 3 C 0.287786 -4.000499 1.133462 0
M  V30 4 C 0.450302 -2.848969 0.365366 0
M  V30 5 N 1.617338 -2.001954 0.422526 0
M  V30 6 C 1.663793 -0.785432 -0.304152 0
M  V30 7 N 1.738541 -0.958385 -1.646242 0
M  V30 8 C 1.783004 0.040101 -2.533506 0
M  V30 9 C 1.749031 1.341733 -2.024976 0
M  V30 10 Br 1.809690 2.887599 -3.128256 0
M  V30 11 C 1.674085 1.562092 -0.652067 0
M  V30 12 N 1.588684 2.846312 -0.035053 0
M  V30 13 C 1.552615 3.055415 1.394875 0 CFG=1
M  V30 14 C 2.887775 2.930706 2.069235 0
M  V30 15 C 0.734678 4.222609 1.841723 0
M  V30 16 C 1.150432 5.489092 1.138261 0
M  V30 17 C 0.748110 4.429364 3.318269 0
M  V30 18 O -0.621457 4.020744 1.461126 0
M  V30 19 N 1.635789 0.486598 0.132224 0
M  V30 20 C -0.572812 -2.513458 -0.522721 0
M  V30 21 C -1.707049 -3.313090 -0.623270 0
M  V30 22 C -1.862351 -4.453118 0.139391 0
M  V30 23 S -3.284736 -5.459508 -0.002420 0
M  V30 24 C -2.890518 -7.117339 -0.516611 0
M  V30 25 N -4.264580 -4.869783 -1.067512 0
M  V30 26 O -4.026810 -5.488902 1.303882 0
M  V30 27 H -0.188139 -6.753616 1.597413 0
M  V30 28 H -1.919672 -6.432631 1.796795 0
M  V30 29 H -0.810571 -5.721352 2.962121 0
M  V30 30 H 1.073370 -4.262761 1.822740 0
M  V30 31 H 2.425413 -2.333075 1.033239 0
M  V30 32 H 1.843107 -0.054302 -3.606657 0
M  V30 33 H 1.564786 3.607132 -0.763565 0
M  V30 34 H 0.967649 2.141561 1.803754 0
M  V30 35 H 3.441973 3.897499 2.136635 0
M  V30 36 H 3.548831 2.296151 1.413759 0
M  V30 37 H 2.773573 2.508066 3.064059 0
M  V30 38 H 1.103368 5.383444 0.040318 0
M  V30 39 H 2.102515 5.885903 1.518322 0
M  V30 40 H 0.390277 6.281294 1.403541 0
M  V30 41 H -0.017528 3.791905 3.841157 0
M  V30 42 H 1.721417 4.096998 3.777737 0
M  V30 43 H 0.505565 5.471786 3.608977 0
M  V30 44 H -1.233803 4.178195 2.219501 0
M  V30 45 H -0.515886 -1.638354 -1.141508 0
M  V30 46 H -2.502914 -3.056733 -1.311914 0
M  V30 47 H -3.403029 -7.393543 -1.465594 0
M  V30 48 H -1.795254 -7.141022 -0.670090 0
M  V30 49 H -3.142629 -7.827158 0.295358 0
M  V30 50 H -5.083050 -4.324426 -0.749373 0
M  V30 END ATOM
M  V30 BEGIN BOND
M  V30 1 1 1 2
M  V30 2 2 2 3
M  V30 3 1 3 4
M  V30 4 1 4 5
M  V30 5 1 5 6
M  V30 6 2 6 7
M  V30 7 1 7 8
M  V30 8 2 8 9
M  V30 9 1 9 10
M  V30 10 1 9 11
M  V30 11 1 11 12
M  V30 12 1 12 13
M  V30 13 1 13 14
M  V30 14 1 13 15
M  V30 15 1 15 16
M  V30 16 1 15 17
M  V30 17 1 15 18
M  V30 18 2 11 19
M  V30 19 2 4 20
M  V30 20 1 20 21
M  V30 21 2 21 22
M  V30 22 1 22 23
M  V30 23 1 23 24
M  V30 24 2 23 25
M  V30 25 2 23 26
M  V30 26 1 22 2
M  V30 27 1 19 6
M  V30 28 1 1 27
M  V30 29 1 1 28
M  V30 30 1 1 29
M  V30 31 1 3 30
M  V30 32 1 5 31
M  V30 33 1 8 32
M  V30 34 1 12 33
M  V30 35 1 13 34 CFG=1
M  V30 36 1 14 35
M  V30 37 1 14 36
M  V30 38 1 14 37
M  V30 39 1 16 38
M  V30 40 1 16 39
M  V30 41 1 16 40
M  V30 42 1 17 41
M  V30 43 1 17 42
M  V30 44 1 17 43
M  V30 45 1 18 44
M  V30 46 1 20 45
M  V30 47 1 21 46
M  V30 48 1 24 47
M  V30 49 1 24 48
M  V30 50 1 24 49
M  V30 51 1 25 50
M  V30 END BOND
M  V30 END CTAB
M  END
>  <Dataset>  (135) 
ChEMBL_Kinases

>  <Ligand_Instance>  (135) 
nan

>  <PDB_ID>  (135) 
nan

>  <Standardized_SMILES>  (135) 
Cc1cc(Nc2ncc(Br)c(N[C@@H](C)C(C)(C)O)n2)ccc1S(C)(=N)=O

>  <Name>  (135) 
nan

>  <Pocket>  (135) 
nan

>  <ATP_Site>  (135) 
nan

>  <Peripheral>  (135) 
nan

>  <Num_H_Atoms_ProtBoundConf>  (135) 
nan

>  <Num_Resolved_Atoms>  (135) 
nan

>  <Num_Not_Resolved_Atoms>  (135) 
nan

$$$$
CHEMBL3648126
     RDKit          3D

  0  0  0  0  0  0  0  0  0  0999 V3000
M  V30 BEGIN CTAB
M  V30 COUNTS 40 41 0 0 0
M  V30 BEGIN ATOM
M  V30 1 C 2.211291 -5.160032 3.086448 0
M  V30 2 C 1.921294 -3.661507 2.895614 0
M  V30 3 C 1.292915 -3.232932 4.229548 0
M  V30 4 N 1.068507 -3.439678 1.805916 0
M  V30 5 C 0.209681 -3.199887 0.709261 0
M  V30 6 N -0.239545 -2.018462 0.193524 0
M  V30 7 C -1.073293 -1.996296 -0.858384 0
M  V30 8 N -1.494476 -0.735868 -1.345782 0
M  V30 9 C -1.072402 0.557667 -0.959009 0
M  V30 10 C 0.065430 0.816287 -0.221445 0
M  V30 11 C 0.440935 2.107077 0.164332 0
M  V30 12 C -0.337232 3.173647 -0.193330 0
M  V30 13 S 0.089083 4.810893 0.256978 0
M  V30 14 C 0.896662 5.615513 -1.073252 0
M  V30 15 N 1.116846 4.768783 1.455796 0
M  V30 16 O -1.103312 5.572943 0.788418 0
M  V30 17 C -1.466126 2.904281 -0.927136 0
M  V30 18 C -1.877815 1.654960 -1.330460 0
M  V30 19 N -1.439322 -3.157357 -1.371309 0
M  V30 20 C -1.070091 -4.373140 -0.958522 0
M  V30 21 C -0.209992 -4.395226 0.125504 0
M  V30 22 Br 0.245390 -6.203871 0.586165 0
M  V30 23 H 2.733094 -5.609944 2.249674 0
M  V30 24 H 1.320800 -5.698170 3.429366 0
M  V30 25 H 2.920089 -5.192149 3.966940 0
M  V30 26 H 2.940489 -3.200487 2.852767 0
M  V30 27 H 0.647706 -2.345911 4.111864 0
M  V30 28 H 0.648854 -4.070839 4.622725 0
M  V30 29 H 2.042437 -3.055031 5.000444 0
M  V30 30 H 1.213644 -2.400532 2.046127 0
M  V30 31 H -2.214319 -0.812395 -2.092134 0
M  V30 32 H 0.732414 0.060598 0.097386 0
M  V30 33 H 1.330545 2.300663 0.738635 0
M  V30 34 H 1.759819 6.240025 -0.704452 0
M  V30 35 H 1.373902 4.872493 -1.748166 0
M  V30 36 H 0.184697 6.292122 -1.628658 0
M  V30 37 H 0.743399 4.370252 2.346114 0
M  V30 38 H -2.105943 3.745131 -1.225840 0
M  V30 39 H -2.767458 1.459315 -1.906774 0
M  V30 40 H -1.475117 -5.211383 -1.509065 0
M  V30 END ATOM
M  V30 BEGIN BOND
M  V30 1 1 1 2
M  V30 2 1 2 3
M  V30 3 1 2 4
M  V30 4 1 4 5
M  V30 5 2 5 6
M  V30 6 1 6 7
M  V30 7 1 7 8
M  V30 8 1 8 9
M  V30 9 2 9 10
M  V30 10 1 10 11
M  V30 11 2 11 12
M  V30 12 1 12 13
M  V30 13 1 13 14
M  V30 14 2 13 15
M  V30 15 2 13 16
M  V30 16 1 12 17
M  V30 17 2 17 18
M  V30 18 2 7 19
M  V30 19 1 19 20
M  V30 20 2 20 21
M  V30 21 1 21 22
M  V30 22 1 21 5
M  V30 23 1 18 9
M  V30 24 1 1 23
M  V30 25 1 1 24
M  V30 26 1 1 25
M  V30 27 1 2 26
M  V30 28 1 3 27
M  V30 29 1 3 28
M  V30 30 1 3 29
M  V30 31 1 4 30
M  V30 32 1 8 31
M  V30 33 1 10 32
M  V30 34 1 11 33
M  V30 35 1 14 34
M  V30 36 1 14 35
M  V30 37 1 14 36
M  V30 38 1 15 37
M  V30 39 1 17 38
M  V30 40 1 18 39
M  V30 41 1 20 40
M  V30 END BOND
M  V30 END CTAB
M  END
>  <Dataset>  (136) 
ChEMBL_Kinases

>  <Ligand_Instance>  (136) 
nan

>  <PDB_ID>  (136) 
nan

>  <Standardized_SMILES>  (136) 
CC(C)Nc1nc(Nc2ccc(S(C)(=N)=O)cc2)ncc1Br

>  <Name>  (136) 
nan

>  <Pocket>  (136) 
nan

>  <ATP_Site>  (136) 
nan

>  <Peripheral>  (136) 
nan

>  <Num_H_Atoms_ProtBoundConf>  (136) 
nan

>  <Num_Resolved_Atoms>  (136) 
nan

>  <Num_Not_Resolved_Atoms>  (136) 
nan

$$$$
CHEMBL3648127
     RDKit          3D

  0  0  0  0  0  0  0  0  0  0999 V3000
M  V30 BEGIN CTAB
M  V30 COUNTS 43 44 0 0 0
M  V30 BEGIN ATOM
M  V30 1 C -3.022222 -4.817298 0.887175 0
M  V30 2 C -1.664076 -4.796154 0.257128 0
M  V30 3 C -1.692056 -4.175385 -1.112252 0
M  V30 4 C -2.185587 -2.745175 -1.045357 0
M  V30 5 O -2.197566 -2.192780 -2.346351 0
M  V30 6 S -0.074820 -4.222874 -1.919371 0
M  V30 7 C 1.048100 -3.185781 -0.997563 0
M  V30 8 N 1.170321 -1.858668 -1.277484 0
M  V30 9 C 2.055623 -1.120305 -0.548913 0
M  V30 10 N 2.210396 0.274563 -0.805283 0
M  V30 11 C 1.872325 1.232227 0.185769 0
M  V30 12 C 2.031741 2.570009 -0.106560 0
M  V30 13 C 1.722070 3.512204 0.878801 0
M  V30 14 C 1.263362 3.107919 2.124058 0
M  V30 15 S 0.870487 4.227601 3.404299 0
M  V30 16 C 2.361755 4.459133 4.353597 0
M  V30 17 N 0.370251 5.586208 2.820162 0
M  V30 18 O -0.166196 3.606972 4.293392 0
M  V30 19 C 1.107010 1.743006 2.401071 0
M  V30 20 C 1.416728 0.818569 1.418710 0
M  V30 21 N 2.808147 -1.654400 0.432243 0
M  V30 22 C 2.719867 -2.975548 0.747527 0
M  V30 23 C 1.826638 -3.751207 0.020732 0
M  V30 24 Br 1.738805 -5.600226 0.479835 0
M  V30 25 H -2.991335 -4.280370 1.879917 0
M  V30 26 H -3.822681 -4.352290 0.292700 0
M  V30 27 H -3.332562 -5.856513 1.174197 0
M  V30 28 H -1.330537 -5.862161 0.158672 0
M  V30 29 H -0.977055 -4.229812 0.938375 0
M  V30 30 H -2.390836 -4.777177 -1.737348 0
M  V30 31 H -3.220146 -2.660974 -0.645536 0
M  V30 32 H -1.517661 -2.130810 -0.419371 0
M  V30 33 H -1.661457 -1.378852 -2.393282 0
M  V30 34 H 2.571611 0.553433 -1.733032 0
M  V30 35 H 2.385445 2.939493 -1.060368 0
M  V30 36 H 1.828266 4.578223 0.702811 0
M  V30 37 H 2.689167 3.420905 4.656883 0
M  V30 38 H 2.215629 5.098385 5.233871 0
M  V30 39 H 3.186608 4.825389 3.684733 0
M  V30 40 H -0.596656 5.891802 3.022097 0
M  V30 41 H 0.742099 1.431747 3.392372 0
M  V30 42 H 1.285564 -0.223924 1.658615 0
M  V30 43 H 3.320402 -3.408483 1.537125 0
M  V30 END ATOM
M  V30 BEGIN BOND
M  V30 1 1 1 2
M  V30 2 1 2 3
M  V30 3 1 3 4
M  V30 4 1 4 5
M  V30 5 1 3 6
M  V30 6 1 6 7
M  V30 7 2 7 8
M  V30 8 1 8 9
M  V30 9 1 9 10
M  V30 10 1 10 11
M  V30 11 2 11 12
M  V30 12 1 12 13
M  V30 13 2 13 14
M  V30 14 1 14 15
M  V30 15 1 15 16
M  V30 16 2 15 17
M  V30 17 2 15 18
M  V30 18 1 14 19
M  V30 19 2 19 20
M  V30 20 2 9 21
M  V30 21 1 21 22
M  V30 22 2 22 23
M  V30 23 1 23 24
M  V30 24 1 23 7
M  V30 25 1 20 11
M  V30 26 1 1 25
M  V30 27 1 1 26
M  V30 28 1 1 27
M  V30 29 1 2 28
M  V30 30 1 2 29
M  V30 31 1 3 30
M  V30 32 1 4 31
M  V30 33 1 4 32
M  V30 34 1 5 33
M  V30 35 1 10 34
M  V30 36 1 12 35
M  V30 37 1 13 36
M  V30 38 1 16 37
M  V30 39 1 16 38
M  V30 40 1 16 39
M  V30 41 1 17 40
M  V30 42 1 19 41
M  V30 43 1 20 42
M  V30 44 1 22 43
M  V30 END BOND
M  V30 END CTAB
M  END
>  <Dataset>  (137) 
ChEMBL_Kinases

>  <Ligand_Instance>  (137) 
nan

>  <PDB_ID>  (137) 
nan

>  <Standardized_SMILES>  (137) 
CCC(CO)Sc1nc(Nc2ccc(S(C)(=N)=O)cc2)ncc1Br

>  <Name>  (137) 
nan

>  <Pocket>  (137) 
nan

>  <ATP_Site>  (137) 
nan

>  <Peripheral>  (137) 
nan

>  <Num_H_Atoms_ProtBoundConf>  (137) 
nan

>  <Num_Resolved_Atoms>  (137) 
nan

>  <Num_Not_Resolved_Atoms>  (137) 
nan

$$$$
CHEMBL3648128
     RDKit          3D

  0  0  0  0  0  0  0  0  0  0999 V3000
M  V30 BEGIN CTAB
M  V30 COUNTS 43 44 0 0 0
M  V30 BEGIN ATOM
M  V30 1 C -2.688336 -4.005498 -0.645475 0
M  V30 2 C -2.203026 -4.907799 -1.750610 0
M  V30 3 C -2.045842 -6.330178 -1.236583 0
M  V30 4 O -3.231609 -4.981731 -2.709974 0
M  V30 5 C -0.920531 -4.437476 -2.386235 0
M  V30 6 S 0.509894 -4.335255 -1.358180 0
M  V30 7 C 0.502445 -3.200608 -0.028957 0
M  V30 8 N 0.849719 -1.928112 -0.245324 0
M  V30 9 C 0.925440 -0.964446 0.680489 0
M  V30 10 N 1.308014 0.341944 0.281956 0
M  V30 11 C 1.508360 1.498012 1.076805 0
M  V30 12 C 1.818475 2.718069 0.514033 0
M  V30 13 C 2.031400 3.853908 1.254250 0
M  V30 14 C 1.941007 3.822375 2.631728 0
M  V30 15 S 2.230916 5.322999 3.488796 0
M  V30 16 C 3.930855 5.543414 3.877178 0
M  V30 17 N 1.695725 6.475738 2.596067 0
M  V30 18 O 1.419045 5.355429 4.778003 0
M  V30 19 C 1.631680 2.627642 3.262039 0
M  V30 20 C 1.432873 1.532184 2.451128 0
M  V30 21 N 0.619909 -1.337070 1.929520 0
M  V30 22 C 0.253088 -2.566131 2.317172 0
M  V30 23 C 0.202348 -3.495542 1.300615 0
M  V30 24 Br -0.265509 -5.296744 1.717470 0
M  V30 25 H -2.845257 -4.549298 0.297976 0
M  V30 26 H -3.664871 -3.523398 -0.935036 0
M  V30 27 H -1.941889 -3.217480 -0.529319 0
M  V30 28 H -2.441232 -7.085786 -1.939541 0
M  V30 29 H -2.630622 -6.436496 -0.290187 0
M  V30 30 H -0.952088 -6.493260 -1.054985 0
M  V30 31 H -3.269614 -5.876351 -3.114606 0
M  V30 32 H -1.094892 -3.517682 -3.008469 0
M  V30 33 H -0.701975 -5.220639 -3.181910 0
M  V30 34 H 1.471616 0.495165 -0.754326 0
M  V30 35 H 1.905922 2.817218 -0.563461 0
M  V30 36 H 2.273019 4.787924 0.750141 0
M  V30 37 H 4.054732 5.610196 4.956241 0
M  V30 38 H 4.262146 6.501118 3.422908 0
M  V30 39 H 4.544570 4.689283 3.521104 0
M  V30 40 H 0.772086 6.900474 2.833935 0
M  V30 41 H 1.563665 2.610229 4.330180 0
M  V30 42 H 1.198425 0.641263 3.007101 0
M  V30 43 H 0.014886 -2.816985 3.345132 0
M  V30 END ATOM
M  V30 BEGIN BOND
M  V30 1 1 1 2
M  V30 2 1 2 3
M  V30 3 1 2 4
M  V30 4 1 2 5
M  V30 5 1 5 6
M  V30 6 1 6 7
M  V30 7 2 7 8
M  V30 8 1 8 9
M  V30 9 1 9 10
M  V30 10 1 10 11
M  V30 11 2 11 12
M  V30 12 1 12 13
M  V30 13 2 13 14
M  V30 14 1 14 15
M  V30 15 1 15 16
M  V30 16 2 15 17
M  V30 17 2 15 18
M  V30 18 1 14 19
M  V30 19 2 19 20
M  V30 20 2 9 21
M  V30 21 1 21 22
M  V30 22 2 22 23
M  V30 23 1 23 24
M  V30 24 1 23 7
M  V30 25 1 20 11
M  V30 26 1 1 25
M  V30 27 1 1 26
M  V30 28 1 1 27
M  V30 29 1 3 28
M  V30 30 1 3 29
M  V30 31 1 3 30
M  V30 32 1 4 31
M  V30 33 1 5 32
M  V30 34 1 5 33
M  V30 35 1 10 34
M  V30 36 1 12 35
M  V30 37 1 13 36
M  V30 38 1 16 37
M  V30 39 1 16 38
M  V30 40 1 16 39
M  V30 41 1 17 40
M  V30 42 1 19 41
M  V30 43 1 20 42
M  V30 44 1 22 43
M  V30 END BOND
M  V30 END CTAB
M  END
>  <Dataset>  (138) 
ChEMBL_Kinases

>  <Ligand_Instance>  (138) 
nan

>  <PDB_ID>  (138) 
nan

>  <Standardized_SMILES>  (138) 
CC(C)(O)CSc1nc(Nc2ccc(S(C)(=N)=O)cc2)ncc1Br

>  <Name>  (138) 
nan

>  <Pocket>  (138) 
nan

>  <ATP_Site>  (138) 
nan

>  <Peripheral>  (138) 
nan

>  <Num_H_Atoms_ProtBoundConf>  (138) 
nan

>  <Num_Resolved_Atoms>  (138) 
nan

>  <Num_Not_Resolved_Atoms>  (138) 
nan

$$$$
CHEMBL3627997
     RDKit          3D

  0  0  0  0  0  0  0  0  0  0999 V3000
M  V30 BEGIN CTAB
M  V30 COUNTS 41 45 0 0 0
M  V30 BEGIN ATOM
M  V30 1 O 2.590165 -5.604888 2.400525 0
M  V30 2 C 2.708216 -4.648738 1.613957 0
M  V30 3 C 1.824948 -3.492779 1.704238 0
M  V30 4 C 0.792067 -3.242169 2.577812 0
M  V30 5 N 0.138298 -2.031829 2.397954 0
M  V30 6 C 0.772713 -1.444277 1.342418 0
M  V30 7 C 1.776196 -2.325910 0.939612 0
M  V30 8 C 2.705036 -2.193934 -0.100236 0
M  V30 9 C 2.594946 -1.033189 -0.806629 0
M  V30 10 C 1.582089 -0.158262 -0.392145 0
M  V30 11 C 1.404497 1.042717 -1.077420 0
M  V30 12 C 2.026320 1.652565 -2.149582 0
M  V30 13 C 1.644041 2.865965 -2.637576 0
M  V30 14 C 0.598205 3.465669 -2.008220 0
M  V30 15 C -0.001324 2.851117 -0.955248 0
M  V30 16 C 0.347756 1.606360 -0.410822 0
M  V30 17 N -0.070094 0.790935 0.602236 0
M  V30 18 C 0.695254 -0.312460 0.621054 0
M  V30 19 C -1.205038 1.391836 1.333816 0
M  V30 20 C -1.617597 0.359002 2.366292 0
M  V30 21 C -2.141053 -0.876962 1.641413 0
M  V30 22 C -2.259546 -1.963279 2.700581 0
M  V30 23 C -0.881878 -1.907085 3.376003 0
M  V30 24 H 3.474500 -4.725438 0.889796 0
M  V30 25 H 0.695264 -4.096480 3.266529 0
M  V30 26 H 3.474026 -2.886580 -0.395337 0
M  V30 27 H 3.290290 -0.882162 -1.620978 0
M  V30 28 H 2.862528 1.162672 -2.644975 0
M  V30 29 H 2.161053 3.277756 -3.460276 0
M  V30 30 H 0.236125 4.425527 -2.333698 0
M  V30 31 H -0.822934 3.359845 -0.488846 0
M  V30 32 H -0.960633 2.352136 1.793326 0
M  V30 33 H -2.055660 1.522449 0.646009 0
M  V30 34 H -0.628688 0.130303 2.862994 0
M  V30 35 H -2.375926 0.686673 3.069798 0
M  V30 36 H -3.169338 -0.662894 1.232099 0
M  V30 37 H -1.515965 -1.162456 0.827424 0
M  V30 38 H -3.045813 -1.744065 3.431237 0
M  V30 39 H -2.323632 -2.964736 2.237354 0
M  V30 40 H -0.815411 -0.991518 3.991538 0
M  V30 41 H -0.951166 -2.687487 4.171058 0
M  V30 END ATOM
M  V30 BEGIN BOND
M  V30 1 2 1 2
M  V30 2 1 2 3
M  V30 3 2 3 4
M  V30 4 1 4 5
M  V30 5 1 5 6
M  V30 6 2 6 7
M  V30 7 1 7 8
M  V30 8 2 8 9
M  V30 9 1 9 10
M  V30 10 1 10 11
M  V30 11 2 11 12
M  V30 12 1 12 13
M  V30 13 2 13 14
M  V30 14 1 14 15
M  V30 15 2 15 16
M  V30 16 1 16 17
M  V30 17 1 17 18
M  V30 18 1 17 19
M  V30 19 1 19 20
M  V30 20 1 20 21
M  V30 21 1 21 22
M  V30 22 1 22 23
M  V30 23 1 7 3
M  V30 24 2 18 10
M  V30 25 1 23 5
M  V30 26 1 18 6
M  V30 27 1 16 11
M  V30 28 1 2 24
M  V30 29 1 4 25
M  V30 30 1 8 26
M  V30 31 1 9 27
M  V30 32 1 12 28
M  V30 33 1 13 29
M  V30 34 1 14 30
M  V30 35 1 15 31
M  V30 36 1 19 32
M  V30 37 1 19 33
M  V30 38 1 20 34
M  V30 39 1 20 35
M  V30 40 1 21 36
M  V30 41 1 21 37
M  V30 42 1 22 38
M  V30 43 1 22 39
M  V30 44 1 23 40
M  V30 45 1 23 41
M  V30 END BOND
M  V30 END CTAB
M  END
>  <Dataset>  (139) 
ChEMBL_Kinases

>  <Ligand_Instance>  (139) 
nan

>  <PDB_ID>  (139) 
nan

>  <Standardized_SMILES>  (139) 
O=Cc1cn2c3c1ccc1c4ccccc4n(c13)CCCCC2

>  <Name>  (139) 
nan

>  <Pocket>  (139) 
nan

>  <ATP_Site>  (139) 
nan

>  <Peripheral>  (139) 
nan

>  <Num_H_Atoms_ProtBoundConf>  (139) 
nan

>  <Num_Resolved_Atoms>  (139) 
nan

>  <Num_Not_Resolved_Atoms>  (139) 
nan

$$$$
CHEMBL3654250
     RDKit          3D

  0  0  0  0  0  0  0  0  0  0999 V3000
M  V30 BEGIN CTAB
M  V30 COUNTS 61 66 0 0 0
M  V30 BEGIN ATOM
M  V30 1 C 5.986938 -6.019534 2.338313 0
M  V30 2 N 7.020972 -5.138241 2.393266 0
M  V30 3 C 6.571414 -4.039374 1.790909 0
M  V30 4 C 5.274590 -4.238243 1.368167 0
M  V30 5 C 4.547056 -3.172979 0.671719 0
M  V30 6 C 4.938648 -1.884404 0.317853 0
M  V30 7 C 3.844919 -1.335470 -0.317226 0
M  V30 8 C 3.771751 -0.053335 -0.847653 0
M  V30 9 N 2.607753 0.289031 -1.429290 0
M  V30 10 C 1.571948 -0.596598 -1.480500 0
M  V30 11 N 0.289772 -0.384318 -2.057619 0
M  V30 12 C -0.753929 0.168879 -1.232183 0
M  V30 13 C -0.506171 0.484437 0.083233 0
M  V30 14 C -1.520968 1.020692 0.878707 0
M  V30 15 C -2.776733 1.225404 0.311704 0
M  V30 16 C -3.830110 1.789468 1.161183 0
M  V30 17 N -3.958539 3.191240 1.200630 0
M  V30 18 C -4.232498 3.900822 0.019380 0
M  V30 19 C -5.752962 3.982665 -0.109714 0
M  V30 20 N -6.326052 4.543407 1.077083 0
M  V30 21 C -5.359304 4.937384 2.079127 0
M  V30 22 C -4.430344 3.762259 2.413744 0
M  V30 23 C -2.991974 0.896888 -1.014639 0
M  V30 24 N -1.975404 0.378575 -1.747832 0
M  V30 25 N 1.692936 -1.828752 -0.951283 0
M  V30 26 C 2.818057 -2.261604 -0.349235 0
M  V30 27 N 3.269892 -3.377149 0.260916 0
M  V30 28 C 2.361888 -4.495997 0.349504 0
M  V30 29 C 1.861103 -4.944204 -1.016031 0
M  V30 30 C 0.759739 -5.919538 -0.609549 0
M  V30 31 C 0.227941 -5.398517 0.711526 0
M  V30 32 C 1.072703 -4.163925 1.047914 0
M  V30 33 O 4.969500 -5.452745 1.724544 0
M  V30 34 H 6.000224 -7.026824 2.736640 0
M  V30 35 H 7.247118 -3.181897 1.717001 0
M  V30 36 H 5.935524 -1.520302 0.558392 0
M  V30 37 H 4.563915 0.654508 -0.820332 0
M  V30 38 H 0.094695 -0.615794 -3.043376 0
M  V30 39 H 0.509642 0.294294 0.458880 0
M  V30 40 H -1.262801 1.249717 1.911734 0
M  V30 41 H -4.809695 1.331064 0.858392 0
M  V30 42 H -3.709190 1.454516 2.230551 0
M  V30 43 H -3.889087 4.951512 0.083634 0
M  V30 44 H -3.867216 3.357411 -0.853162 0
M  V30 45 H -6.092891 2.923728 -0.267579 0
M  V30 46 H -5.961820 4.553619 -1.032803 0
M  V30 47 H -6.837074 5.416542 0.803157 0
M  V30 48 H -4.767147 5.812708 1.766558 0
M  V30 49 H -5.936530 5.147962 3.008432 0
M  V30 50 H -5.091828 2.999980 2.899168 0
M  V30 51 H -3.682827 4.082621 3.136536 0
M  V30 52 H -3.963137 1.046291 -1.480878 0
M  V30 53 H 2.817464 -5.396740 0.814975 0
M  V30 54 H 2.671025 -5.428666 -1.594612 0
M  V30 55 H 1.366434 -4.116251 -1.521874 0
M  V30 56 H -0.038137 -5.958280 -1.375988 0
M  V30 57 H 1.245796 -6.909721 -0.487272 0
M  V30 58 H 0.443630 -6.142984 1.510829 0
M  V30 59 H -0.848543 -5.137968 0.665314 0
M  V30 60 H 0.599756 -3.300328 0.570883 0
M  V30 61 H 1.190354 -4.067556 2.145563 0
M  V30 END ATOM
M  V30 BEGIN BOND
M  V30 1 2 1 2
M  V30 2 1 2 3
M  V30 3 2 3 4
M  V30 4 1 4 5
M  V30 5 2 5 6
M  V30 6 1 6 7
M  V30 7 2 7 8
M  V30 8 1 8 9
M  V30 9 2 9 10
M  V30 10 1 10 11
M  V30 11 1 11 12
M  V30 12 2 12 13
M  V30 13 1 13 14
M  V30 14 2 14 15
M  V30 15 1 15 16
M  V30 16 1 16 17
M  V30 17 1 17 18
M  V30 18 1 18 19
M  V30 19 1 19 20
M  V30 20 1 20 21
M  V30 21 1 21 22
M  V30 22 1 15 23
M  V30 23 2 23 24
M  V30 24 1 10 25
M  V30 25 2 25 26
M  V30 26 1 26 27
M  V30 27 1 27 28
M  V30 28 1 28 29
M  V30 29 1 29 30
M  V30 30 1 30 31
M  V30 31 1 31 32
M  V30 32 1 4 33
M  V30 33 1 33 1
M  V30 34 1 27 5
M  V30 35 1 32 28
M  V30 36 1 26 7
M  V30 37 1 24 12
M  V30 38 1 22 17
M  V30 39 1 1 34
M  V30 40 1 3 35
M  V30 41 1 6 36
M  V30 42 1 8 37
M  V30 43 1 11 38
M  V30 44 1 13 39
M  V30 45 1 14 40
M  V30 46 1 16 41
M  V30 47 1 16 42
M  V30 48 1 18 43
M  V30 49 1 18 44
M  V30 50 1 19 45
M  V30 51 1 19 46
M  V30 52 1 20 47
M  V30 53 1 21 48
M  V30 54 1 21 49
M  V30 55 1 22 50
M  V30 56 1 22 51
M  V30 57 1 23 52
M  V30 58 1 28 53
M  V30 59 1 29 54
M  V30 60 1 29 55
M  V30 61 1 30 56
M  V30 62 1 30 57
M  V30 63 1 31 58
M  V30 64 1 31 59
M  V30 65 1 32 60
M  V30 66 1 32 61
M  V30 END BOND
M  V30 END CTAB
M  END
>  <Dataset>  (140) 
ChEMBL_Kinases

>  <Ligand_Instance>  (140) 
nan

>  <PDB_ID>  (140) 
nan

>  <Standardized_SMILES>  (140) 
c1ncc(-c2cc3cnc(Nc4ccc(CN5CCNCC5)cn4)nc3n2C2CCCC2)o1

>  <Name>  (140) 
nan

>  <Pocket>  (140) 
nan

>  <ATP_Site>  (140) 
nan

>  <Peripheral>  (140) 
nan

>  <Num_H_Atoms_ProtBoundConf>  (140) 
nan

>  <Num_Resolved_Atoms>  (140) 
nan

>  <Num_Not_Resolved_Atoms>  (140) 
nan

$$$$
CHEMBL3654243
     RDKit          3D

  0  0  0  0  0  0  0  0  0  0999 V3000
M  V30 BEGIN CTAB
M  V30 COUNTS 58 63 0 0 0
M  V30 BEGIN ATOM
M  V30 1 C 2.866505 -7.798100 -0.464100 0
M  V30 2 N 3.855368 -7.847348 0.461363 0
M  V30 3 C 4.040239 -6.572098 0.820364 0
M  V30 4 C 3.170909 -5.761633 0.117840 0
M  V30 5 C 3.120915 -4.303037 0.281817 0
M  V30 6 C 3.902373 -3.513698 1.133763 0
M  V30 7 C 3.519141 -2.199192 0.962348 0
M  V30 8 C 4.028851 -1.086549 1.604562 0
M  V30 9 N 3.480304 0.112416 1.260345 0
M  V30 10 C 2.485315 0.151340 0.326755 0
M  V30 11 N 1.844955 1.328636 -0.107579 0
M  V30 12 C 0.678586 1.885467 0.485470 0
M  V30 13 C 0.090649 3.041889 0.020898 0
M  V30 14 C -1.038199 3.595694 0.581895 0
M  V30 15 C -1.643823 2.996774 1.664083 0
M  V30 16 N -2.809318 3.478920 2.320319 0
M  V30 17 C -3.478275 2.893059 3.468453 0
M  V30 18 C -4.778663 2.320831 2.956154 0
M  V30 19 N -5.346658 3.016121 1.841224 0
M  V30 20 C -4.995906 4.382789 1.716558 0
M  V30 21 C -3.529724 4.673343 1.921448 0
M  V30 22 C -1.041957 1.855432 2.102585 0
M  V30 23 N 0.058147 1.328756 1.544559 0
M  V30 24 N 2.031408 -0.968978 -0.263878 0
M  V30 25 C 2.516185 -2.202095 0.015186 0
M  V30 26 N 2.279269 -3.465606 -0.391392 0
M  V30 27 C 1.292502 -3.776313 -1.367846 0
M  V30 28 C -0.133936 -3.650797 -0.937311 0
M  V30 29 C -0.916645 -3.481762 -2.241167 0
M  V30 30 C 0.099531 -3.271561 -3.333563 0
M  V30 31 C 1.370396 -2.893451 -2.596283 0
M  V30 32 O 2.466672 -6.560230 -0.661955 0
M  V30 33 H 2.496134 -8.702567 -0.944354 0
M  V30 34 H 4.771718 -6.223147 1.560765 0
M  V30 35 H 4.645683 -3.950893 1.772084 0
M  V30 36 H 4.815726 -1.160202 2.336768 0
M  V30 37 H 2.250588 1.830732 -0.920217 0
M  V30 38 H 0.548248 3.532188 -0.829777 0
M  V30 39 H -1.452583 4.493039 0.182424 0
M  V30 40 H -2.907691 2.066045 3.938108 0
M  V30 41 H -3.710571 3.667869 4.231315 0
M  V30 42 H -5.502087 2.311703 3.813730 0
M  V30 43 H -4.536317 1.301423 2.588328 0
M  V30 44 H -5.335211 2.478335 0.948988 0
M  V30 45 H -5.209929 4.672951 0.648746 0
M  V30 46 H -5.664928 5.020098 2.329038 0
M  V30 47 H -3.078088 5.240747 1.112270 0
M  V30 48 H -3.493082 5.357872 2.820770 0
M  V30 49 H -1.365496 1.249347 2.929265 0
M  V30 50 H 1.382406 -4.820421 -1.783215 0
M  V30 51 H -0.387246 -2.809351 -0.304682 0
M  V30 52 H -0.469160 -4.629424 -0.499995 0
M  V30 53 H -1.584671 -2.606076 -2.228684 0
M  V30 54 H -1.567066 -4.359123 -2.450768 0
M  V30 55 H -0.202556 -2.469341 -4.039824 0
M  V30 56 H 0.207502 -4.197204 -3.917533 0
M  V30 57 H 1.389711 -1.822682 -2.389494 0
M  V30 58 H 2.218460 -3.218793 -3.259706 0
M  V30 END ATOM
M  V30 BEGIN BOND
M  V30 1 2 1 2
M  V30 2 1 2 3
M  V30 3 2 3 4
M  V30 4 1 4 5
M  V30 5 2 5 6
M  V30 6 1 6 7
M  V30 7 2 7 8
M  V30 8 1 8 9
M  V30 9 2 9 10
M  V30 10 1 10 11
M  V30 11 1 11 12
M  V30 12 2 12 13
M  V30 13 1 13 14
M  V30 14 2 14 15
M  V30 15 1 15 16
M  V30 16 1 16 17
M  V30 17 1 17 18
M  V30 18 1 18 19
M  V30 19 1 19 20
M  V30 20 1 20 21
M  V30 21 1 15 22
M  V30 22 2 22 23
M  V30 23 1 10 24
M  V30 24 2 24 25
M  V30 25 1 25 26
M  V30 26 1 26 27
M  V30 27 1 27 28
M  V30 28 1 28 29
M  V30 29 1 29 30
M  V30 30 1 30 31
M  V30 31 1 4 32
M  V30 32 1 32 1
M  V30 33 1 26 5
M  V30 34 1 31 27
M  V30 35 1 25 7
M  V30 36 1 23 12
M  V30 37 1 21 16
M  V30 38 1 1 33
M  V30 39 1 3 34
M  V30 40 1 6 35
M  V30 41 1 8 36
M  V30 42 1 11 37
M  V30 43 1 13 38
M  V30 44 1 14 39
M  V30 45 1 17 40
M  V30 46 1 17 41
M  V30 47 1 18 42
M  V30 48 1 18 43
M  V30 49 1 19 44
M  V30 50 1 20 45
M  V30 51 1 20 46
M  V30 52 1 21 47
M  V30 53 1 21 48
M  V30 54 1 22 49
M  V30 55 1 27 50
M  V30 56 1 28 51
M  V30 57 1 28 52
M  V30 58 1 29 53
M  V30 59 1 29 54
M  V30 60 1 30 55
M  V30 61 1 30 56
M  V30 62 1 31 57
M  V30 63 1 31 58
M  V30 END BOND
M  V30 END CTAB
M  END
>  <Dataset>  (141) 
ChEMBL_Kinases

>  <Ligand_Instance>  (141) 
nan

>  <PDB_ID>  (141) 
nan

>  <Standardized_SMILES>  (141) 
c1ncc(-c2cc3cnc(Nc4ccc(N5CCNCC5)cn4)nc3n2C2CCCC2)o1

>  <Name>  (141) 
nan

>  <Pocket>  (141) 
nan

>  <ATP_Site>  (141) 
nan

>  <Peripheral>  (141) 
nan

>  <Num_H_Atoms_ProtBoundConf>  (141) 
nan

>  <Num_Resolved_Atoms>  (141) 
nan

>  <Num_Not_Resolved_Atoms>  (141) 
nan

$$$$
CHEMBL3652648
     RDKit          3D

  0  0  0  0  0  0  0  0  0  0999 V3000
M  V30 BEGIN CTAB
M  V30 COUNTS 52 55 0 0 0
M  V30 BEGIN ATOM
M  V30 1 C -4.206430 -3.455537 1.868050 0
M  V30 2 N -3.566929 -2.357480 1.161264 0
M  V30 3 N -4.236830 -1.452705 0.434660 0
M  V30 4 C -3.338156 -0.574100 -0.079610 0
M  V30 5 C -2.081061 -0.995055 0.374970 0
M  V30 6 N -1.021832 -0.162212 -0.040277 0
M  V30 7 C -0.153633 0.090720 -1.126324 0
M  V30 8 O -0.194240 -0.550381 -2.185368 0
M  V30 9 C 0.855747 1.165961 -1.011169 0
M  V30 10 N 1.083681 1.979046 0.020211 0
M  V30 11 C 1.892572 2.819443 0.075027 0
M  V30 12 C 2.305800 3.832537 1.132217 0
M  V30 13 C 3.335146 4.705644 0.856080 0
M  V30 14 F 4.003880 4.706801 -0.321132 0
M  V30 15 C 3.674075 5.601701 1.837919 0
M  V30 16 C 2.973051 5.585775 3.046070 0
M  V30 17 C 1.953289 4.678910 3.245798 0
M  V30 18 C 1.575728 3.758360 2.288908 0
M  V30 19 F 0.577918 2.859078 2.463306 0
M  V30 20 S 2.770460 2.795271 -1.516047 0
M  V30 21 C 1.677978 1.360408 -2.118658 0
M  V30 22 N 1.797232 0.745667 -3.412731 0
M  V30 23 C -2.229179 -2.118975 1.156377 0
M  V30 24 C -1.145506 -2.868950 1.815300 0
M  V30 25 C -1.267916 -4.356903 1.779881 0
M  V30 26 C -1.408153 -4.846217 0.388109 0
M  V30 27 C -0.005754 -4.668535 -0.236905 0
M  V30 28 N 0.976815 -5.293896 0.618139 0
M  V30 29 C 0.187453 -3.160067 -0.300678 0
M  V30 30 C 0.184400 -2.592243 1.088935 0
M  V30 31 H -5.322179 -3.275640 1.878020 0
M  V30 32 H -4.096385 -4.430830 1.378174 0
M  V30 33 H -3.937508 -3.439923 2.947988 0
M  V30 34 H -3.719613 0.227388 -0.696931 0
M  V30 35 H -0.856645 0.481045 0.796122 0
M  V30 36 H 4.468429 6.319873 1.703066 0
M  V30 37 H 3.277394 6.310898 3.787582 0
M  V30 38 H 1.410853 4.680058 4.204379 0
M  V30 39 H 2.064822 -0.237962 -3.508075 0
M  V30 40 H 1.617033 1.275642 -4.288025 0
M  V30 41 H -0.977777 -2.527222 2.863014 0
M  V30 42 H -0.273166 -4.749427 2.155542 0
M  V30 43 H -2.004063 -4.765325 2.493335 0
M  V30 44 H -2.035916 -4.119331 -0.174962 0
M  V30 45 H -1.773410 -5.865168 0.276496 0
M  V30 46 H 0.040772 -5.090831 -1.247513 0
M  V30 47 H 0.732701 -6.293482 0.706573 0
M  V30 48 H 1.910615 -5.126389 0.225701 0
M  V30 49 H 1.139196 -2.932275 -0.779041 0
M  V30 50 H -0.709607 -2.806582 -0.875317 0
M  V30 51 H 0.506715 -1.559180 1.162532 0
M  V30 52 H 0.932471 -3.203945 1.672708 0
M  V30 END ATOM
M  V30 BEGIN BOND
M  V30 1 1 1 2
M  V30 2 1 2 3
M  V30 3 2 3 4
M  V30 4 1 4 5
M  V30 5 1 5 6
M  V30 6 1 6 7
M  V30 7 2 7 8
M  V30 8 1 7 9
M  V30 9 1 9 10
M  V30 10 2 10 11
M  V30 11 1 11 12
M  V30 12 2 12 13
M  V30 13 1 13 14
M  V30 14 1 13 15
M  V30 15 2 15 16
M  V30 16 1 16 17
M  V30 17 2 17 18
M  V30 18 1 18 19
M  V30 19 1 11 20
M  V30 20 1 20 21
M  V30 21 1 21 22
M  V30 22 2 5 23
M  V30 23 1 23 24
M  V30 24 1 24 25
M  V30 25 1 25 26
M  V30 26 1 26 27
M  V30 27 1 27 28
M  V30 28 1 27 29
M  V30 29 1 29 30
M  V30 30 1 23 2
M  V30 31 1 30 24
M  V30 32 2 21 9
M  V30 33 1 18 12
M  V30 34 1 1 31
M  V30 35 1 1 32
M  V30 36 1 1 33
M  V30 37 1 4 34
M  V30 38 1 6 35
M  V30 39 1 15 36
M  V30 40 1 16 37
M  V30 41 1 17 38
M  V30 42 1 22 39
M  V30 43 1 22 40
M  V30 44 1 24 41
M  V30 45 1 25 42
M  V30 46 1 25 43
M  V30 47 1 26 44
M  V30 48 1 26 45
M  V30 49 1 27 46
M  V30 50 1 28 47
M  V30 51 1 28 48
M  V30 52 1 29 49
M  V30 53 1 29 50
M  V30 54 1 30 51
M  V30 55 1 30 52
M  V30 END BOND
M  V30 END CTAB
M  END
>  <Dataset>  (142) 
ChEMBL_Kinases

>  <Ligand_Instance>  (142) 
nan

>  <PDB_ID>  (142) 
nan

>  <Standardized_SMILES>  (142) 
Cn1ncc(NC(=O)c2nc(-c3c(F)cccc3F)sc2N)c1C1CCC(N)CC1

>  <Name>  (142) 
nan

>  <Pocket>  (142) 
nan

>  <ATP_Site>  (142) 
nan

>  <Peripheral>  (142) 
nan

>  <Num_H_Atoms_ProtBoundConf>  (142) 
nan

>  <Num_Resolved_Atoms>  (142) 
nan

>  <Num_Not_Resolved_Atoms>  (142) 
nan

$$$$
CHEMBL3975342
     RDKit          3D

  0  0  0  0  0  0  0  0  0  0999 V3000
M  V30 BEGIN CTAB
M  V30 COUNTS 53 56 0 0 0
M  V30 BEGIN ATOM
M  V30 1 O 3.982468 -4.106575 3.564055 0
M  V30 2 C 5.174721 -4.202885 3.123539 0
M  V30 3 O 5.294289 -5.274944 3.967389 0
M  V30 4 C 5.014164 -3.040321 2.221957 0
M  V30 5 C 3.619958 -2.461308 2.349382 0
M  V30 6 C 3.414985 -1.308239 1.474848 0
M  V30 7 O 4.405628 -0.993341 0.775902 0
M  V30 8 N 2.215220 -0.573787 1.387720 0
M  V30 9 C 1.926597 0.547669 0.576492 0
M  V30 10 C 2.765431 1.174001 -0.310341 0
M  V30 11 C 2.432417 2.268452 -1.075665 0
M  V30 12 C 1.165631 2.800702 -0.966106 0
M  V30 13 C 0.304361 2.188227 -0.081097 0
M  V30 14 C -1.031517 2.752005 0.048391 0
M  V30 15 N -1.235092 4.090318 0.178705 0
M  V30 16 N -2.527223 4.361889 0.279678 0
M  V30 17 C -3.220567 3.215407 0.219538 0
M  V30 18 C -4.571149 2.945662 0.274309 0
M  V30 19 C -4.898130 1.612033 0.173526 0
M  V30 20 C -3.988789 0.556541 0.025377 0
M  V30 21 N -4.543263 -0.742111 -0.058457 0
M  V30 22 S -4.155244 -2.238662 0.672988 0
M  V30 23 O -4.150340 -2.027353 2.185712 0
M  V30 24 O -5.127261 -3.309077 0.333387 0
M  V30 25 C -2.549340 -2.746675 0.218321 0
M  V30 26 C -2.508868 -3.478346 -0.976578 0
M  V30 27 C -1.351203 -3.978267 -1.509426 0
M  V30 28 C -0.160033 -3.770744 -0.868702 0
M  V30 29 C -0.194883 -3.054819 0.301577 0
M  V30 30 C -1.332991 -2.549932 0.847359 0
M  V30 31 C -2.653294 0.886996 -0.022740 0
M  V30 32 C -2.295944 2.205337 0.075051 0
M  V30 33 C 0.685192 1.103639 0.654982 0
M  V30 34 H 5.235734 -6.236486 3.603161 0
M  V30 35 H 5.273912 -3.333403 1.203808 0
M  V30 36 H 5.771524 -2.278370 2.549860 0
M  V30 37 H 3.488532 -2.139747 3.398166 0
M  V30 38 H 2.898397 -3.285191 2.180792 0
M  V30 39 H 1.484506 -0.950314 2.026539 0
M  V30 40 H 3.767944 0.802296 -0.438252 0
M  V30 41 H 3.139551 2.712772 -1.753790 0
M  V30 42 H 0.908812 3.656810 -1.566432 0
M  V30 43 H -2.945816 5.320903 0.389375 0
M  V30 44 H -5.334370 3.702150 0.386990 0
M  V30 45 H -5.971106 1.393705 0.216760 0
M  V30 46 H -5.374267 -0.781584 -0.723880 0
M  V30 47 H -3.398003 -3.707747 -1.577512 0
M  V30 48 H -1.317162 -4.543284 -2.431423 0
M  V30 49 H 0.774679 -4.134736 -1.233703 0
M  V30 50 H 0.724151 -2.875059 0.830886 0
M  V30 51 H -1.449713 -1.978037 1.759540 0
M  V30 52 H -1.931882 0.095871 -0.137135 0
M  V30 53 H -0.065289 0.693979 1.322780 0
M  V30 END ATOM
M  V30 BEGIN BOND
M  V30 1 2 1 2
M  V30 2 1 2 3
M  V30 3 1 2 4
M  V30 4 1 4 5
M  V30 5 1 5 6
M  V30 6 2 6 7
M  V30 7 1 6 8
M  V30 8 1 8 9
M  V30 9 2 9 10
M  V30 10 1 10 11
M  V30 11 2 11 12
M  V30 12 1 12 13
M  V30 13 1 13 14
M  V30 14 2 14 15
M  V30 15 1 15 16
M  V30 16 1 16 17
M  V30 17 2 17 18
M  V30 18 1 18 19
M  V30 19 2 19 20
M  V30 20 1 20 21
M  V30 21 1 21 22
M  V30 22 2 22 23
M  V30 23 2 22 24
M  V30 24 1 22 25
M  V30 25 2 25 26
M  V30 26 1 26 27
M  V30 27 2 27 28
M  V30 28 1 28 29
M  V30 29 2 29 30
M  V30 30 1 20 31
M  V30 31 2 31 32
M  V30 32 2 13 33
M  V30 33 1 33 9
M  V30 34 1 32 14
M  V30 35 1 32 17
M  V30 36 1 30 25
M  V30 37 1 3 34
M  V30 38 1 4 35
M  V30 39 1 4 36
M  V30 40 1 5 37
M  V30 41 1 5 38
M  V30 42 1 8 39
M  V30 43 1 10 40
M  V30 44 1 11 41
M  V30 45 1 12 42
M  V30 46 1 16 43
M  V30 47 1 18 44
M  V30 48 1 19 45
M  V30 49 1 21 46
M  V30 50 1 26 47
M  V30 51 1 27 48
M  V30 52 1 28 49
M  V30 53 1 29 50
M  V30 54 1 30 51
M  V30 55 1 31 52
M  V30 56 1 33 53
M  V30 END BOND
M  V30 END CTAB
M  END
>  <Dataset>  (143) 
ChEMBL_Kinases

>  <Ligand_Instance>  (143) 
nan

>  <PDB_ID>  (143) 
nan

>  <Standardized_SMILES>  (143) 
O=C(O)CCC(=O)Nc1cccc(-c2n[nH]c3ccc(NS(=O)(=O)c4ccccc4)cc23)c1

>  <Name>  (143) 
nan

>  <Pocket>  (143) 
nan

>  <ATP_Site>  (143) 
nan

>  <Peripheral>  (143) 
nan

>  <Num_H_Atoms_ProtBoundConf>  (143) 
nan

>  <Num_Resolved_Atoms>  (143) 
nan

>  <Num_Not_Resolved_Atoms>  (143) 
nan

$$$$
CHEMBL3652647
     RDKit          3D

  0  0  0  0  0  0  0  0  0  0999 V3000
M  V30 BEGIN CTAB
M  V30 COUNTS 57 60 0 0 0
M  V30 BEGIN ATOM
M  V30 1 C -2.062092 -5.468127 2.879641 0
M  V30 2 C -0.624159 -5.348618 2.417588 0
M  V30 3 N -0.090184 -4.032992 2.709318 0
M  V30 4 N 0.528398 -3.722004 3.843667 0
M  V30 5 C 0.916837 -2.437956 3.841420 0
M  V30 6 C 0.531032 -1.872831 2.635648 0
M  V30 7 N 0.644856 -0.591521 2.038917 0
M  V30 8 C -0.268585 0.489623 2.130300 0
M  V30 9 O -1.264988 0.240516 2.820685 0
M  V30 10 C -0.042115 1.767106 1.468598 0
M  V30 11 N 1.006162 2.059440 0.729056 0
M  V30 12 C 1.210886 3.090125 0.181993 0
M  V30 13 C 2.326399 3.621487 -0.696468 0
M  V30 14 C 2.235987 4.909065 -1.175667 0
M  V30 15 C 3.295820 5.334211 -1.977629 0
M  V30 16 C 4.355213 4.462760 -2.243016 0
M  V30 17 C 4.376363 3.187599 -1.728022 0
M  V30 18 C 3.327439 2.733408 -0.920463 0
M  V30 19 F 3.329977 1.476229 -0.401899 0
M  V30 20 S -0.201874 4.173953 0.567550 0
M  V30 21 C -1.006749 2.806301 1.608106 0
M  V30 22 N -2.244175 2.744921 2.363811 0
M  V30 23 C -0.097613 -2.901485 1.950634 0
M  V30 24 N -0.695320 -2.873863 0.638106 0
M  V30 25 C -2.082616 -2.535989 0.585081 0
M  V30 26 C -2.746245 -3.402492 -0.451654 0
M  V30 27 C -2.296429 -3.222623 -1.844501 0
M  V30 28 C -1.416186 -2.044005 -2.131439 0 CFG=1
M  V30 29 N -2.044424 -0.787029 -1.717423 0
M  V30 30 C -0.029787 -2.173989 -1.600806 0
M  V30 31 C 0.135563 -3.181873 -0.492024 0
M  V30 32 H -2.401885 -4.508961 3.338696 0
M  V30 33 H -2.710309 -5.704622 1.988987 0
M  V30 34 H -2.170081 -6.296524 3.633318 0
M  V30 35 H -0.536214 -5.606027 1.342220 0
M  V30 36 H -0.026821 -6.120663 2.953567 0
M  V30 37 H 1.436938 -1.821267 4.561797 0
M  V30 38 H 1.535189 -0.478384 1.467451 0
M  V30 39 H 1.421639 5.562617 -0.964892 0
M  V30 40 H 3.320028 6.336180 -2.406419 0
M  V30 41 H 5.198707 4.783870 -2.874181 0
M  V30 42 H 5.205405 2.515581 -1.939802 0
M  V30 43 H -2.096679 2.922596 3.381012 0
M  V30 44 H -3.020644 2.532512 1.708031 0
M  V30 45 H -2.515810 -2.887652 1.567979 0
M  V30 46 H -2.327465 -1.476501 0.540877 0
M  V30 47 H -3.849036 -3.293437 -0.398324 0
M  V30 48 H -2.558803 -4.460876 -0.103226 0
M  V30 49 H -1.720191 -4.117321 -2.169754 0
M  V30 50 H -3.159641 -3.151080 -2.556585 0
M  V30 51 H -1.347820 -1.948556 -3.235511 0
M  V30 52 H -1.621993 -0.011452 -2.296390 0
M  V30 53 H -3.034792 -0.852080 -2.065063 0
M  V30 54 H 0.274820 -1.148833 -1.264305 0
M  V30 55 H 0.671241 -2.425766 -2.416037 0
M  V30 56 H -0.124013 -4.179342 -0.901721 0
M  V30 57 H 1.212853 -3.177115 -0.229745 0
M  V30 END ATOM
M  V30 BEGIN BOND
M  V30 1 1 1 2
M  V30 2 1 2 3
M  V30 3 1 3 4
M  V30 4 2 4 5
M  V30 5 1 5 6
M  V30 6 1 6 7
M  V30 7 1 7 8
M  V30 8 2 8 9
M  V30 9 1 8 10
M  V30 10 1 10 11
M  V30 11 2 11 12
M  V30 12 1 12 13
M  V30 13 2 13 14
M  V30 14 1 14 15
M  V30 15 2 15 16
M  V30 16 1 16 17
M  V30 17 2 17 18
M  V30 18 1 18 19
M  V30 19 1 12 20
M  V30 20 1 20 21
M  V30 21 1 21 22
M  V30 22 2 6 23
M  V30 23 1 23 24
M  V30 24 1 24 25
M  V30 25 1 25 26
M  V30 26 1 26 27
M  V30 27 1 27 28
M  V30 28 1 28 29
M  V30 29 1 28 30
M  V30 30 1 30 31
M  V30 31 1 23 3
M  V30 32 1 31 24
M  V30 33 2 21 10
M  V30 34 1 18 13
M  V30 35 1 1 32
M  V30 36 1 1 33
M  V30 37 1 1 34
M  V30 38 1 2 35
M  V30 39 1 2 36
M  V30 40 1 5 37
M  V30 41 1 7 38
M  V30 42 1 14 39
M  V30 43 1 15 40
M  V30 44 1 16 41
M  V30 45 1 17 42
M  V30 46 1 22 43
M  V30 47 1 22 44
M  V30 48 1 25 45
M  V30 49 1 25 46
M  V30 50 1 26 47
M  V30 51 1 26 48
M  V30 52 1 27 49
M  V30 53 1 27 50
M  V30 54 1 28 51 CFG=3
M  V30 55 1 29 52
M  V30 56 1 29 53
M  V30 57 1 30 54
M  V30 58 1 30 55
M  V30 59 1 31 56
M  V30 60 1 31 57
M  V30 END BOND
M  V30 END CTAB
M  END
>  <Dataset>  (144) 
ChEMBL_Kinases

>  <Ligand_Instance>  (144) 
nan

>  <PDB_ID>  (144) 
nan

>  <Standardized_SMILES>  (144) 
CCn1ncc(NC(=O)c2nc(-c3ccccc3F)sc2N)c1N1CCC[C@@H](N)CC1

>  <Name>  (144) 
nan

>  <Pocket>  (144) 
nan

>  <ATP_Site>  (144) 
nan

>  <Peripheral>  (144) 
nan

>  <Num_H_Atoms_ProtBoundConf>  (144) 
nan

>  <Num_Resolved_Atoms>  (144) 
nan

>  <Num_Not_Resolved_Atoms>  (144) 
nan

$$$$
CHEMBL3974543
     RDKit          3D

  0  0  0  0  0  0  0  0  0  0999 V3000
M  V30 BEGIN CTAB
M  V30 COUNTS 49 52 0 0 0
M  V30 BEGIN ATOM
M  V30 1 C -0.414501 -5.069370 0.352416 0
M  V30 2 C 0.347734 -3.786875 0.310879 0
M  V30 3 N 1.688538 -3.904205 0.089114 0
M  V30 4 C 2.395567 -2.773858 0.052730 0
M  V30 5 C 3.740994 -2.942659 -0.174295 0
M  V30 6 C 4.565827 -1.846445 -0.232861 0
M  V30 7 C 4.024991 -0.592619 -0.061916 0
M  V30 8 C 2.681771 -0.357489 0.169161 0
M  V30 9 C 2.160610 0.988789 0.341601 0
M  V30 10 C 2.951748 2.117032 0.280605 0
M  V30 11 C 2.186386 3.229761 0.478350 0
M  V30 12 C 0.897602 2.797486 0.666221 0
M  V30 13 N 0.923732 1.455887 0.577445 0
M  V30 14 C 0.001097 3.958968 0.889515 0 CFG=1
M  V30 15 C -0.576803 3.956898 2.292022 0
M  V30 16 N 0.892603 5.099827 0.812360 0
M  V30 17 C 2.239583 4.683439 0.561231 0
M  V30 18 O 3.209547 5.482015 0.449760 0
M  V30 19 C 1.921213 -1.501711 0.214202 0
M  V30 20 N 0.611078 -1.408333 0.429336 0
M  V30 21 C -0.163841 -2.493085 0.479541 0
M  V30 22 N -1.568741 -2.581407 0.687631 0
M  V30 23 C -2.952884 -2.668388 0.892650 0
M  V30 24 C -3.479619 -4.112123 0.816263 0
M  V30 25 C -3.377856 -2.185931 2.271165 0
M  V30 26 C -3.782686 -1.950946 -0.186067 0
M  V30 27 H -1.089646 -5.212507 -0.485909 0
M  V30 28 H 0.317670 -5.928588 0.301340 0
M  V30 29 H -0.850125 -5.161834 1.364667 0
M  V30 30 H 4.203522 -3.915934 -0.314273 0
M  V30 31 H 5.630102 -1.955404 -0.410908 0
M  V30 32 H 4.712931 0.242489 -0.115912 0
M  V30 33 H 4.029799 2.151199 0.102822 0
M  V30 34 H 0.074388 0.863624 0.681873 0
M  V30 35 H -0.777403 3.979044 0.103241 0
M  V30 36 H -1.673736 3.781658 2.271882 0
M  V30 37 H -0.356415 4.899643 2.848917 0
M  V30 38 H -0.113882 3.085764 2.828405 0
M  V30 39 H 0.584935 6.103475 0.926920 0
M  V30 40 H -1.752462 -1.531633 0.795500 0
M  V30 41 H -4.584504 -3.992643 0.922843 0
M  V30 42 H -3.329063 -4.495283 -0.201662 0
M  V30 43 H -3.157911 -4.736961 1.640478 0
M  V30 44 H -3.139021 -2.998888 2.992079 0
M  V30 45 H -2.829077 -1.276777 2.551388 0
M  V30 46 H -4.473552 -2.070170 2.243342 0
M  V30 47 H -3.498730 -0.900992 -0.280565 0
M  V30 48 H -4.845843 -2.107569 0.137381 0
M  V30 49 H -3.612769 -2.523823 -1.117309 0
M  V30 END ATOM
M  V30 BEGIN BOND
M  V30 1 1 1 2
M  V30 2 2 2 3
M  V30 3 1 3 4
M  V30 4 2 4 5
M  V30 5 1 5 6
M  V30 6 2 6 7
M  V30 7 1 7 8
M  V30 8 1 8 9
M  V30 9 2 9 10
M  V30 10 1 10 11
M  V30 11 2 11 12
M  V30 12 1 12 13
M  V30 13 1 12 14
M  V30 14 1 14 15
M  V30 15 1 14 16
M  V30 16 1 16 17
M  V30 17 2 17 18
M  V30 18 2 8 19
M  V30 19 1 19 20
M  V30 20 2 20 21
M  V30 21 1 21 22
M  V30 22 1 22 23
M  V30 23 1 23 24
M  V30 24 1 23 25
M  V30 25 1 23 26
M  V30 26 1 21 2
M  V30 27 1 19 4
M  V30 28 1 13 9
M  V30 29 1 17 11
M  V30 30 1 1 27
M  V30 31 1 1 28
M  V30 32 1 1 29
M  V30 33 1 5 30
M  V30 34 1 6 31
M  V30 35 1 7 32
M  V30 36 1 10 33
M  V30 37 1 13 34
M  V30 38 1 14 35 CFG=3
M  V30 39 1 15 36
M  V30 40 1 15 37
M  V30 41 1 15 38
M  V30 42 1 16 39
M  V30 43 1 22 40
M  V30 44 1 24 41
M  V30 45 1 24 42
M  V30 46 1 24 43
M  V30 47 1 25 44
M  V30 48 1 25 45
M  V30 49 1 25 46
M  V30 50 1 26 47
M  V30 51 1 26 48
M  V30 52 1 26 49
M  V30 END BOND
M  V30 END CTAB
M  END
>  <Dataset>  (145) 
ChEMBL_Kinases

>  <Ligand_Instance>  (145) 
nan

>  <PDB_ID>  (145) 
nan

>  <Standardized_SMILES>  (145) 
Cc1nc2cccc(-c3cc4c([nH]3)[C@@H](C)NC4=O)c2nc1NC(C)(C)C

>  <Name>  (145) 
nan

>  <Pocket>  (145) 
nan

>  <ATP_Site>  (145) 
nan

>  <Peripheral>  (145) 
nan

>  <Num_H_Atoms_ProtBoundConf>  (145) 
nan

>  <Num_Resolved_Atoms>  (145) 
nan

>  <Num_Not_Resolved_Atoms>  (145) 
nan

$$$$
CHEMBL3974415
     RDKit          3D

  0  0  0  0  0  0  0  0  0  0999 V3000
M  V30 BEGIN CTAB
M  V30 COUNTS 55 59 0 0 0
M  V30 BEGIN ATOM
M  V30 1 C 2.088277 -0.317450 3.640197 0
M  V30 2 C 2.741077 -0.205291 2.274048 0 CFG=2
M  V30 3 N 3.635891 -1.326175 2.104496 0
M  V30 4 C 3.567817 1.060150 2.200737 0
M  V30 5 C 4.422117 0.911469 0.963014 0
M  V30 6 C 3.585046 0.342933 -0.123935 0
M  V30 7 N 2.147673 0.629843 0.059383 0
M  V30 8 C 1.592819 1.578744 -0.824719 0
M  V30 9 C 2.436807 2.602157 -1.282462 0
M  V30 10 C 2.066267 3.642711 -2.100511 0
M  V30 11 N 0.757347 3.665000 -2.491204 0
M  V30 12 C -0.075504 2.697680 -2.069404 0
M  V30 13 C 0.280504 1.650529 -1.252038 0
M  V30 14 N -0.609828 0.626739 -0.860900 0
M  V30 15 C -2.005815 0.539433 -1.120402 0
M  V30 16 N -2.767574 1.419283 -1.787940 0
M  V30 17 C -4.050447 1.047973 -1.860609 0
M  V30 18 C -4.097562 -0.145338 -1.193846 0
M  V30 19 C -5.154364 -0.998105 -0.943373 0
M  V30 20 C -4.934302 -2.161828 -0.234422 0
M  V30 21 C -3.652053 -2.427786 0.199704 0
M  V30 22 C -3.240616 -3.605598 0.959029 0
M  V30 23 C -2.851669 -4.645375 0.137608 0
M  V30 24 F -2.837086 -4.620578 -1.217640 0
M  V30 25 C -2.427914 -5.848222 0.697978 0
M  V30 26 C -2.400397 -5.991504 2.087742 0
M  V30 27 C -2.795344 -4.934298 2.892573 0
M  V30 28 C -3.214561 -3.744155 2.335049 0
M  V30 29 F -3.620141 -2.652007 3.029419 0
M  V30 30 N -2.678283 -1.544542 -0.086392 0
M  V30 31 N -2.859661 -0.422661 -0.763057 0
M  V30 32 C 1.683749 -0.133947 1.154699 0
M  V30 33 H 2.852467 -0.675227 4.343219 0
M  V30 34 H 1.616230 0.625569 3.916458 0
M  V30 35 H 1.296337 -1.088606 3.540738 0
M  V30 36 H 3.054231 -2.111719 1.696259 0
M  V30 37 H 3.972097 -1.700269 3.031136 0
M  V30 38 H 4.162658 1.234643 3.106865 0
M  V30 39 H 2.858467 1.905485 1.991612 0
M  V30 40 H 4.935235 1.856648 0.698026 0
M  V30 41 H 5.248199 0.199357 1.256131 0
M  V30 42 H 3.973318 0.758936 -1.077494 0
M  V30 43 H 3.694913 -0.766345 -0.181833 0
M  V30 44 H 3.503664 2.696133 -1.032937 0
M  V30 45 H 2.713977 4.430969 -2.453959 0
M  V30 46 H -1.073270 2.831274 -2.448558 0
M  V30 47 H -0.259380 -0.193535 -0.332446 0
M  V30 48 H -4.841526 1.594822 -2.345641 0
M  V30 49 H -6.150942 -0.765461 -1.295472 0
M  V30 50 H -5.685526 -2.873283 0.003363 0
M  V30 51 H -2.110474 -6.700183 0.096719 0
M  V30 52 H -2.083821 -6.893043 2.566879 0
M  V30 53 H -2.791628 -4.996792 3.975829 0
M  V30 54 H 0.782014 0.184495 1.686433 0
M  V30 55 H 1.545572 -1.184588 0.843096 0
M  V30 END ATOM
M  V30 BEGIN BOND
M  V30 1 1 1 2
M  V30 2 1 2 3 CFG=3
M  V30 3 1 2 4
M  V30 4 1 4 5
M  V30 5 1 5 6
M  V30 6 1 6 7
M  V30 7 1 7 8
M  V30 8 2 8 9
M  V30 9 1 9 10
M  V30 10 2 10 11
M  V30 11 1 11 12
M  V30 12 2 12 13
M  V30 13 1 13 14
M  V30 14 1 14 15
M  V30 15 2 15 16
M  V30 16 1 16 17
M  V30 17 2 17 18
M  V30 18 1 18 19
M  V30 19 2 19 20
M  V30 20 1 20 21
M  V30 21 1 21 22
M  V30 22 2 22 23
M  V30 23 1 23 24
M  V30 24 1 23 25
M  V30 25 2 25 26
M  V30 26 1 26 27
M  V30 27 2 27 28
M  V30 28 1 28 29
M  V30 29 2 21 30
M  V30 30 1 30 31
M  V30 31 1 7 32
M  V30 32 1 32 2
M  V30 33 1 13 8
M  V30 34 1 31 15
M  V30 35 1 31 18
M  V30 36 1 28 22
M  V30 37 1 1 33
M  V30 38 1 1 34
M  V30 39 1 1 35
M  V30 40 1 3 36
M  V30 41 1 3 37
M  V30 42 1 4 38
M  V30 43 1 4 39
M  V30 44 1 5 40
M  V30 45 1 5 41
M  V30 46 1 6 42
M  V30 47 1 6 43
M  V30 48 1 9 44
M  V30 49 1 10 45
M  V30 50 1 12 46
M  V30 51 1 14 47
M  V30 52 1 17 48
M  V30 53 1 19 49
M  V30 54 1 20 50
M  V30 55 1 25 51
M  V30 56 1 26 52
M  V30 57 1 27 53
M  V30 58 1 32 54
M  V30 59 1 32 55
M  V30 END BOND
M  V30 END CTAB
M  END
>  <Dataset>  (146) 
ChEMBL_Kinases

>  <Ligand_Instance>  (146) 
nan

>  <PDB_ID>  (146) 
nan

>  <Standardized_SMILES>  (146) 
C[C@]1(N)CCCN(c2ccncc2Nc2ncc3ccc(-c4c(F)cccc4F)nn23)C1

>  <Name>  (146) 
nan

>  <Pocket>  (146) 
nan

>  <ATP_Site>  (146) 
nan

>  <Peripheral>  (146) 
nan

>  <Num_H_Atoms_ProtBoundConf>  (146) 
nan

>  <Num_Resolved_Atoms>  (146) 
nan

>  <Num_Not_Resolved_Atoms>  (146) 
nan

$$$$
CHEMBL3974375
     RDKit          3D

  0  0  0  0  0  0  0  0  0  0999 V3000
M  V30 BEGIN CTAB
M  V30 COUNTS 54 57 0 0 0
M  V30 BEGIN ATOM
M  V30 1 C 2.746046 -3.166230 4.808705 0
M  V30 2 C 3.022251 -2.377456 3.574915 0
M  V30 3 C 3.291283 -1.023806 3.650909 0
M  V30 4 C 3.552601 -0.258022 2.526264 0
M  V30 5 C 3.543185 -0.870735 1.289566 0
M  V30 6 S 3.840880 -0.120904 -0.259154 0
M  V30 7 O 4.497978 -1.083928 -1.199255 0
M  V30 8 O 4.763079 1.051735 -0.013774 0
M  V30 9 N 2.394166 0.480997 -0.990938 0
M  V30 10 C 1.617627 1.494002 -0.362301 0
M  V30 11 C 2.132545 2.629099 0.212322 0
M  V30 12 C 1.343955 3.591163 0.814133 0
M  V30 13 C -0.023328 3.431934 0.854863 0
M  V30 14 N -1.093868 4.116327 1.330707 0
M  V30 15 N -2.220254 3.475083 1.084362 0
M  V30 16 C -1.955960 2.318533 0.424963 0
M  V30 17 C -2.968093 1.383361 0.006605 0
M  V30 18 C -4.127328 1.838413 -0.606518 0
M  V30 19 C -5.076994 0.922713 -0.995651 0
M  V30 20 C -4.916650 -0.438384 -0.796848 0
M  V30 21 C -3.762509 -0.935802 -0.182522 0
M  V30 22 N -3.510711 -2.308406 0.062556 0
M  V30 23 C -2.864471 -3.251286 -0.774057 0
M  V30 24 O -2.508703 -2.699199 -1.843143 0
M  V30 25 C -2.688393 -4.636173 -0.361684 0
M  V30 26 C -2.074040 -5.448600 -1.201857 0
M  V30 27 C -1.546779 -5.102403 -2.513493 0
M  V30 28 O -0.963193 -5.931454 -3.286031 0
M  V30 29 O -1.227525 -4.336857 -3.618970 0
M  V30 30 C -2.848803 0.020972 0.185223 0
M  V30 31 C -0.584048 2.305309 0.289178 0
M  V30 32 C 0.238399 1.353695 -0.310065 0
M  V30 33 C 3.270342 -2.240563 1.219035 0
M  V30 34 C 3.007819 -3.010303 2.347948 0
M  V30 35 H 3.703534 -3.409453 5.345331 0
M  V30 36 H 2.305859 -4.150609 4.518634 0
M  V30 37 H 2.058972 -2.621048 5.488376 0
M  V30 38 H 3.307811 -0.506321 4.603594 0
M  V30 39 H 3.769118 0.794155 2.506117 0
M  V30 40 H 2.014981 0.142928 -1.916795 0
M  V30 41 H 3.199539 2.777999 0.194055 0
M  V30 42 H 1.734447 4.480433 1.265521 0
M  V30 43 H -1.001571 5.044132 1.831180 0
M  V30 44 H -4.327619 2.883931 -0.797347 0
M  V30 45 H -5.988267 1.289754 -1.478454 0
M  V30 46 H -5.664617 -1.155878 -1.103670 0
M  V30 47 H -3.891472 -2.570774 1.020121 0
M  V30 48 H -3.060406 -4.932573 0.594045 0
M  V30 49 H -1.918761 -6.484409 -0.944173 0
M  V30 50 H -0.564534 -3.547203 -3.560659 0
M  V30 51 H -1.943711 -0.339201 0.664356 0
M  V30 52 H -0.185642 0.470464 -0.754989 0
M  V30 53 H 3.244139 -2.794166 0.291050 0
M  V30 54 H 2.798655 -4.068438 2.276411 0
M  V30 END ATOM
M  V30 BEGIN BOND
M  V30 1 1 1 2
M  V30 2 2 2 3
M  V30 3 1 3 4
M  V30 4 2 4 5
M  V30 5 1 5 6
M  V30 6 2 6 7
M  V30 7 2 6 8
M  V30 8 1 6 9
M  V30 9 1 9 10
M  V30 10 2 10 11
M  V30 11 1 11 12
M  V30 12 2 12 13
M  V30 13 1 13 14
M  V30 14 1 14 15
M  V30 15 2 15 16
M  V30 16 1 16 17
M  V30 17 2 17 18
M  V30 18 1 18 19
M  V30 19 2 19 20
M  V30 20 1 20 21
M  V30 21 1 21 22
M  V30 22 1 22 23
M  V30 23 2 23 24
M  V30 24 1 23 25
M  V30 25 2 25 26
M  V30 26 1 26 27
M  V30 27 2 27 28
M  V30 28 1 27 29
M  V30 29 2 21 30
M  V30 30 1 16 31
M  V30 31 2 31 32
M  V30 32 1 5 33
M  V30 33 2 33 34
M  V30 34 1 34 2
M  V30 35 1 32 10
M  V30 36 1 31 13
M  V30 37 1 30 17
M  V30 38 1 1 35
M  V30 39 1 1 36
M  V30 40 1 1 37
M  V30 41 1 3 38
M  V30 42 1 4 39
M  V30 43 1 9 40
M  V30 44 1 11 41
M  V30 45 1 12 42
M  V30 46 1 14 43
M  V30 47 1 18 44
M  V30 48 1 19 45
M  V30 49 1 20 46
M  V30 50 1 22 47
M  V30 51 1 25 48
M  V30 52 1 26 49
M  V30 53 1 29 50
M  V30 54 1 30 51
M  V30 55 1 32 52
M  V30 56 1 33 53
M  V30 57 1 34 54
M  V30 END BOND
M  V30 END CTAB
M  END
>  <Dataset>  (147) 
ChEMBL_Kinases

>  <Ligand_Instance>  (147) 
nan

>  <PDB_ID>  (147) 
nan

>  <Standardized_SMILES>  (147) 
Cc1ccc(S(=O)(=O)Nc2ccc3[nH]nc(-c4cccc(NC(=O)/C=C\C(=O)O)c4)c3c2)cc1

>  <Name>  (147) 
nan

>  <Pocket>  (147) 
nan

>  <ATP_Site>  (147) 
nan

>  <Peripheral>  (147) 
nan

>  <Num_H_Atoms_ProtBoundConf>  (147) 
nan

>  <Num_Resolved_Atoms>  (147) 
nan

>  <Num_Not_Resolved_Atoms>  (147) 
nan

$$$$
CHEMBL3973674
     RDKit          3D

  0  0  0  0  0  0  0  0  0  0999 V3000
M  V30 BEGIN CTAB
M  V30 COUNTS 66 69 0 0 0
M  V30 BEGIN ATOM
M  V30 1 C -4.276440 3.898131 -4.768413 0
M  V30 2 O -3.447831 4.919451 -5.170458 0
M  V30 3 C -2.261586 4.509985 -5.748398 0
M  V30 4 C -1.391514 3.669489 -4.852496 0
M  V30 5 O -0.211215 3.317297 -5.558344 0
M  V30 6 C 0.812414 2.544090 -5.031316 0
M  V30 7 C 0.767726 2.034244 -3.733973 0
M  V30 8 C 1.793207 1.253710 -3.191169 0
M  V30 9 N 1.696090 0.757229 -1.858367 0
M  V30 10 C 2.176003 1.505037 -0.771804 0
M  V30 11 O 2.675010 2.622924 -1.148174 0
M  V30 12 N 2.190939 1.226102 0.613809 0
M  V30 13 C 2.693570 2.193935 1.572608 0
M  V30 14 C 1.655116 2.411693 2.616110 0
M  V30 15 C 0.967397 1.206738 3.141804 0
M  V30 16 C 1.109251 -0.026343 2.365172 0
M  V30 17 C 0.616003 -1.179067 2.936252 0
M  V30 18 C 0.722650 -2.366691 2.245697 0
M  V30 19 C 0.206150 -3.619961 2.817890 0
M  V30 20 N -1.041989 -4.065604 2.265555 0
M  V30 21 C -1.274346 -4.950699 1.116163 0
M  V30 22 C -2.608922 -5.636479 1.237987 0
M  V30 23 N -3.715834 -4.717580 1.231781 0
M  V30 24 C -3.872895 -4.242716 -0.128443 0
M  V30 25 C -3.581641 -3.644657 2.178725 0
M  V30 26 C -2.274833 -3.623019 2.873582 0
M  V30 27 O -2.210743 -3.193157 4.076604 0
M  V30 28 C 1.335594 -2.251337 1.016242 0
M  V30 29 C 1.501007 -3.447683 0.213712 0
M  V30 30 O 1.577502 -4.542010 -0.365907 0
M  V30 31 N 1.830078 -1.137862 0.426097 0
M  V30 32 C 1.708378 -0.004534 1.126753 0
M  V30 33 N 2.875355 0.984945 -3.966619 0
M  V30 34 C 2.958212 1.464437 -5.241077 0
M  V30 35 C 1.927807 2.230249 -5.741338 0
M  V30 36 C 2.054131 2.712681 -7.071293 0
M  V30 37 N 2.161858 3.125716 -8.159673 0
M  V30 38 H -4.586107 3.229771 -5.611397 0
M  V30 39 H -5.216116 4.373861 -4.388534 0
M  V30 40 H -3.882971 3.266903 -3.963930 0
M  V30 41 H -1.718753 5.458042 -6.022383 0
M  V30 42 H -2.428487 3.996920 -6.730577 0
M  V30 43 H -1.162923 4.251558 -3.941868 0
M  V30 44 H -1.988483 2.789866 -4.556416 0
M  V30 45 H -0.107153 2.246981 -3.097827 0
M  V30 46 H 1.271370 -0.162930 -1.615463 0
M  V30 47 H 3.640323 1.801216 2.011655 0
M  V30 48 H 2.860515 3.146704 1.032351 0
M  V30 49 H 2.181138 2.918729 3.479414 0
M  V30 50 H 0.959325 3.195144 2.240660 0
M  V30 51 H 1.210757 1.020407 4.223320 0
M  V30 52 H -0.135263 1.462661 3.176311 0
M  V30 53 H 0.150463 -1.170780 3.912082 0
M  V30 54 H 0.975065 -4.428931 2.787329 0
M  V30 55 H 0.031559 -3.456268 3.912700 0
M  V30 56 H -0.517005 -5.772416 1.113475 0
M  V30 57 H -1.263013 -4.321529 0.223519 0
M  V30 58 H -2.583996 -6.258273 2.160917 0
M  V30 59 H -2.711118 -6.269999 0.328316 0
M  V30 60 H -3.620587 -5.110067 -0.792659 0
M  V30 61 H -3.162875 -3.435309 -0.376921 0
M  V30 62 H -4.904131 -3.931841 -0.380953 0
M  V30 63 H -3.813295 -2.702199 1.640950 0
M  V30 64 H -4.367332 -3.727116 2.957523 0
M  V30 65 H 1.946831 -3.540457 -0.745457 0
M  V30 66 H 3.837858 1.238413 -5.853511 0
M  V30 END ATOM
M  V30 BEGIN BOND
M  V30 1 1 1 2
M  V30 2 1 2 3
M  V30 3 1 3 4
M  V30 4 1 4 5
M  V30 5 1 5 6
M  V30 6 2 6 7
M  V30 7 1 7 8
M  V30 8 1 8 9
M  V30 9 1 9 10
M  V30 10 2 10 11
M  V30 11 1 10 12
M  V30 12 1 12 13
M  V30 13 1 13 14
M  V30 14 1 14 15
M  V30 15 1 15 16
M  V30 16 2 16 17
M  V30 17 1 17 18
M  V30 18 1 18 19
M  V30 19 1 19 20
M  V30 20 1 20 21
M  V30 21 1 21 22
M  V30 22 1 22 23
M  V30 23 1 23 24
M  V30 24 1 23 25
M  V30 25 1 25 26
M  V30 26 2 26 27
M  V30 27 2 18 28
M  V30 28 1 28 29
M  V30 29 2 29 30
M  V30 30 1 28 31
M  V30 31 2 31 32
M  V30 32 2 8 33
M  V30 33 1 33 34
M  V30 34 2 34 35
M  V30 35 1 35 36
M  V30 36 3 36 37
M  V30 37 1 35 6
M  V30 38 1 32 12
M  V30 39 1 32 16
M  V30 40 1 26 20
M  V30 41 1 1 38
M  V30 42 1 1 39
M  V30 43 1 1 40
M  V30 44 1 3 41
M  V30 45 1 3 42
M  V30 46 1 4 43
M  V30 47 1 4 44
M  V30 48 1 7 45
M  V30 49 1 9 46
M  V30 50 1 13 47
M  V30 51 1 13 48
M  V30 52 1 14 49
M  V30 53 1 14 50
M  V30 54 1 15 51
M  V30 55 1 15 52
M  V30 56 1 17 53
M  V30 57 1 19 54
M  V30 58 1 19 55
M  V30 59 1 21 56
M  V30 60 1 21 57
M  V30 61 1 22 58
M  V30 62 1 22 59
M  V30 63 1 24 60
M  V30 64 1 24 61
M  V30 65 1 24 62
M  V30 66 1 25 63
M  V30 67 1 25 64
M  V30 68 1 29 65
M  V30 69 1 34 66
M  V30 END BOND
M  V30 END CTAB
M  END
>  <Dataset>  (148) 
ChEMBL_Kinases

>  <Ligand_Instance>  (148) 
nan

>  <PDB_ID>  (148) 
nan

>  <Standardized_SMILES>  (148) 
COCCOc1cc(NC(=O)N2CCCc3cc(CN4CCN(C)CC4=O)c(C=O)nc32)ncc1C#N

>  <Name>  (148) 
nan

>  <Pocket>  (148) 
nan

>  <ATP_Site>  (148) 
nan

>  <Peripheral>  (148) 
nan

>  <Num_H_Atoms_ProtBoundConf>  (148) 
nan

>  <Num_Resolved_Atoms>  (148) 
nan

>  <Num_Not_Resolved_Atoms>  (148) 
nan

$$$$
CHEMBL3648675
     RDKit          3D

  0  0  0  0  0  0  0  0  0  0999 V3000
M  V30 BEGIN CTAB
M  V30 COUNTS 54 57 0 0 0
M  V30 BEGIN ATOM
M  V30 1 C -0.394212 -5.510758 1.899117 0
M  V30 2 N 0.388587 -4.304919 2.203984 0
M  V30 3 N 1.238198 -4.288022 3.231320 0
M  V30 4 C 1.823699 -3.067799 3.281947 0
M  V30 5 C 1.324169 -2.280746 2.244577 0
M  V30 6 N 1.502016 -0.975469 1.758884 0
M  V30 7 C 2.380824 -0.405475 0.827080 0
M  V30 8 O 3.190419 -1.223482 0.309229 0
M  V30 9 C 2.368330 1.010266 0.480059 0
M  V30 10 N 1.509268 1.882053 0.978639 0
M  V30 11 C 1.504850 3.057885 0.677219 0
M  V30 12 C 0.696895 4.222587 1.052288 0
M  V30 13 C 0.949777 5.456892 0.540759 0
M  V30 14 F 1.970071 5.667576 -0.333292 0
M  V30 15 C 0.163669 6.520710 0.909923 0
M  V30 16 C -0.869048 6.305889 1.796446 0
M  V30 17 C -1.119069 5.034974 2.315019 0
M  V30 18 C -0.313692 3.980639 1.928456 0
M  V30 19 F -0.567631 2.740945 2.441968 0
M  V30 20 S 2.869207 3.252041 -0.522649 0
M  V30 21 C 3.317109 1.472260 -0.439631 0
M  V30 22 N 4.340698 0.789684 -1.126548 0
M  V30 23 C 0.408472 -3.095673 1.570840 0
M  V30 24 N -0.448394 -2.923995 0.450883 0
M  V30 25 C -1.603873 -2.302289 1.082283 0
M  V30 26 C -2.674735 -1.922816 0.074148 0
M  V30 27 C -3.255178 -3.110864 -0.618140 0
M  V30 28 C -2.324893 -3.909457 -1.441850 0
M  V30 29 N -3.050492 -4.289250 -2.661436 0
M  V30 30 C -1.063077 -3.260370 -1.876009 0
M  V30 31 F -1.196651 -1.993805 -2.363237 0
M  V30 32 C 0.034097 -3.376898 -0.841028 0
M  V30 33 H 0.230459 -6.243102 1.387935 0
M  V30 34 H -1.279536 -5.191402 1.318783 0
M  V30 35 H -0.773262 -5.899099 2.866221 0
M  V30 36 H 2.558451 -2.567955 3.905901 0
M  V30 37 H 0.811948 -0.296887 2.208121 0
M  V30 38 H 0.299612 7.550444 0.544064 0
M  V30 39 H -1.554043 7.090185 2.153608 0
M  V30 40 H -1.939258 4.854670 3.020101 0
M  V30 41 H 5.050176 0.498435 -0.398724 0
M  V30 42 H 4.331959 0.636969 -2.159242 0
M  V30 43 H -1.995961 -2.850960 1.938158 0
M  V30 44 H -1.237277 -1.312256 1.483558 0
M  V30 45 H -3.489246 -1.472080 0.692914 0
M  V30 46 H -2.338737 -1.105238 -0.588160 0
M  V30 47 H -3.657162 -3.774990 0.200721 0
M  V30 48 H -4.146991 -2.779451 -1.172150 0
M  V30 49 H -2.064652 -4.874824 -0.953309 0
M  V30 50 H -3.987768 -3.830395 -2.718112 0
M  V30 51 H -2.542287 -4.013796 -3.528728 0
M  V30 52 H -0.682918 -3.870455 -2.751999 0
M  V30 53 H 0.884662 -2.773919 -1.189099 0
M  V30 54 H 0.313380 -4.449662 -0.683109 0
M  V30 END ATOM
M  V30 BEGIN BOND
M  V30 1 1 1 2
M  V30 2 1 2 3
M  V30 3 2 3 4
M  V30 4 1 4 5
M  V30 5 1 5 6
M  V30 6 1 6 7
M  V30 7 2 7 8
M  V30 8 1 7 9
M  V30 9 1 9 10
M  V30 10 2 10 11
M  V30 11 1 11 12
M  V30 12 2 12 13
M  V30 13 1 13 14
M  V30 14 1 13 15
M  V30 15 2 15 16
M  V30 16 1 16 17
M  V30 17 2 17 18
M  V30 18 1 18 19
M  V30 19 1 11 20
M  V30 20 1 20 21
M  V30 21 1 21 22
M  V30 22 2 5 23
M  V30 23 1 23 24
M  V30 24 1 24 25
M  V30 25 1 25 26
M  V30 26 1 26 27
M  V30 27 1 27 28
M  V30 28 1 28 29
M  V30 29 1 28 30
M  V30 30 1 30 31
M  V30 31 1 30 32
M  V30 32 1 23 2
M  V30 33 1 32 24
M  V30 34 2 21 9
M  V30 35 1 18 12
M  V30 36 1 1 33
M  V30 37 1 1 34
M  V30 38 1 1 35
M  V30 39 1 4 36
M  V30 40 1 6 37
M  V30 41 1 15 38
M  V30 42 1 16 39
M  V30 43 1 17 40
M  V30 44 1 22 41
M  V30 45 1 22 42
M  V30 46 1 25 43
M  V30 47 1 25 44
M  V30 48 1 26 45
M  V30 49 1 26 46
M  V30 50 1 27 47
M  V30 51 1 27 48
M  V30 52 1 28 49
M  V30 53 1 29 50
M  V30 54 1 29 51
M  V30 55 1 30 52
M  V30 56 1 32 53
M  V30 57 1 32 54
M  V30 END BOND
M  V30 END CTAB
M  END
>  <Dataset>  (149) 
ChEMBL_Kinases

>  <Ligand_Instance>  (149) 
nan

>  <PDB_ID>  (149) 
nan

>  <Standardized_SMILES>  (149) 
Cn1ncc(NC(=O)c2nc(-c3c(F)cccc3F)sc2N)c1N1CCCC(N)C(F)C1

>  <Name>  (149) 
nan

>  <Pocket>  (149) 
nan

>  <ATP_Site>  (149) 
nan

>  <Peripheral>  (149) 
nan

>  <Num_H_Atoms_ProtBoundConf>  (149) 
nan

>  <Num_Resolved_Atoms>  (149) 
nan

>  <Num_Not_Resolved_Atoms>  (149) 
nan

$$$$
CHEMBL3648102
     RDKit          3D

  0  0  0  0  0  0  0  0  0  0999 V3000
M  V30 BEGIN CTAB
M  V30 COUNTS 43 44 0 0 0
M  V30 BEGIN ATOM
M  V30 1 C -3.762605 -5.409225 -1.111108 0
M  V30 2 C -2.384482 -5.291230 -0.457404 0
M  V30 3 O -2.546373 -4.238105 0.477896 0
M  V30 4 C -1.439539 -4.852984 -1.540170 0
M  V30 5 C -1.923096 -3.509420 -2.064829 0
M  V30 6 S 0.276281 -4.725172 -1.024146 0
M  V30 7 C 0.558969 -3.462073 0.175318 0
M  V30 8 N 0.834410 -2.210625 -0.212059 0
M  V30 9 C 1.067156 -1.206004 0.649643 0
M  V30 10 N 1.351126 0.090996 0.148015 0
M  V30 11 C 1.629998 1.288979 0.858626 0
M  V30 12 C 1.880233 2.470727 0.193729 0
M  V30 13 C 2.153429 3.644748 0.843127 0
M  V30 14 C 2.191163 3.698379 2.217230 0
M  V30 15 S 2.539272 5.198517 3.040625 0
M  V30 16 C 4.269823 5.418482 3.310506 0
M  V30 17 N 2.034950 6.351787 2.136026 0
M  V30 18 O 1.763259 5.302497 4.332483 0
M  V30 19 C 1.949361 2.549175 2.937814 0
M  V30 20 C 1.680249 1.398618 2.229916 0
M  V30 21 N 1.005154 -1.542364 1.943780 0
M  V30 22 C 0.739125 -2.757630 2.441198 0
M  V30 23 C 0.507359 -3.755438 1.520598 0
M  V30 24 Br 0.136929 -5.512740 2.178913 0
M  V30 25 H -4.530550 -5.378803 -0.303251 0
M  V30 26 H -3.897132 -4.458894 -1.674078 0
M  V30 27 H -3.851861 -6.288826 -1.765780 0
M  V30 28 H -2.042279 -6.219004 0.007012 0
M  V30 29 H -3.422438 -4.422802 0.920671 0
M  V30 30 H -1.519385 -5.612963 -2.373320 0
M  V30 31 H -2.474516 -3.018772 -1.247194 0
M  V30 32 H -1.004126 -2.915229 -2.328699 0
M  V30 33 H -2.554245 -3.643377 -2.969761 0
M  V30 34 H 1.359324 0.194819 -0.911143 0
M  V30 35 H 1.866230 2.498794 -0.884256 0
M  V30 36 H 2.343020 4.544017 0.274675 0
M  V30 37 H 4.381560 5.977247 4.263443 0
M  V30 38 H 4.682471 5.995184 2.462544 0
M  V30 39 H 4.797136 4.449161 3.461645 0
M  V30 40 H 1.139363 6.785777 2.340980 0
M  V30 41 H 1.974604 2.570725 4.024299 0
M  V30 42 H 1.500946 0.538568 2.847047 0
M  V30 43 H 0.714693 -2.914898 3.518232 0
M  V30 END ATOM
M  V30 BEGIN BOND
M  V30 1 1 1 2
M  V30 2 1 2 3
M  V30 3 1 2 4
M  V30 4 1 4 5
M  V30 5 1 4 6
M  V30 6 1 6 7
M  V30 7 2 7 8
M  V30 8 1 8 9
M  V30 9 1 9 10
M  V30 10 1 10 11
M  V30 11 2 11 12
M  V30 12 1 12 13
M  V30 13 2 13 14
M  V30 14 1 14 15
M  V30 15 1 15 16
M  V30 16 2 15 17
M  V30 17 2 15 18
M  V30 18 1 14 19
M  V30 19 2 19 20
M  V30 20 2 9 21
M  V30 21 1 21 22
M  V30 22 2 22 23
M  V30 23 1 23 24
M  V30 24 1 23 7
M  V30 25 1 20 11
M  V30 26 1 1 25
M  V30 27 1 1 26
M  V30 28 1 1 27
M  V30 29 1 2 28
M  V30 30 1 3 29
M  V30 31 1 4 30
M  V30 32 1 5 31
M  V30 33 1 5 32
M  V30 34 1 5 33
M  V30 35 1 10 34
M  V30 36 1 12 35
M  V30 37 1 13 36
M  V30 38 1 16 37
M  V30 39 1 16 38
M  V30 40 1 16 39
M  V30 41 1 17 40
M  V30 42 1 19 41
M  V30 43 1 20 42
M  V30 44 1 22 43
M  V30 END BOND
M  V30 END CTAB
M  END
>  <Dataset>  (150) 
ChEMBL_Kinases

>  <Ligand_Instance>  (150) 
nan

>  <PDB_ID>  (150) 
nan

>  <Standardized_SMILES>  (150) 
CC(O)C(C)Sc1nc(Nc2ccc(S(C)(=N)=O)cc2)ncc1Br

>  <Name>  (150) 
nan

>  <Pocket>  (150) 
nan

>  <ATP_Site>  (150) 
nan

>  <Peripheral>  (150) 
nan

>  <Num_H_Atoms_ProtBoundConf>  (150) 
nan

>  <Num_Resolved_Atoms>  (150) 
nan

>  <Num_Not_Resolved_Atoms>  (150) 
nan

$$$$
CHEMBL3648103
     RDKit          3D

  0  0  0  0  0  0  0  0  0  0999 V3000
M  V30 BEGIN CTAB
M  V30 COUNTS 46 47 0 0 0
M  V30 BEGIN ATOM
M  V30 1 C -0.446146 -6.442415 3.485743 0
M  V30 2 C -0.572243 -6.357570 2.012661 0
M  V30 3 C -1.037253 -4.968494 1.532093 0
M  V30 4 S 0.128551 -3.724229 2.023896 0
M  V30 5 C -0.354353 -2.106986 1.542627 0
M  V30 6 N -0.060164 -1.385091 0.437051 0
M  V30 7 C -0.574052 -0.160681 0.271358 0
M  V30 8 N -0.330089 0.674158 -0.837689 0
M  V30 9 C 0.396253 1.877447 -0.634166 0
M  V30 10 C 0.689455 2.768084 -1.645052 0
M  V30 11 C 1.369489 3.952883 -1.466320 0
M  V30 12 C 1.798245 4.298415 -0.206117 0
M  V30 13 S 2.649753 5.781407 0.189320 0
M  V30 14 C 4.390630 5.529553 0.094689 0
M  V30 15 N 2.312142 6.226550 1.662045 0
M  V30 16 O 2.196007 6.896240 -0.709797 0
M  V30 17 C 1.532326 3.440937 0.842354 0
M  V30 18 C 0.841290 2.243466 0.642224 0
M  V30 19 N -1.398811 0.407318 1.187334 0
M  V30 20 C -1.741912 -0.251758 2.327033 0
M  V30 21 C -1.203869 -1.529589 2.495314 0
M  V30 22 Br -1.765226 -2.342944 4.147977 0
M  V30 23 C -1.188173 -5.066556 0.044723 0
M  V30 24 C -1.693821 -3.808250 -0.598216 0
M  V30 25 O -1.971063 -6.185164 -0.310220 0
M  V30 26 H -0.962279 -7.353491 3.848036 0
M  V30 27 H 0.606309 -6.536073 3.850436 0
M  V30 28 H -0.897678 -5.602849 4.056088 0
M  V30 29 H -1.327708 -7.069213 1.645835 0
M  V30 30 H 0.395038 -6.615291 1.567958 0
M  V30 31 H -2.035583 -4.786896 1.986535 0
M  V30 32 H -0.642642 0.486660 -1.827930 0
M  V30 33 H 0.361172 2.517714 -2.659923 0
M  V30 34 H 1.593452 4.646412 -2.274232 0
M  V30 35 H 4.867607 6.477609 0.480944 0
M  V30 36 H 4.772656 5.255662 -0.890907 0
M  V30 37 H 4.656810 4.714721 0.796126 0
M  V30 38 H 2.063837 7.199362 1.820842 0
M  V30 39 H 1.847237 3.666685 1.842322 0
M  V30 40 H 0.655938 1.599249 1.498837 0
M  V30 41 H -2.399402 0.244189 3.029830 0
M  V30 42 H -0.188561 -5.268396 -0.441224 0
M  V30 43 H -2.578402 -4.143196 -1.244303 0
M  V30 44 H -2.093954 -3.140947 0.164712 0
M  V30 45 H -0.960325 -3.297598 -1.230191 0
M  V30 46 H -2.812193 -5.807514 -0.662752 0
M  V30 END ATOM
M  V30 BEGIN BOND
M  V30 1 1 1 2
M  V30 2 1 2 3
M  V30 3 1 3 4
M  V30 4 1 4 5
M  V30 5 2 5 6
M  V30 6 1 6 7
M  V30 7 1 7 8
M  V30 8 1 8 9
M  V30 9 2 9 10
M  V30 10 1 10 11
M  V30 11 2 11 12
M  V30 12 1 12 13
M  V30 13 1 13 14
M  V30 14 2 13 15
M  V30 15 2 13 16
M  V30 16 1 12 17
M  V30 17 2 17 18
M  V30 18 2 7 19
M  V30 19 1 19 20
M  V30 20 2 20 21
M  V30 21 1 21 22
M  V30 22 1 3 23
M  V30 23 1 23 24
M  V30 24 1 23 25
M  V30 25 1 21 5
M  V30 26 1 18 9
M  V30 27 1 1 26
M  V30 28 1 1 27
M  V30 29 1 1 28
M  V30 30 1 2 29
M  V30 31 1 2 30
M  V30 32 1 3 31
M  V30 33 1 8 32
M  V30 34 1 10 33
M  V30 35 1 11 34
M  V30 36 1 14 35
M  V30 37 1 14 36
M  V30 38 1 14 37
M  V30 39 1 15 38
M  V30 40 1 17 39
M  V30 41 1 18 40
M  V30 42 1 20 41
M  V30 43 1 23 42
M  V30 44 1 24 43
M  V30 45 1 24 44
M  V30 46 1 24 45
M  V30 47 1 25 46
M  V30 END BOND
M  V30 END CTAB
M  END
>  <Dataset>  (151) 
ChEMBL_Kinases

>  <Ligand_Instance>  (151) 
nan

>  <PDB_ID>  (151) 
nan

>  <Standardized_SMILES>  (151) 
CCC(Sc1nc(Nc2ccc(S(C)(=N)=O)cc2)ncc1Br)C(C)O

>  <Name>  (151) 
nan

>  <Pocket>  (151) 
nan

>  <ATP_Site>  (151) 
nan

>  <Peripheral>  (151) 
nan

>  <Num_H_Atoms_ProtBoundConf>  (151) 
nan

>  <Num_Resolved_Atoms>  (151) 
nan

>  <Num_Not_Resolved_Atoms>  (151) 
nan

$$$$
CHEMBL3648104
     RDKit          3D

  0  0  0  0  0  0  0  0  0  0999 V3000
M  V30 BEGIN CTAB
M  V30 COUNTS 46 47 0 0 0
M  V30 BEGIN ATOM
M  V30 1 C -1.284790 -4.143750 0.282719 0
M  V30 2 C -2.505528 -3.961468 1.159430 0
M  V30 3 S -2.004792 -3.080505 2.662597 0
M  V30 4 C -1.503150 -1.433723 2.207142 0
M  V30 5 N -0.233244 -1.167608 1.881079 0
M  V30 6 C 0.231718 0.034247 1.528342 0
M  V30 7 N 1.605066 0.185902 1.204462 0
M  V30 8 C 2.293055 1.362730 0.814791 0
M  V30 9 C 3.648499 1.333172 0.533842 0
M  V30 10 C 4.342127 2.458169 0.155099 0
M  V30 11 C 3.727310 3.685103 0.032439 0
M  V30 12 S 4.673843 5.048146 -0.448475 0
M  V30 13 C 4.741300 5.302297 -2.188370 0
M  V30 14 N 6.112821 4.845495 0.151996 0
M  V30 15 O 4.132230 6.283189 0.239363 0
M  V30 16 C 2.374385 3.766049 0.302166 0
M  V30 17 C 1.730380 2.608910 0.677077 0
M  V30 18 N -0.691506 0.995894 1.521355 0
M  V30 19 C -1.987236 0.859335 1.825546 0
M  V30 20 C -2.412839 -0.400571 2.182155 0
M  V30 21 Br -4.240026 -0.673808 2.628402 0
M  V30 22 C -3.088511 -5.319831 1.488340 0
M  V30 23 C -3.498429 -6.063332 0.239879 0
M  V30 24 C -4.288165 -5.215686 2.390426 0
M  V30 25 O -2.112037 -6.029006 2.224505 0
M  V30 26 H -1.616616 -4.629359 -0.660622 0
M  V30 27 H -0.823763 -3.198357 -0.008866 0
M  V30 28 H -0.540701 -4.800178 0.810805 0
M  V30 29 H -3.261891 -3.386842 0.566954 0
M  V30 30 H 2.197880 -0.677425 1.256424 0
M  V30 31 H 4.194058 0.398673 0.610804 0
M  V30 32 H 5.411229 2.375144 -0.054305 0
M  V30 33 H 3.834114 4.915557 -2.685420 0
M  V30 34 H 4.778713 6.386976 -2.473593 0
M  V30 35 H 5.614095 4.808966 -2.662439 0
M  V30 36 H 6.636518 5.719074 0.324032 0
M  V30 37 H 1.871054 4.718004 0.212705 0
M  V30 38 H 0.679385 2.748987 0.870333 0
M  V30 39 H -2.676584 1.692853 1.795747 0
M  V30 40 H -4.522655 -6.520361 0.366435 0
M  V30 41 H -3.477280 -5.465137 -0.676058 0
M  V30 42 H -2.825631 -6.964488 0.167016 0
M  V30 43 H -3.932652 -4.980985 3.414473 0
M  V30 44 H -5.025902 -4.474219 2.007603 0
M  V30 45 H -4.824068 -6.196424 2.333312 0
M  V30 46 H -2.563485 -6.796281 2.676255 0
M  V30 END ATOM
M  V30 BEGIN BOND
M  V30 1 1 1 2
M  V30 2 1 2 3
M  V30 3 1 3 4
M  V30 4 2 4 5
M  V30 5 1 5 6
M  V30 6 1 6 7
M  V30 7 1 7 8
M  V30 8 2 8 9
M  V30 9 1 9 10
M  V30 10 2 10 11
M  V30 11 1 11 12
M  V30 12 1 12 13
M  V30 13 2 12 14
M  V30 14 2 12 15
M  V30 15 1 11 16
M  V30 16 2 16 17
M  V30 17 2 6 18
M  V30 18 1 18 19
M  V30 19 2 19 20
M  V30 20 1 20 21
M  V30 21 1 2 22
M  V30 22 1 22 23
M  V30 23 1 22 24
M  V30 24 1 22 25
M  V30 25 1 20 4
M  V30 26 1 17 8
M  V30 27 1 1 26
M  V30 28 1 1 27
M  V30 29 1 1 28
M  V30 30 1 2 29
M  V30 31 1 7 30
M  V30 32 1 9 31
M  V30 33 1 10 32
M  V30 34 1 13 33
M  V30 35 1 13 34
M  V30 36 1 13 35
M  V30 37 1 14 36
M  V30 38 1 16 37
M  V30 39 1 17 38
M  V30 40 1 19 39
M  V30 41 1 23 40
M  V30 42 1 23 41
M  V30 43 1 23 42
M  V30 44 1 24 43
M  V30 45 1 24 44
M  V30 46 1 24 45
M  V30 47 1 25 46
M  V30 END BOND
M  V30 END CTAB
M  END
>  <Dataset>  (152) 
ChEMBL_Kinases

>  <Ligand_Instance>  (152) 
nan

>  <PDB_ID>  (152) 
nan

>  <Standardized_SMILES>  (152) 
CC(Sc1nc(Nc2ccc(S(C)(=N)=O)cc2)ncc1Br)C(C)(C)O

>  <Name>  (152) 
nan

>  <Pocket>  (152) 
nan

>  <ATP_Site>  (152) 
nan

>  <Peripheral>  (152) 
nan

>  <Num_H_Atoms_ProtBoundConf>  (152) 
nan

>  <Num_Resolved_Atoms>  (152) 
nan

>  <Num_Not_Resolved_Atoms>  (152) 
nan

$$$$
CHEMBL3648105
     RDKit          3D

  0  0  0  0  0  0  0  0  0  0999 V3000
M  V30 BEGIN CTAB
M  V30 COUNTS 49 50 0 0 0
M  V30 BEGIN ATOM
M  V30 1 C -1.126205 -4.098645 3.510325 0
M  V30 2 C -2.297029 -4.468485 2.601058 0
M  V30 3 C -2.036427 -3.756616 1.286493 0
M  V30 4 S -1.966061 -2.005074 1.574419 0
M  V30 5 C -1.608684 -0.999116 0.179162 0
M  V30 6 N -0.258531 -0.846452 0.021209 0
M  V30 7 C 0.256354 -0.097117 -0.997461 0
M  V30 8 N 1.649332 0.098015 -1.211255 0
M  V30 9 C 2.297025 1.210818 -0.598653 0
M  V30 10 C 3.653903 1.460889 -0.760095 0
M  V30 11 C 4.286232 2.548815 -0.162021 0
M  V30 12 C 3.516012 3.392905 0.613094 0
M  V30 13 S 4.189681 4.789353 1.415099 0
M  V30 14 C 4.763233 4.373308 3.059506 0
M  V30 15 N 3.162327 5.944139 1.570582 0
M  V30 16 O 5.331391 5.308112 0.589878 0
M  V30 17 C 2.162781 3.192357 0.807808 0
M  V30 18 C 1.585944 2.096787 0.190809 0
M  V30 19 N -0.580245 0.511244 -1.874504 0
M  V30 20 C -1.919159 0.398037 -1.770173 0
M  V30 21 C -2.418336 -0.361996 -0.735502 0
M  V30 22 Br -4.266433 -0.623138 -0.409933 0
M  V30 23 C -2.929473 -4.230746 0.197084 0
M  V30 24 C -4.392549 -4.068635 0.434607 0
M  V30 25 C -2.670294 -5.722712 0.007948 0
M  V30 26 O -2.512083 -3.631802 -0.998688 0
M  V30 27 H -0.867897 -4.929909 4.204903 0
M  V30 28 H -0.187686 -3.926371 2.918292 0
M  V30 29 H -1.310061 -3.172877 4.071619 0
M  V30 30 H -3.245590 -4.067491 3.036755 0
M  V30 31 H -2.317016 -5.554524 2.532639 0
M  V30 32 H -0.989171 -4.080870 0.991188 0
M  V30 33 H 2.242155 -0.529164 -1.796758 0
M  V30 34 H 4.261879 0.791310 -1.374230 0
M  V30 35 H 5.351264 2.737674 -0.293658 0
M  V30 36 H 5.332797 3.428375 3.062397 0
M  V30 37 H 3.913158 4.332805 3.773228 0
M  V30 38 H 5.376384 5.251902 3.400116 0
M  V30 39 H 3.325348 6.898798 1.223664 0
M  V30 40 H 1.528239 3.838039 1.411639 0
M  V30 41 H 0.508743 1.924353 0.336862 0
M  V30 42 H -2.658295 0.836212 -2.407026 0
M  V30 43 H -4.921884 -3.950117 -0.543988 0
M  V30 44 H -4.636956 -3.272374 1.164765 0
M  V30 45 H -4.836755 -5.001208 0.888081 0
M  V30 46 H -3.087442 -6.342668 0.816645 0
M  V30 47 H -1.601269 -5.964438 -0.089324 0
M  V30 48 H -3.243982 -6.029106 -0.909222 0
M  V30 49 H -3.215768 -3.740047 -1.713785 0
M  V30 END ATOM
M  V30 BEGIN BOND
M  V30 1 1 1 2
M  V30 2 1 2 3
M  V30 3 1 3 4
M  V30 4 1 4 5
M  V30 5 2 5 6
M  V30 6 1 6 7
M  V30 7 1 7 8
M  V30 8 1 8 9
M  V30 9 2 9 10
M  V30 10 1 10 11
M  V30 11 2 11 12
M  V30 12 1 12 13
M  V30 13 1 13 14
M  V30 14 2 13 15
M  V30 15 2 13 16
M  V30 16 1 12 17
M  V30 17 2 17 18
M  V30 18 2 7 19
M  V30 19 1 19 20
M  V30 20 2 20 21
M  V30 21 1 21 22
M  V30 22 1 3 23
M  V30 23 1 23 24
M  V30 24 1 23 25
M  V30 25 1 23 26
M  V30 26 1 21 5
M  V30 27 1 18 9
M  V30 28 1 1 27
M  V30 29 1 1 28
M  V30 30 1 1 29
M  V30 31 1 2 30
M  V30 32 1 2 31
M  V30 33 1 3 32
M  V30 34 1 8 33
M  V30 35 1 10 34
M  V30 36 1 11 35
M  V30 37 1 14 36
M  V30 38 1 14 37
M  V30 39 1 14 38
M  V30 40 1 15 39
M  V30 41 1 17 40
M  V30 42 1 18 41
M  V30 43 1 20 42
M  V30 44 1 24 43
M  V30 45 1 24 44
M  V30 46 1 24 45
M  V30 47 1 25 46
M  V30 48 1 25 47
M  V30 49 1 25 48
M  V30 50 1 26 49
M  V30 END BOND
M  V30 END CTAB
M  END
>  <Dataset>  (153) 
ChEMBL_Kinases

>  <Ligand_Instance>  (153) 
nan

>  <PDB_ID>  (153) 
nan

>  <Standardized_SMILES>  (153) 
CCC(Sc1nc(Nc2ccc(S(C)(=N)=O)cc2)ncc1Br)C(C)(C)O

>  <Name>  (153) 
nan

>  <Pocket>  (153) 
nan

>  <ATP_Site>  (153) 
nan

>  <Peripheral>  (153) 
nan

>  <Num_H_Atoms_ProtBoundConf>  (153) 
nan

>  <Num_Resolved_Atoms>  (153) 
nan

>  <Num_Not_Resolved_Atoms>  (153) 
nan

$$$$
CHEMBL3951573
     RDKit          3D

  0  0  0  0  0  0  0  0  0  0999 V3000
M  V30 BEGIN CTAB
M  V30 COUNTS 44 46 0 0 0
M  V30 BEGIN ATOM
M  V30 1 C -1.775687 -3.630240 -2.099795 0
M  V30 2 O -0.770257 -2.646287 -2.238356 0
M  V30 3 C 0.524673 -3.054829 -2.480612 0
M  V30 4 C 0.864349 -4.399064 -2.591404 0
M  V30 5 C 2.179111 -4.732126 -2.834253 0
M  V30 6 C 3.198602 -3.815219 -2.977663 0
M  V30 7 C 2.852702 -2.465976 -2.865542 0
M  V30 8 C 1.538647 -2.101798 -2.621642 0
M  V30 9 C 1.122304 -0.659941 -2.493146 0
M  V30 10 N 0.932179 -0.453835 -1.052162 0
M  V30 11 C 0.536267 0.850334 -0.721171 0
M  V30 12 O 0.367542 1.740782 -1.605623 0
M  V30 13 C 0.289654 1.283199 0.648344 0
M  V30 14 C -0.099758 2.586059 0.893137 0
M  V30 15 C -0.338428 3.012760 2.204667 0
M  V30 16 C -0.195138 2.159260 3.283094 0
M  V30 17 C -0.471372 2.715725 4.602084 0
M  V30 18 C 0.236223 2.593263 5.783154 0
M  V30 19 N -0.414407 3.288907 6.737121 0
M  V30 20 N -1.492103 3.835047 6.196274 0
M  V30 21 C -1.578635 3.516196 4.883867 0
M  V30 22 C 0.199545 0.839373 3.033752 0
M  V30 23 O 0.331396 0.017955 4.142085 0
M  V30 24 C 0.712685 -1.327014 4.121223 0
M  V30 25 C 0.428388 0.444031 1.732880 0
M  V30 26 H -2.789591 -3.153190 -1.982336 0
M  V30 27 H -1.776405 -4.351284 -2.946837 0
M  V30 28 H -1.655058 -4.257082 -1.183516 0
M  V30 29 H 0.088323 -5.155240 -2.484618 0
M  V30 30 H 2.474207 -5.785544 -2.926225 0
M  V30 31 H 4.217220 -4.124917 -3.167527 0
M  V30 32 H 3.614218 -1.707015 -2.969692 0
M  V30 33 H 1.902002 0.014215 -2.897359 0
M  V30 34 H 0.195064 -0.547519 -3.067934 0
M  V30 35 H 1.068641 -1.181743 -0.315883 0
M  V30 36 H -0.234241 3.315076 0.102327 0
M  V30 37 H -0.645300 4.049474 2.366261 0
M  V30 38 H 1.148623 1.996115 5.768924 0
M  V30 39 H -2.215162 4.440750 6.670308 0
M  V30 40 H -2.347338 3.817606 4.189545 0
M  V30 41 H 1.355880 -1.611600 3.258270 0
M  V30 42 H 1.321587 -1.506115 5.031234 0
M  V30 43 H -0.231499 -1.942248 4.152566 0
M  V30 44 H 0.728231 -0.577120 1.599764 0
M  V30 END ATOM
M  V30 BEGIN BOND
M  V30 1 1 1 2
M  V30 2 1 2 3
M  V30 3 2 3 4
M  V30 4 1 4 5
M  V30 5 2 5 6
M  V30 6 1 6 7
M  V30 7 2 7 8
M  V30 8 1 8 9
M  V30 9 1 9 10
M  V30 10 1 10 11
M  V30 11 2 11 12
M  V30 12 1 11 13
M  V30 13 2 13 14
M  V30 14 1 14 15
M  V30 15 2 15 16
M  V30 16 1 16 17
M  V30 17 1 17 18
M  V30 18 2 18 19
M  V30 19 1 19 20
M  V30 20 1 20 21
M  V30 21 1 16 22
M  V30 22 1 22 23
M  V30 23 1 23 24
M  V30 24 2 22 25
M  V30 25 1 8 3
M  V30 26 1 25 13
M  V30 27 2 21 17
M  V30 28 1 1 26
M  V30 29 1 1 27
M  V30 30 1 1 28
M  V30 31 1 4 29
M  V30 32 1 5 30
M  V30 33 1 6 31
M  V30 34 1 7 32
M  V30 35 1 9 33
M  V30 36 1 9 34
M  V30 37 1 10 35
M  V30 38 1 14 36
M  V30 39 1 15 37
M  V30 40 1 18 38
M  V30 41 1 20 39
M  V30 42 1 21 40
M  V30 43 1 24 41
M  V30 44 1 24 42
M  V30 45 1 24 43
M  V30 46 1 25 44
M  V30 END BOND
M  V30 END CTAB
M  END
>  <Dataset>  (154) 
ChEMBL_Kinases

>  <Ligand_Instance>  (154) 
nan

>  <PDB_ID>  (154) 
nan

>  <Standardized_SMILES>  (154) 
COc1ccccc1CNC(=O)c1ccc(-c2cn[nH]c2)c(OC)c1

>  <Name>  (154) 
nan

>  <Pocket>  (154) 
nan

>  <ATP_Site>  (154) 
nan

>  <Peripheral>  (154) 
nan

>  <Num_H_Atoms_ProtBoundConf>  (154) 
nan

>  <Num_Resolved_Atoms>  (154) 
nan

>  <Num_Not_Resolved_Atoms>  (154) 
nan

$$$$
CHEMBL3648106
     RDKit          3D

  0  0  0  0  0  0  0  0  0  0999 V3000
M  V30 BEGIN CTAB
M  V30 COUNTS 40 41 0 0 0
M  V30 BEGIN ATOM
M  V30 1 C -0.375544 -3.702768 2.927933 0
M  V30 2 C 0.408742 -3.795531 1.650364 0
M  V30 3 C 1.387959 -4.953647 1.800221 0
M  V30 4 O 2.155988 -5.111271 0.651372 0
M  V30 5 S -0.677513 -4.019286 0.253521 0
M  V30 6 C -1.741490 -2.673040 -0.123355 0
M  V30 7 N -1.263955 -1.681505 -0.896355 0
M  V30 8 C -1.982470 -0.603267 -1.275380 0
M  V30 9 N -1.217055 0.311758 -2.089491 0
M  V30 10 C -0.369523 1.143222 -1.265163 0
M  V30 11 C 0.534729 2.051118 -1.765535 0
M  V30 12 C 1.365686 2.845623 -1.034973 0
M  V30 13 C 1.287918 2.722459 0.338772 0
M  V30 14 S 2.346540 3.673613 1.345926 0
M  V30 15 C 3.755743 2.650860 1.703376 0
M  V30 16 N 1.614995 3.962345 2.684883 0
M  V30 17 O 2.718079 4.993273 0.741203 0
M  V30 18 C 0.426340 1.855783 0.971734 0
M  V30 19 C -0.358602 1.109734 0.131965 0
M  V30 20 N -3.258167 -0.520634 -0.851221 0
M  V30 21 C -3.814939 -1.467466 -0.076253 0
M  V30 22 C -3.054836 -2.554463 0.293109 0
M  V30 23 Br -3.845859 -3.915013 1.361879 0
M  V30 24 H -1.302074 -4.277416 2.950441 0
M  V30 25 H -0.509868 -2.650493 3.263310 0
M  V30 26 H 0.265166 -4.168410 3.748496 0
M  V30 27 H 1.060531 -2.884047 1.522526 0
M  V30 28 H 0.833900 -5.921337 1.953850 0
M  V30 29 H 2.026414 -4.802737 2.700340 0
M  V30 30 H 1.778701 -4.468284 -0.033059 0
M  V30 31 H -1.138304 0.505004 -3.095146 0
M  V30 32 H 0.605221 2.162194 -2.857453 0
M  V30 33 H 2.065981 3.550444 -1.482748 0
M  V30 34 H 4.089773 2.112948 0.791501 0
M  V30 35 H 4.557474 3.217743 2.202822 0
M  V30 36 H 3.395399 1.869493 2.439394 0
M  V30 37 H 1.994252 4.757050 3.239647 0
M  V30 38 H 0.334181 1.725978 2.049288 0
M  V30 39 H -1.049822 0.412187 0.626900 0
M  V30 40 H -4.846212 -1.310657 0.207188 0
M  V30 END ATOM
M  V30 BEGIN BOND
M  V30 1 1 1 2
M  V30 2 1 2 3
M  V30 3 1 3 4
M  V30 4 1 2 5
M  V30 5 1 5 6
M  V30 6 2 6 7
M  V30 7 1 7 8
M  V30 8 1 8 9
M  V30 9 1 9 10
M  V30 10 2 10 11
M  V30 11 1 11 12
M  V30 12 2 12 13
M  V30 13 1 13 14
M  V30 14 1 14 15
M  V30 15 2 14 16
M  V30 16 2 14 17
M  V30 17 1 13 18
M  V30 18 2 18 19
M  V30 19 2 8 20
M  V30 20 1 20 21
M  V30 21 2 21 22
M  V30 22 1 22 23
M  V30 23 1 22 6
M  V30 24 1 19 10
M  V30 25 1 1 24
M  V30 26 1 1 25
M  V30 27 1 1 26
M  V30 28 1 2 27
M  V30 29 1 3 28
M  V30 30 1 3 29
M  V30 31 1 4 30
M  V30 32 1 9 31
M  V30 33 1 11 32
M  V30 34 1 12 33
M  V30 35 1 15 34
M  V30 36 1 15 35
M  V30 37 1 15 36
M  V30 38 1 16 37
M  V30 39 1 18 38
M  V30 40 1 19 39
M  V30 41 1 21 40
M  V30 END BOND
M  V30 END CTAB
M  END
>  <Dataset>  (155) 
ChEMBL_Kinases

>  <Ligand_Instance>  (155) 
nan

>  <PDB_ID>  (155) 
nan

>  <Standardized_SMILES>  (155) 
CC(CO)Sc1nc(Nc2ccc(S(C)(=N)=O)cc2)ncc1Br

>  <Name>  (155) 
nan

>  <Pocket>  (155) 
nan

>  <ATP_Site>  (155) 
nan

>  <Peripheral>  (155) 
nan

>  <Num_H_Atoms_ProtBoundConf>  (155) 
nan

>  <Num_Resolved_Atoms>  (155) 
nan

>  <Num_Not_Resolved_Atoms>  (155) 
nan

$$$$
CHEMBL3648107
     RDKit          3D

  0  0  0  0  0  0  0  0  0  0999 V3000
M  V30 BEGIN CTAB
M  V30 COUNTS 51 52 0 0 0
M  V30 BEGIN ATOM
M  V30 1 C -2.242417 -2.225120 1.875551 0
M  V30 2 C -3.211486 -2.845914 0.859462 0 CFG=1
M  V30 3 N -3.685872 -1.871570 -0.065587 0
M  V30 4 C -3.002976 -0.960184 -0.948624 0
M  V30 5 N -1.675386 -0.967283 -0.943205 0
M  V30 6 C -0.863325 -0.196505 -1.680883 0
M  V30 7 N 0.557267 -0.265977 -1.614930 0
M  V30 8 C 1.322583 0.539149 -0.722644 0
M  V30 9 C 0.625176 1.417855 0.089014 0
M  V30 10 C 1.432866 2.175253 0.936629 0
M  V30 11 C 2.812762 2.070277 0.975798 0
M  V30 12 S 3.769331 3.051168 2.063264 0
M  V30 13 N 3.056616 4.391020 2.401563 0
M  V30 14 O 5.089758 3.386961 1.442128 0
M  V30 15 C 3.982384 2.207784 3.636241 0
M  V30 16 C 4.688256 0.876930 3.455813 0
M  V30 17 O 4.789783 0.329950 4.752005 0
M  V30 18 C 3.421868 1.165619 0.128683 0
M  V30 19 C 2.693477 0.376227 -0.742707 0
M  V30 20 N -1.449202 0.680118 -2.518357 0
M  V30 21 C -2.789760 0.756461 -2.589847 0
M  V30 22 C -3.602687 -0.044493 -1.823326 0
M  V30 23 Br -5.513187 -0.029591 -1.835806 0
M  V30 24 C -2.676131 -4.110026 0.286734 0
M  V30 25 C -2.335152 -5.123595 1.390050 0
M  V30 26 C -1.430808 -3.981032 -0.533731 0
M  V30 27 O -3.698972 -4.727979 -0.462569 0
M  V30 28 H -1.612568 -2.999245 2.360332 0
M  V30 29 H -1.560945 -1.521301 1.363787 0
M  V30 30 H -2.809961 -1.668061 2.646156 0
M  V30 31 H -4.110816 -3.102618 1.511845 0
M  V30 32 H -4.728181 -1.721178 -0.195720 0
M  V30 33 H 0.983597 -0.952399 -2.272059 0
M  V30 34 H -0.441132 1.495993 0.055871 0
M  V30 35 H 0.909895 2.877760 1.588390 0
M  V30 36 H 3.388871 5.243655 1.925182 0
M  V30 37 H 2.954884 1.968114 3.985534 0
M  V30 38 H 4.462264 2.846479 4.372515 0
M  V30 39 H 4.071144 0.160826 2.879501 0
M  V30 40 H 5.686395 1.005750 3.005391 0
M  V30 41 H 4.595828 -0.647313 4.742877 0
M  V30 42 H 4.500807 1.074812 0.150434 0
M  V30 43 H 3.158766 -0.334117 -1.409145 0
M  V30 44 H -3.377961 1.418246 -3.221574 0
M  V30 45 H -2.308984 -6.110884 0.860922 0
M  V30 46 H -3.108319 -5.153509 2.158448 0
M  V30 47 H -1.310589 -4.944147 1.756505 0
M  V30 48 H -1.615027 -3.670676 -1.560142 0
M  V30 49 H -0.903194 -4.981414 -0.627850 0
M  V30 50 H -0.704417 -3.369731 0.038862 0
M  V30 51 H -3.937426 -4.117249 -1.202116 0
M  V30 END ATOM
M  V30 BEGIN BOND
M  V30 1 1 1 2
M  V30 2 1 2 3
M  V30 3 1 3 4
M  V30 4 2 4 5
M  V30 5 1 5 6
M  V30 6 1 6 7
M  V30 7 1 7 8
M  V30 8 2 8 9
M  V30 9 1 9 10
M  V30 10 2 10 11
M  V30 11 1 11 12
M  V30 12 2 12 13
M  V30 13 2 12 14
M  V30 14 1 12 15
M  V30 15 1 15 16
M  V30 16 1 16 17
M  V30 17 1 11 18
M  V30 18 2 18 19
M  V30 19 2 6 20
M  V30 20 1 20 21
M  V30 21 2 21 22
M  V30 22 1 22 23
M  V30 23 1 2 24
M  V30 24 1 24 25
M  V30 25 1 24 26
M  V30 26 1 24 27
M  V30 27 1 22 4
M  V30 28 1 19 8
M  V30 29 1 1 28
M  V30 30 1 1 29
M  V30 31 1 1 30
M  V30 32 1 2 31 CFG=1
M  V30 33 1 3 32
M  V30 34 1 7 33
M  V30 35 1 9 34
M  V30 36 1 10 35
M  V30 37 1 13 36
M  V30 38 1 15 37
M  V30 39 1 15 38
M  V30 40 1 16 39
M  V30 41 1 16 40
M  V30 42 1 17 41
M  V30 43 1 18 42
M  V30 44 1 19 43
M  V30 45 1 21 44
M  V30 46 1 25 45
M  V30 47 1 25 46
M  V30 48 1 25 47
M  V30 49 1 26 48
M  V30 50 1 26 49
M  V30 51 1 26 50
M  V30 52 1 27 51
M  V30 END BOND
M  V30 END CTAB
M  END
>  <Dataset>  (156) 
ChEMBL_Kinases

>  <Ligand_Instance>  (156) 
nan

>  <PDB_ID>  (156) 
nan

>  <Standardized_SMILES>  (156) 
C[C@@H](Nc1nc(Nc2ccc(S(=N)(=O)CCO)cc2)ncc1Br)C(C)(C)O

>  <Name>  (156) 
nan

>  <Pocket>  (156) 
nan

>  <ATP_Site>  (156) 
nan

>  <Peripheral>  (156) 
nan

>  <Num_H_Atoms_ProtBoundConf>  (156) 
nan

>  <Num_Resolved_Atoms>  (156) 
nan

>  <Num_Not_Resolved_Atoms>  (156) 
nan

$$$$
CHEMBL3648108
     RDKit          3D

  0  0  0  0  0  0  0  0  0  0999 V3000
M  V30 BEGIN CTAB
M  V30 COUNTS 51 52 0 0 0
M  V30 BEGIN ATOM
M  V30 1 C -4.105644 -2.548403 2.802753 0
M  V30 2 C -3.019671 -2.341994 1.723770 0 CFG=2
M  V30 3 N -3.458372 -1.285483 0.873282 0
M  V30 4 C -2.888147 -0.536252 -0.224220 0
M  V30 5 N -1.636381 -0.844019 -0.572056 0
M  V30 6 C -0.901305 -0.296802 -1.528833 0
M  V30 7 N 0.434373 -0.664224 -1.856073 0
M  V30 8 C 1.444062 0.084801 -1.168665 0
M  V30 9 C 1.084772 1.086380 -0.261395 0
M  V30 10 C 2.018471 1.848959 0.433977 0
M  V30 11 C 3.373352 1.605269 0.218067 0
M  V30 12 S 4.492242 2.597377 1.117563 0
M  V30 13 N 3.907108 4.013591 1.392192 0
M  V30 14 O 5.729870 2.799482 0.280575 0
M  V30 15 C 4.896072 1.863307 2.685387 0
M  V30 16 C 5.531938 0.515028 2.550970 0
M  V30 17 O 5.795970 0.056175 3.851046 0
M  V30 18 C 3.750850 0.622091 -0.672215 0
M  V30 19 C 2.799051 -0.116944 -1.346278 0
M  V30 20 N -1.502787 0.684458 -2.223095 0
M  V30 21 C -2.769628 1.076229 -1.954051 0
M  V30 22 C -3.504401 0.487571 -0.954639 0
M  V30 23 Br -5.283549 0.913133 -0.447570 0
M  V30 24 C -2.892775 -3.694350 1.067420 0
M  V30 25 C -4.218001 -4.200510 0.583345 0
M  V30 26 C -1.855342 -3.800140 0.005239 0
M  V30 27 O -2.463462 -4.557518 2.110574 0
M  V30 28 H -3.832233 -1.989479 3.723670 0
M  V30 29 H -5.089938 -2.211439 2.459552 0
M  V30 30 H -4.178184 -3.604029 3.114402 0
M  V30 31 H -2.092287 -2.127965 2.262481 0
M  V30 32 H -4.441133 -0.896392 1.018917 0
M  V30 33 H 0.770434 -1.394164 -2.519008 0
M  V30 34 H 0.036904 1.312826 -0.059704 0
M  V30 35 H 1.673881 2.612551 1.125627 0
M  V30 36 H 4.051089 4.705431 0.617018 0
M  V30 37 H 3.989359 1.805897 3.303115 0
M  V30 38 H 5.601942 2.512081 3.223981 0
M  V30 39 H 4.921711 -0.250833 2.064530 0
M  V30 40 H 6.475185 0.587010 1.987192 0
M  V30 41 H 5.034582 0.264809 4.455346 0
M  V30 42 H 4.808604 0.452273 -0.822134 0
M  V30 43 H 3.104630 -0.883421 -2.040341 0
M  V30 44 H -3.326866 1.852847 -2.460254 0
M  V30 45 H -4.636867 -4.984852 1.270834 0
M  V30 46 H -4.150510 -4.690262 -0.401467 0
M  V30 47 H -4.964183 -3.369546 0.604362 0
M  V30 48 H -0.887519 -3.369694 0.261939 0
M  V30 49 H -1.640297 -4.908874 -0.133305 0
M  V30 50 H -2.265000 -3.504766 -0.988093 0
M  V30 51 H -1.474269 -4.413928 2.168931 0
M  V30 END ATOM
M  V30 BEGIN BOND
M  V30 1 1 1 2
M  V30 2 1 2 3
M  V30 3 1 3 4
M  V30 4 2 4 5
M  V30 5 1 5 6
M  V30 6 1 6 7
M  V30 7 1 7 8
M  V30 8 2 8 9
M  V30 9 1 9 10
M  V30 10 2 10 11
M  V30 11 1 11 12
M  V30 12 2 12 13
M  V30 13 2 12 14
M  V30 14 1 12 15
M  V30 15 1 15 16
M  V30 16 1 16 17
M  V30 17 1 11 18
M  V30 18 2 18 19
M  V30 19 2 6 20
M  V30 20 1 20 21
M  V30 21 2 21 22
M  V30 22 1 22 23
M  V30 23 1 2 24
M  V30 24 1 24 25
M  V30 25 1 24 26
M  V30 26 1 24 27
M  V30 27 1 22 4
M  V30 28 1 19 8
M  V30 29 1 1 28
M  V30 30 1 1 29
M  V30 31 1 1 30
M  V30 32 1 2 31 CFG=1
M  V30 33 1 3 32
M  V30 34 1 7 33
M  V30 35 1 9 34
M  V30 36 1 10 35
M  V30 37 1 13 36
M  V30 38 1 15 37
M  V30 39 1 15 38
M  V30 40 1 16 39
M  V30 41 1 16 40
M  V30 42 1 17 41
M  V30 43 1 18 42
M  V30 44 1 19 43
M  V30 45 1 21 44
M  V30 46 1 25 45
M  V30 47 1 25 46
M  V30 48 1 25 47
M  V30 49 1 26 48
M  V30 50 1 26 49
M  V30 51 1 26 50
M  V30 52 1 27 51
M  V30 END BOND
M  V30 END CTAB
M  END
>  <Dataset>  (157) 
ChEMBL_Kinases

>  <Ligand_Instance>  (157) 
nan

>  <PDB_ID>  (157) 
nan

>  <Standardized_SMILES>  (157) 
C[C@H](Nc1nc(Nc2ccc(S(=N)(=O)CCO)cc2)ncc1Br)C(C)(C)O

>  <Name>  (157) 
nan

>  <Pocket>  (157) 
nan

>  <ATP_Site>  (157) 
nan

>  <Peripheral>  (157) 
nan

>  <Num_H_Atoms_ProtBoundConf>  (157) 
nan

>  <Num_Resolved_Atoms>  (157) 
nan

>  <Num_Not_Resolved_Atoms>  (157) 
nan

$$$$
CHEMBL3648109
     RDKit          3D

  0  0  0  0  0  0  0  0  0  0999 V3000
M  V30 BEGIN CTAB
M  V30 COUNTS 48 49 0 0 0
M  V30 BEGIN ATOM
M  V30 1 C -0.397219 -4.750670 2.479909 0
M  V30 2 C -0.863931 -4.823287 1.059217 0 CFG=1
M  V30 3 O -2.112728 -5.438606 0.998336 0
M  V30 4 C -0.860170 -3.466846 0.377027 0 CFG=1
M  V30 5 C 0.622357 -3.070549 0.307789 0
M  V30 6 N -1.226427 -3.707231 -1.020437 0
M  V30 7 C -1.332664 -2.642175 -1.985057 0
M  V30 8 N -1.098769 -1.373322 -1.635090 0
M  V30 9 C -1.158983 -0.302113 -2.408287 0
M  V30 10 N -0.912181 1.040352 -2.035038 0
M  V30 11 C -0.559427 1.536533 -0.781651 0
M  V30 12 C -0.338324 2.903552 -0.574257 0
M  V30 13 C 0.010275 3.432044 0.646540 0
M  V30 14 C 0.163567 2.625537 1.754436 0
M  V30 15 S 0.605528 3.400077 3.245792 0
M  V30 16 N 0.023244 2.701646 4.499087 0
M  V30 17 O 0.113435 4.822821 3.242191 0
M  V30 18 C 2.385807 3.486551 3.424897 0
M  V30 19 C 2.972079 2.077321 3.417907 0
M  V30 20 O 4.344653 2.199001 3.558792 0
M  V30 21 C -0.040744 1.271394 1.613047 0
M  V30 22 C -0.388142 0.797238 0.367478 0
M  V30 23 N -1.498354 -0.586601 -3.676886 0
M  V30 24 C -1.758979 -1.785641 -4.171810 0
M  V30 25 C -1.675009 -2.852013 -3.302367 0
M  V30 26 Br -2.023734 -4.637866 -3.874524 0
M  V30 27 H 0.694308 -4.954756 2.516494 0
M  V30 28 H -0.532197 -3.754615 2.945639 0
M  V30 29 H -0.870110 -5.527020 3.129124 0
M  V30 30 H -0.162381 -5.468473 0.486571 0
M  V30 31 H -2.291596 -6.002598 1.790015 0
M  V30 32 H -1.478360 -2.715614 0.865034 0
M  V30 33 H 1.001629 -2.938673 1.327006 0
M  V30 34 H 0.761725 -2.176296 -0.321778 0
M  V30 35 H 1.138495 -3.946368 -0.184159 0
M  V30 36 H -1.433801 -4.676597 -1.401322 0
M  V30 37 H -1.004894 1.772501 -2.802399 0
M  V30 38 H -0.446310 3.591713 -1.421001 0
M  V30 39 H 0.162994 4.508564 0.716411 0
M  V30 40 H -0.806826 3.130487 4.931433 0
M  V30 41 H 2.622889 4.027502 4.345014 0
M  V30 42 H 2.825625 4.015320 2.548502 0
M  V30 43 H 2.576149 1.515577 4.277760 0
M  V30 44 H 2.755580 1.645517 2.431840 0
M  V30 45 H 4.717078 1.504539 4.185795 0
M  V30 46 H 0.077470 0.640007 2.472700 0
M  V30 47 H -0.530831 -0.267472 0.336585 0
M  V30 48 H -2.027773 -1.947604 -5.207577 0
M  V30 END ATOM
M  V30 BEGIN BOND
M  V30 1 1 1 2
M  V30 2 1 2 3
M  V30 3 1 2 4
M  V30 4 1 4 5
M  V30 5 1 4 6
M  V30 6 1 6 7
M  V30 7 2 7 8
M  V30 8 1 8 9
M  V30 9 1 9 10
M  V30 10 1 10 11
M  V30 11 2 11 12
M  V30 12 1 12 13
M  V30 13 2 13 14
M  V30 14 1 14 15
M  V30 15 2 15 16
M  V30 16 2 15 17
M  V30 17 1 15 18
M  V30 18 1 18 19
M  V30 19 1 19 20
M  V30 20 1 14 21
M  V30 21 2 21 22
M  V30 22 2 9 23
M  V30 23 1 23 24
M  V30 24 2 24 25
M  V30 25 1 25 26
M  V30 26 1 25 7
M  V30 27 1 22 11
M  V30 28 1 1 27
M  V30 29 1 1 28
M  V30 30 1 1 29
M  V30 31 1 2 30 CFG=3
M  V30 32 1 3 31
M  V30 33 1 4 32 CFG=1
M  V30 34 1 5 33
M  V30 35 1 5 34
M  V30 36 1 5 35
M  V30 37 1 6 36
M  V30 38 1 10 37
M  V30 39 1 12 38
M  V30 40 1 13 39
M  V30 41 1 16 40
M  V30 42 1 18 41
M  V30 43 1 18 42
M  V30 44 1 19 43
M  V30 45 1 19 44
M  V30 46 1 20 45
M  V30 47 1 21 46
M  V30 48 1 22 47
M  V30 49 1 24 48
M  V30 END BOND
M  V30 END CTAB
M  END
>  <Dataset>  (158) 
ChEMBL_Kinases

>  <Ligand_Instance>  (158) 
nan

>  <PDB_ID>  (158) 
nan

>  <Standardized_SMILES>  (158) 
C[C@@H](O)[C@@H](C)Nc1nc(Nc2ccc(S(=N)(=O)CCO)cc2)ncc1Br

>  <Name>  (158) 
nan

>  <Pocket>  (158) 
nan

>  <ATP_Site>  (158) 
nan

>  <Peripheral>  (158) 
nan

>  <Num_H_Atoms_ProtBoundConf>  (158) 
nan

>  <Num_Resolved_Atoms>  (158) 
nan

>  <Num_Not_Resolved_Atoms>  (158) 
nan

$$$$
CHEMBL3648119
     RDKit          3D

  0  0  0  0  0  0  0  0  0  0999 V3000
M  V30 BEGIN CTAB
M  V30 COUNTS 48 49 0 0 0
M  V30 BEGIN ATOM
M  V30 1 C -4.521367 -4.370685 1.280440 0
M  V30 2 O -4.874079 -3.551062 0.244816 0
M  V30 3 C -4.000393 -3.433796 -0.792759 0
M  V30 4 C -2.648233 -2.874923 -0.427143 0 CFG=2
M  V30 5 N -2.686288 -1.571128 0.136683 0
M  V30 6 C -2.075837 -0.271438 0.278575 0
M  V30 7 N -0.972571 -0.025410 -0.437762 0
M  V30 8 C -0.334008 1.183055 -0.425870 0
M  V30 9 N 0.836043 1.528568 -1.151757 0
M  V30 10 C 1.887471 1.459032 -0.191750 0
M  V30 11 C 1.943338 2.687615 0.483276 0
M  V30 12 C 2.896449 2.889517 1.490517 0
M  V30 13 C 3.762202 1.846961 1.785009 0
M  V30 14 S 4.964963 2.052422 3.037415 0
M  V30 15 C 4.315001 1.533641 4.630236 0
M  V30 16 N 6.207188 1.202308 2.722316 0
M  V30 17 O 5.371631 3.490018 3.187517 0
M  V30 18 C 3.696481 0.637062 1.110202 0
M  V30 19 C 2.758467 0.440226 0.120283 0
M  V30 20 N -0.861221 2.135132 0.345193 0
M  V30 21 C -1.958277 1.922344 1.070061 0
M  V30 22 C -2.626730 0.730884 1.087065 0
M  V30 23 Br -4.196049 0.341716 2.096116 0
M  V30 24 C -1.633935 -3.148737 -1.482371 0 CFG=2
M  V30 25 C -0.276987 -3.373694 -0.876618 0
M  V30 26 O -1.665627 -2.341478 -2.590007 0
M  V30 27 H -3.613581 -4.137357 1.823870 0
M  V30 28 H -4.512899 -5.457896 1.000808 0
M  V30 29 H -5.349544 -4.299275 2.045151 0
M  V30 30 H -3.819927 -4.387302 -1.338960 0
M  V30 31 H -4.440038 -2.706100 -1.517574 0
M  V30 32 H -2.263473 -3.534512 0.460563 0
M  V30 33 H -3.584703 -1.617517 0.716231 0
M  V30 34 H 0.818887 1.766617 -2.170431 0
M  V30 35 H 1.324952 3.574741 0.337645 0
M  V30 36 H 2.994912 3.817907 2.049090 0
M  V30 37 H 4.434505 0.437957 4.692235 0
M  V30 38 H 3.211585 1.767124 4.606972 0
M  V30 39 H 4.860935 2.082111 5.404033 0
M  V30 40 H 7.105870 1.442335 3.128215 0
M  V30 41 H 4.353602 -0.209380 1.304162 0
M  V30 42 H 2.592031 -0.435455 -0.483006 0
M  V30 43 H -2.447687 2.655086 1.727759 0
M  V30 44 H -1.921508 -4.195076 -1.867832 0
M  V30 45 H 0.223469 -2.493935 -0.484624 0
M  V30 46 H -0.431866 -4.089912 -0.015798 0
M  V30 47 H 0.402648 -3.939255 -1.571731 0
M  V30 48 H -2.501777 -2.326270 -3.081732 0
M  V30 END ATOM
M  V30 BEGIN BOND
M  V30 1 1 1 2
M  V30 2 1 2 3
M  V30 3 1 3 4
M  V30 4 1 4 5
M  V30 5 1 5 6
M  V30 6 2 6 7
M  V30 7 1 7 8
M  V30 8 1 8 9
M  V30 9 1 9 10
M  V30 10 2 10 11
M  V30 11 1 11 12
M  V30 12 2 12 13
M  V30 13 1 13 14
M  V30 14 1 14 15
M  V30 15 2 14 16
M  V30 16 2 14 17
M  V30 17 1 13 18
M  V30 18 2 18 19
M  V30 19 2 8 20
M  V30 20 1 20 21
M  V30 21 2 21 22
M  V30 22 1 22 23
M  V30 23 1 4 24
M  V30 24 1 24 25
M  V30 25 1 24 26
M  V30 26 1 22 6
M  V30 27 1 19 10
M  V30 28 1 1 27
M  V30 29 1 1 28
M  V30 30 1 1 29
M  V30 31 1 3 30
M  V30 32 1 3 31
M  V30 33 1 4 32 CFG=1
M  V30 34 1 5 33
M  V30 35 1 9 34
M  V30 36 1 11 35
M  V30 37 1 12 36
M  V30 38 1 15 37
M  V30 39 1 15 38
M  V30 40 1 15 39
M  V30 41 1 16 40
M  V30 42 1 18 41
M  V30 43 1 19 42
M  V30 44 1 21 43
M  V30 45 1 24 44 CFG=3
M  V30 46 1 25 45
M  V30 47 1 25 46
M  V30 48 1 25 47
M  V30 49 1 26 48
M  V30 END BOND
M  V30 END CTAB
M  END
>  <Dataset>  (159) 
ChEMBL_Kinases

>  <Ligand_Instance>  (159) 
nan

>  <PDB_ID>  (159) 
nan

>  <Standardized_SMILES>  (159) 
COC[C@H](Nc1nc(Nc2ccc(S(C)(=N)=O)cc2)ncc1Br)[C@H](C)O

>  <Name>  (159) 
nan

>  <Pocket>  (159) 
nan

>  <ATP_Site>  (159) 
nan

>  <Peripheral>  (159) 
nan

>  <Num_H_Atoms_ProtBoundConf>  (159) 
nan

>  <Num_Resolved_Atoms>  (159) 
nan

>  <Num_Not_Resolved_Atoms>  (159) 
nan

$$$$
CHEMBL3648111
     RDKit          3D

  0  0  0  0  0  0  0  0  0  0999 V3000
M  V30 BEGIN CTAB
M  V30 COUNTS 48 49 0 0 0
M  V30 BEGIN ATOM
M  V30 1 C -1.247973 -4.267193 3.546573 0
M  V30 2 O -2.334797 -4.119814 2.669756 0
M  V30 3 C -2.296677 -3.178154 1.650212 0
M  V30 4 C -1.186924 -2.383590 1.497202 0
M  V30 5 C -1.060520 -1.418316 0.509433 0
M  V30 6 N 0.096250 -0.627961 0.391891 0
M  V30 7 C 0.389511 0.383832 -0.536529 0
M  V30 8 N -0.425139 0.789279 -1.518803 0
M  V30 9 C -0.080745 1.762285 -2.370774 0
M  V30 10 C 1.139116 2.389349 -2.266547 0
M  V30 11 Br 1.727352 3.784109 -3.425907 0
M  V30 12 C 1.998205 1.991839 -1.263969 0
M  V30 13 N 3.293869 2.533732 -1.018276 0
M  V30 14 C 4.175611 2.116642 0.022246 0 CFG=2
M  V30 15 C 4.545807 0.651852 -0.053740 0
M  V30 16 C 3.757423 2.539221 1.408181 0 CFG=1
M  V30 17 C 3.739437 4.018104 1.594976 0
M  V30 18 O 2.514926 2.050709 1.794652 0
M  V30 19 N 1.554063 1.011990 -0.469721 0
M  V30 20 C -2.173368 -1.348701 -0.298189 0
M  V30 21 C -3.312770 -2.112362 -0.198925 0
M  V30 22 C -3.376983 -3.054949 0.804500 0
M  V30 23 S -4.746472 -4.089873 1.053651 0
M  V30 24 C -5.487232 -3.892144 2.654714 0
M  V30 25 N -4.330589 -5.604271 0.960790 0
M  V30 26 O -5.810218 -3.885824 0.027135 0
M  V30 27 H -0.326418 -4.640667 3.057133 0
M  V30 28 H -1.514705 -5.050656 4.305646 0
M  V30 29 H -0.972898 -3.303720 4.060341 0
M  V30 30 H -0.369316 -2.538244 2.205403 0
M  V30 31 H 0.840000 -0.846959 1.121608 0
M  V30 32 H -0.749274 2.078602 -3.158685 0
M  V30 33 H 3.552337 3.304620 -1.705606 0
M  V30 34 H 5.164512 2.637907 -0.149761 0
M  V30 35 H 5.216886 0.528025 -0.943340 0
M  V30 36 H 3.688439 -0.014236 -0.235974 0
M  V30 37 H 5.157690 0.381039 0.807034 0
M  V30 38 H 4.465844 2.136183 2.163525 0
M  V30 39 H 2.711081 4.408953 1.850206 0
M  V30 40 H 4.376052 4.372066 2.458212 0
M  V30 41 H 4.058872 4.616065 0.727616 0
M  V30 42 H 2.567727 1.242295 2.355191 0
M  V30 43 H -2.203299 -0.636615 -1.107748 0
M  V30 44 H -4.154227 -2.006234 -0.868933 0
M  V30 45 H -5.102261 -4.638819 3.378209 0
M  V30 46 H -6.590054 -4.072696 2.587265 0
M  V30 47 H -5.264851 -2.876983 3.017406 0
M  V30 48 H -4.869277 -6.286928 0.405446 0
M  V30 END ATOM
M  V30 BEGIN BOND
M  V30 1 1 1 2
M  V30 2 1 2 3
M  V30 3 2 3 4
M  V30 4 1 4 5
M  V30 5 1 5 6
M  V30 6 1 6 7
M  V30 7 2 7 8
M  V30 8 1 8 9
M  V30 9 2 9 10
M  V30 10 1 10 11
M  V30 11 1 10 12
M  V30 12 1 12 13
M  V30 13 1 13 14
M  V30 14 1 14 15
M  V30 15 1 14 16
M  V30 16 1 16 17
M  V30 17 1 16 18
M  V30 18 2 12 19
M  V30 19 2 5 20
M  V30 20 1 20 21
M  V30 21 2 21 22
M  V30 22 1 22 23
M  V30 23 1 23 24
M  V30 24 2 23 25
M  V30 25 2 23 26
M  V30 26 1 22 3
M  V30 27 1 19 7
M  V30 28 1 1 27
M  V30 29 1 1 28
M  V30 30 1 1 29
M  V30 31 1 4 30
M  V30 32 1 6 31
M  V30 33 1 9 32
M  V30 34 1 13 33
M  V30 35 1 14 34 CFG=3
M  V30 36 1 15 35
M  V30 37 1 15 36
M  V30 38 1 15 37
M  V30 39 1 16 38 CFG=1
M  V30 40 1 17 39
M  V30 41 1 17 40
M  V30 42 1 17 41
M  V30 43 1 18 42
M  V30 44 1 20 43
M  V30 45 1 21 44
M  V30 46 1 24 45
M  V30 47 1 24 46
M  V30 48 1 24 47
M  V30 49 1 25 48
M  V30 END BOND
M  V30 END CTAB
M  END
>  <Dataset>  (160) 
ChEMBL_Kinases

>  <Ligand_Instance>  (160) 
nan

>  <PDB_ID>  (160) 
nan

>  <Standardized_SMILES>  (160) 
COc1cc(Nc2ncc(Br)c(N[C@H](C)[C@@H](C)O)n2)ccc1S(C)(=N)=O

>  <Name>  (160) 
nan

>  <Pocket>  (160) 
nan

>  <ATP_Site>  (160) 
nan

>  <Peripheral>  (160) 
nan

>  <Num_H_Atoms_ProtBoundConf>  (160) 
nan

>  <Num_Resolved_Atoms>  (160) 
nan

>  <Num_Not_Resolved_Atoms>  (160) 
nan

$$$$
CHEMBL3648112
     RDKit          3D

  0  0  0  0  0  0  0  0  0  0999 V3000
M  V30 BEGIN CTAB
M  V30 COUNTS 48 49 0 0 0
M  V30 BEGIN ATOM
M  V30 1 C -0.956303 -4.914153 2.932062 0
M  V30 2 O -2.123330 -4.294235 2.419472 0
M  V30 3 C -1.943708 -3.329870 1.435742 0
M  V30 4 C -0.693544 -2.976694 0.964572 0
M  V30 5 C -0.488417 -2.022083 -0.010827 0
M  V30 6 N 0.811270 -1.730740 -0.436978 0
M  V30 7 C 1.163358 -0.742642 -1.372318 0
M  V30 8 N 1.224014 -0.801833 -2.717210 0
M  V30 9 C 1.595606 0.269555 -3.455763 0
M  V30 10 C 1.914032 1.436025 -2.790780 0
M  V30 11 Br 2.437606 2.950531 -3.817526 0
M  V30 12 C 1.864025 1.534936 -1.417156 0
M  V30 13 N 2.195225 2.747265 -0.707143 0
M  V30 14 C 2.131456 2.804179 0.739255 0 CFG=2
M  V30 15 C 2.514367 4.187569 1.188667 0
M  V30 16 C 3.137927 1.827520 1.349460 0 CFG=2
M  V30 17 C 3.020241 1.870638 2.849907 0
M  V30 18 O 4.445532 2.127414 0.961221 0
M  V30 19 N 1.483701 0.417028 -0.774833 0
M  V30 20 C -1.564709 -1.362265 -0.570813 0
M  V30 21 C -2.842570 -1.687441 -0.125462 0
M  V30 22 C -3.016103 -2.647974 0.852912 0
M  V30 23 S -4.597289 -3.081314 1.432720 0
M  V30 24 C -4.828391 -2.807925 3.149503 0
M  V30 25 N -4.916684 -4.566327 1.112979 0
M  V30 26 O -5.613234 -2.255877 0.696780 0
M  V30 27 H -0.369968 -5.308688 2.093007 0
M  V30 28 H -1.198344 -5.705838 3.670657 0
M  V30 29 H -0.323999 -4.163396 3.477951 0
M  V30 30 H 0.180069 -3.470847 1.377198 0
M  V30 31 H 1.652392 -2.237392 -0.086037 0
M  V30 32 H 1.629135 0.176027 -4.524159 0
M  V30 33 H 2.476146 3.556063 -1.305190 0
M  V30 34 H 1.140864 2.508741 1.111879 0
M  V30 35 H 2.646992 4.869045 0.310999 0
M  V30 36 H 3.430356 4.200190 1.806930 0
M  V30 37 H 1.633461 4.615817 1.741746 0
M  V30 38 H 2.940683 0.782962 1.058549 0
M  V30 39 H 2.123179 1.259179 3.156338 0
M  V30 40 H 2.936987 2.870330 3.271490 0
M  V30 41 H 3.913308 1.356260 3.257626 0
M  V30 42 H 4.814948 1.432485 0.356693 0
M  V30 43 H -1.477811 -0.607501 -1.334682 0
M  V30 44 H -3.702615 -1.183357 -0.550501 0
M  V30 45 H -5.779304 -3.315967 3.432236 0
M  V30 46 H -4.027539 -3.219449 3.792590 0
M  V30 47 H -5.007131 -1.710641 3.331366 0
M  V30 48 H -5.241863 -4.822522 0.159597 0
M  V30 END ATOM
M  V30 BEGIN BOND
M  V30 1 1 1 2
M  V30 2 1 2 3
M  V30 3 2 3 4
M  V30 4 1 4 5
M  V30 5 1 5 6
M  V30 6 1 6 7
M  V30 7 2 7 8
M  V30 8 1 8 9
M  V30 9 2 9 10
M  V30 10 1 10 11
M  V30 11 1 10 12
M  V30 12 1 12 13
M  V30 13 1 13 14
M  V30 14 1 14 15
M  V30 15 1 14 16
M  V30 16 1 16 17
M  V30 17 1 16 18
M  V30 18 2 12 19
M  V30 19 2 5 20
M  V30 20 1 20 21
M  V30 21 2 21 22
M  V30 22 1 22 23
M  V30 23 1 23 24
M  V30 24 2 23 25
M  V30 25 2 23 26
M  V30 26 1 22 3
M  V30 27 1 19 7
M  V30 28 1 1 27
M  V30 29 1 1 28
M  V30 30 1 1 29
M  V30 31 1 4 30
M  V30 32 1 6 31
M  V30 33 1 9 32
M  V30 34 1 13 33
M  V30 35 1 14 34 CFG=3
M  V30 36 1 15 35
M  V30 37 1 15 36
M  V30 38 1 15 37
M  V30 39 1 16 38 CFG=3
M  V30 40 1 17 39
M  V30 41 1 17 40
M  V30 42 1 17 41
M  V30 43 1 18 42
M  V30 44 1 20 43
M  V30 45 1 21 44
M  V30 46 1 24 45
M  V30 47 1 24 46
M  V30 48 1 24 47
M  V30 49 1 25 48
M  V30 END BOND
M  V30 END CTAB
M  END
>  <Dataset>  (161) 
ChEMBL_Kinases

>  <Ligand_Instance>  (161) 
nan

>  <PDB_ID>  (161) 
nan

>  <Standardized_SMILES>  (161) 
COc1cc(Nc2ncc(Br)c(N[C@H](C)[C@H](C)O)n2)ccc1S(C)(=N)=O

>  <Name>  (161) 
nan

>  <Pocket>  (161) 
nan

>  <ATP_Site>  (161) 
nan

>  <Peripheral>  (161) 
nan

>  <Num_H_Atoms_ProtBoundConf>  (161) 
nan

>  <Num_Resolved_Atoms>  (161) 
nan

>  <Num_Not_Resolved_Atoms>  (161) 
nan

$$$$
CHEMBL3648113
     RDKit          3D

  0  0  0  0  0  0  0  0  0  0999 V3000
M  V30 BEGIN CTAB
M  V30 COUNTS 51 52 0 0 0
M  V30 BEGIN ATOM
M  V30 1 C 0.796213 -6.073097 2.860004 0
M  V30 2 N 0.430003 -5.720680 1.510813 0
M  V30 3 S -0.643240 -4.585852 1.364097 0
M  V30 4 C -2.008496 -5.243611 0.426695 0
M  V30 5 O -1.195946 -4.226363 2.725795 0
M  V30 6 C 0.029780 -3.164955 0.619595 0
M  V30 7 C 0.059467 -1.949997 1.271600 0
M  V30 8 C 0.610686 -0.872326 0.610910 0
M  V30 9 C 1.144734 -0.887871 -0.660135 0
M  V30 10 N 1.690311 0.239566 -1.312600 0
M  V30 11 C 1.643766 1.600566 -0.932610 0
M  V30 12 N 2.337359 2.481151 -1.675166 0
M  V30 13 C 2.362109 3.776678 -1.422517 0
M  V30 14 C 1.657399 4.274914 -0.361036 0
M  V30 15 Br 1.694168 6.151913 0.004131 0
M  V30 16 C 0.917132 3.403866 0.445898 0
M  V30 17 N 0.182067 3.913326 1.573396 0
M  V30 18 C -0.663613 3.252335 2.546458 0 CFG=2
M  V30 19 C 0.047863 2.068772 3.124272 0
M  V30 20 C -2.024900 2.894716 2.057348 0 CFG=1
M  V30 21 C -2.066566 2.025261 0.844505 0
M  V30 22 O -2.741871 2.251321 3.091780 0
M  V30 23 N 0.964460 2.112116 0.097167 0
M  V30 24 C 1.087462 -2.128313 -1.261684 0
M  V30 25 C 0.550695 -3.242019 -0.655997 0
M  V30 26 O 0.516254 -4.452689 -1.294028 0
M  V30 27 C 0.973869 -4.773321 -2.564949 0
M  V30 28 H 1.426159 -6.984176 2.881829 0
M  V30 29 H -0.143778 -6.146471 3.434213 0
M  V30 30 H 1.329488 -5.177346 3.264194 0
M  V30 31 H -2.776626 -5.677454 1.130615 0
M  V30 32 H -1.708539 -6.117424 -0.200089 0
M  V30 33 H -2.530541 -4.459352 -0.135699 0
M  V30 34 H -0.343125 -1.866933 2.270776 0
M  V30 35 H 0.612933 0.038562 1.169168 0
M  V30 36 H 2.191649 -0.007029 -2.196652 0
M  V30 37 H 2.917736 4.476500 -2.018435 0
M  V30 38 H 0.295764 4.971877 1.687590 0
M  V30 39 H -0.763512 4.003783 3.394046 0
M  V30 40 H 1.064915 1.910733 2.687343 0
M  V30 41 H 0.204391 2.153063 4.213201 0
M  V30 42 H -0.576508 1.162897 2.919741 0
M  V30 43 H -2.640410 3.803567 1.840315 0
M  V30 44 H -1.768927 2.581669 -0.076630 0
M  V30 45 H -3.131812 1.693132 0.643384 0
M  V30 46 H -1.495055 1.088137 0.931498 0
M  V30 47 H -2.879501 1.308261 2.885804 0
M  V30 48 H 1.483480 -2.243885 -2.265922 0
M  V30 49 H 1.971072 -5.268294 -2.572155 0
M  V30 50 H 0.886722 -3.927640 -3.244643 0
M  V30 51 H 0.270566 -5.568289 -2.952575 0
M  V30 END ATOM
M  V30 BEGIN BOND
M  V30 1 1 1 2
M  V30 2 2 2 3
M  V30 3 1 3 4
M  V30 4 2 3 5
M  V30 5 1 3 6
M  V30 6 2 6 7
M  V30 7 1 7 8
M  V30 8 2 8 9
M  V30 9 1 9 10
M  V30 10 1 10 11
M  V30 11 2 11 12
M  V30 12 1 12 13
M  V30 13 2 13 14
M  V30 14 1 14 15
M  V30 15 1 14 16
M  V30 16 1 16 17
M  V30 17 1 17 18
M  V30 18 1 18 19
M  V30 19 1 18 20
M  V30 20 1 20 21
M  V30 21 1 20 22
M  V30 22 2 16 23
M  V30 23 1 9 24
M  V30 24 2 24 25
M  V30 25 1 25 26
M  V30 26 1 26 27
M  V30 27 1 25 6
M  V30 28 1 23 11
M  V30 29 1 1 28
M  V30 30 1 1 29
M  V30 31 1 1 30
M  V30 32 1 4 31
M  V30 33 1 4 32
M  V30 34 1 4 33
M  V30 35 1 7 34
M  V30 36 1 8 35
M  V30 37 1 10 36
M  V30 38 1 13 37
M  V30 39 1 17 38
M  V30 40 1 18 39 CFG=1
M  V30 41 1 19 40
M  V30 42 1 19 41
M  V30 43 1 19 42
M  V30 44 1 20 43 CFG=3
M  V30 45 1 21 44
M  V30 46 1 21 45
M  V30 47 1 21 46
M  V30 48 1 22 47
M  V30 49 1 24 48
M  V30 50 1 27 49
M  V30 51 1 27 50
M  V30 52 1 27 51
M  V30 END BOND
M  V30 END CTAB
M  END
>  <Dataset>  (162) 
ChEMBL_Kinases

>  <Ligand_Instance>  (162) 
nan

>  <PDB_ID>  (162) 
nan

>  <Standardized_SMILES>  (162) 
CN=S(C)(=O)c1ccc(Nc2ncc(Br)c(N[C@H](C)[C@@H](C)O)n2)cc1OC

>  <Name>  (162) 
nan

>  <Pocket>  (162) 
nan

>  <ATP_Site>  (162) 
nan

>  <Peripheral>  (162) 
nan

>  <Num_H_Atoms_ProtBoundConf>  (162) 
nan

>  <Num_Resolved_Atoms>  (162) 
nan

>  <Num_Not_Resolved_Atoms>  (162) 
nan

$$$$
CHEMBL3648114
     RDKit          3D

  0  0  0  0  0  0  0  0  0  0999 V3000
M  V30 BEGIN CTAB
M  V30 COUNTS 51 52 0 0 0
M  V30 BEGIN ATOM
M  V30 1 C 0.713469 -6.029946 3.021215 0
M  V30 2 N 0.426590 -5.770679 1.637160 0
M  V30 3 S -0.668438 -4.729517 1.259011 0
M  V30 4 C -1.791249 -5.503394 0.105111 0
M  V30 5 O -1.468986 -4.422928 2.498445 0
M  V30 6 C 0.009499 -3.266386 0.581652 0
M  V30 7 C -0.163469 -2.031125 1.169689 0
M  V30 8 C 0.413264 -0.942594 0.552459 0
M  V30 9 C 1.155450 -0.962439 -0.608584 0
M  V30 10 N 1.738406 0.159486 -1.239313 0
M  V30 11 C 1.627302 1.525695 -0.883484 0
M  V30 12 N 2.305971 2.428287 -1.612304 0
M  V30 13 C 2.308591 3.746474 -1.416079 0
M  V30 14 C 1.541607 4.188635 -0.371049 0
M  V30 15 Br 1.492134 6.071675 -0.022996 0
M  V30 16 C 0.809115 3.335419 0.433643 0
M  V30 17 N 0.027125 3.834510 1.511731 0
M  V30 18 C -0.780394 3.039377 2.413514 0 CFG=2
M  V30 19 C 0.121945 2.030935 3.086470 0
M  V30 20 C -1.903489 2.306418 1.730597 0 CFG=2
M  V30 21 C -2.846937 3.252684 1.021762 0
M  V30 22 O -2.577321 1.592302 2.712730 0
M  V30 23 N 0.901421 2.040203 0.119935 0
M  V30 24 C 1.291086 -2.225850 -1.145476 0
M  V30 25 C 0.742844 -3.355745 -0.583187 0
M  V30 26 O 0.918124 -4.586364 -1.173548 0
M  V30 27 C 1.618631 -4.878857 -2.339793 0
M  V30 28 H 1.094274 -7.056435 3.173253 0
M  V30 29 H -0.211461 -5.831747 3.596981 0
M  V30 30 H 1.459028 -5.260926 3.369070 0
M  V30 31 H -2.625804 -5.988769 0.665663 0
M  V30 32 H -1.312096 -6.288715 -0.498984 0
M  V30 33 H -2.304225 -4.734222 -0.541604 0
M  V30 34 H -0.734726 -1.937343 2.083257 0
M  V30 35 H 0.251825 -0.009169 1.052513 0
M  V30 36 H 2.324997 -0.070020 -2.075567 0
M  V30 37 H 2.878404 4.396544 -2.044351 0
M  V30 38 H 0.060023 4.891787 1.639791 0
M  V30 39 H -1.213465 3.742011 3.173575 0
M  V30 40 H 1.049724 1.833052 2.498169 0
M  V30 41 H 0.383559 2.431295 4.107384 0
M  V30 42 H -0.415917 1.069406 3.162122 0
M  V30 43 H -1.487536 1.607887 1.009362 0
M  V30 44 H -2.904958 2.996170 -0.041318 0
M  V30 45 H -2.547014 4.313713 1.191277 0
M  V30 46 H -3.839209 3.148909 1.473403 0
M  V30 47 H -2.847593 2.250844 3.418717 0
M  V30 48 H 1.854109 -2.367597 -2.058950 0
M  V30 49 H 2.669476 -5.247515 -2.154882 0
M  V30 50 H 1.589141 -4.094901 -3.110542 0
M  V30 51 H 1.114853 -5.767247 -2.822991 0
M  V30 END ATOM
M  V30 BEGIN BOND
M  V30 1 1 1 2
M  V30 2 2 2 3
M  V30 3 1 3 4
M  V30 4 2 3 5
M  V30 5 1 3 6
M  V30 6 2 6 7
M  V30 7 1 7 8
M  V30 8 2 8 9
M  V30 9 1 9 10
M  V30 10 1 10 11
M  V30 11 2 11 12
M  V30 12 1 12 13
M  V30 13 2 13 14
M  V30 14 1 14 15
M  V30 15 1 14 16
M  V30 16 1 16 17
M  V30 17 1 17 18
M  V30 18 1 18 19
M  V30 19 1 18 20
M  V30 20 1 20 21
M  V30 21 1 20 22
M  V30 22 2 16 23
M  V30 23 1 9 24
M  V30 24 2 24 25
M  V30 25 1 25 26
M  V30 26 1 26 27
M  V30 27 1 25 6
M  V30 28 1 23 11
M  V30 29 1 1 28
M  V30 30 1 1 29
M  V30 31 1 1 30
M  V30 32 1 4 31
M  V30 33 1 4 32
M  V30 34 1 4 33
M  V30 35 1 7 34
M  V30 36 1 8 35
M  V30 37 1 10 36
M  V30 38 1 13 37
M  V30 39 1 17 38
M  V30 40 1 18 39 CFG=1
M  V30 41 1 19 40
M  V30 42 1 19 41
M  V30 43 1 19 42
M  V30 44 1 20 43 CFG=3
M  V30 45 1 21 44
M  V30 46 1 21 45
M  V30 47 1 21 46
M  V30 48 1 22 47
M  V30 49 1 24 48
M  V30 50 1 27 49
M  V30 51 1 27 50
M  V30 52 1 27 51
M  V30 END BOND
M  V30 END CTAB
M  END
>  <Dataset>  (163) 
ChEMBL_Kinases

>  <Ligand_Instance>  (163) 
nan

>  <PDB_ID>  (163) 
nan

>  <Standardized_SMILES>  (163) 
CN=S(C)(=O)c1ccc(Nc2ncc(Br)c(N[C@H](C)[C@H](C)O)n2)cc1OC

>  <Name>  (163) 
nan

>  <Pocket>  (163) 
nan

>  <ATP_Site>  (163) 
nan

>  <Peripheral>  (163) 
nan

>  <Num_H_Atoms_ProtBoundConf>  (163) 
nan

>  <Num_Resolved_Atoms>  (163) 
nan

>  <Num_Not_Resolved_Atoms>  (163) 
nan

$$$$
CHEMBL3648115
     RDKit          3D

  0  0  0  0  0  0  0  0  0  0999 V3000
M  V30 BEGIN CTAB
M  V30 COUNTS 51 52 0 0 0
M  V30 BEGIN ATOM
M  V30 1 C 0.609373 -5.509505 4.197059 0
M  V30 2 O -0.432748 -5.319982 3.281859 0
M  V30 3 C -0.377550 -4.468642 2.206671 0
M  V30 4 C 0.743265 -3.711327 1.937273 0
M  V30 5 C 0.841398 -2.839514 0.863451 0
M  V30 6 N 2.027324 -2.070411 0.585646 0
M  V30 7 C 1.880880 -1.149703 -0.521272 0
M  V30 8 N 1.953141 -1.591124 -1.790311 0
M  V30 9 C 1.817940 -0.782848 -2.850152 0
M  V30 10 C 1.597343 0.545457 -2.565000 0
M  V30 11 Br 1.391452 1.769292 -4.035318 0
M  V30 12 C 1.513163 1.062178 -1.266450 0
M  V30 13 N 1.272591 2.432715 -0.984646 0
M  V30 14 C 1.200448 3.006441 0.320639 0 CFG=2
M  V30 15 C 0.185337 2.371886 1.241086 0
M  V30 16 C 0.762168 4.464590 0.170290 0
M  V30 17 C 0.598507 5.177129 1.468627 0
M  V30 18 C 1.649397 5.228539 -0.787444 0
M  V30 19 O -0.507223 4.385070 -0.450618 0
M  V30 20 N 1.663227 0.165745 -0.279881 0
M  V30 21 C -0.295873 -2.777922 0.056478 0
M  V30 22 C -1.439399 -3.512993 0.282964 0
M  V30 23 C -1.489914 -4.367073 1.362175 0
M  V30 24 S -2.862633 -5.366158 1.761186 0
M  V30 25 C -4.220615 -5.159584 0.641960 0
M  V30 26 N -3.357229 -5.132923 3.219106 0
M  V30 27 O -2.441702 -6.813527 1.666303 0
M  V30 28 H 0.423611 -6.467360 4.758462 0
M  V30 29 H 0.640602 -4.719769 4.979617 0
M  V30 30 H 1.597868 -5.503289 3.687401 0
M  V30 31 H 1.590149 -3.789916 2.583849 0
M  V30 32 H 2.832283 -2.287719 1.225254 0
M  V30 33 H 1.873136 -1.106111 -3.873109 0
M  V30 34 H 1.145046 3.033400 -1.857047 0
M  V30 35 H 2.189380 3.046566 0.843104 0
M  V30 36 H 0.701773 1.696104 1.981994 0
M  V30 37 H -0.606978 1.811994 0.748273 0
M  V30 38 H -0.311776 3.138269 1.902892 0
M  V30 39 H 1.278017 4.831038 2.248590 0
M  V30 40 H 0.844146 6.267213 1.285826 0
M  V30 41 H -0.472046 5.225471 1.820292 0
M  V30 42 H 2.726821 4.972999 -0.672057 0
M  V30 43 H 1.522294 6.318569 -0.543846 0
M  V30 44 H 1.295046 5.105750 -1.844867 0
M  V30 45 H -1.109341 3.964895 0.228350 0
M  V30 46 H -0.314215 -2.133375 -0.793102 0
M  V30 47 H -2.299545 -3.437035 -0.365356 0
M  V30 48 H -4.957636 -4.416388 1.010997 0
M  V30 49 H -4.714006 -6.134793 0.419726 0
M  V30 50 H -3.817603 -4.777309 -0.318551 0
M  V30 51 H -4.091385 -5.801717 3.536286 0
M  V30 END ATOM
M  V30 BEGIN BOND
M  V30 1 1 1 2
M  V30 2 1 2 3
M  V30 3 2 3 4
M  V30 4 1 4 5
M  V30 5 1 5 6
M  V30 6 1 6 7
M  V30 7 2 7 8
M  V30 8 1 8 9
M  V30 9 2 9 10
M  V30 10 1 10 11
M  V30 11 1 10 12
M  V30 12 1 12 13
M  V30 13 1 13 14
M  V30 14 1 14 15
M  V30 15 1 14 16
M  V30 16 1 16 17
M  V30 17 1 16 18
M  V30 18 1 16 19
M  V30 19 2 12 20
M  V30 20 2 5 21
M  V30 21 1 21 22
M  V30 22 2 22 23
M  V30 23 1 23 24
M  V30 24 1 24 25
M  V30 25 2 24 26
M  V30 26 2 24 27
M  V30 27 1 23 3
M  V30 28 1 20 7
M  V30 29 1 1 28
M  V30 30 1 1 29
M  V30 31 1 1 30
M  V30 32 1 4 31
M  V30 33 1 6 32
M  V30 34 1 9 33
M  V30 35 1 13 34
M  V30 36 1 14 35 CFG=1
M  V30 37 1 15 36
M  V30 38 1 15 37
M  V30 39 1 15 38
M  V30 40 1 17 39
M  V30 41 1 17 40
M  V30 42 1 17 41
M  V30 43 1 18 42
M  V30 44 1 18 43
M  V30 45 1 18 44
M  V30 46 1 19 45
M  V30 47 1 21 46
M  V30 48 1 22 47
M  V30 49 1 25 48
M  V30 50 1 25 49
M  V30 51 1 25 50
M  V30 52 1 26 51
M  V30 END BOND
M  V30 END CTAB
M  END
>  <Dataset>  (164) 
ChEMBL_Kinases

>  <Ligand_Instance>  (164) 
nan

>  <PDB_ID>  (164) 
nan

>  <Standardized_SMILES>  (164) 
COc1cc(Nc2ncc(Br)c(N[C@H](C)C(C)(C)O)n2)ccc1S(C)(=N)=O

>  <Name>  (164) 
nan

>  <Pocket>  (164) 
nan

>  <ATP_Site>  (164) 
nan

>  <Peripheral>  (164) 
nan

>  <Num_H_Atoms_ProtBoundConf>  (164) 
nan

>  <Num_Resolved_Atoms>  (164) 
nan

>  <Num_Not_Resolved_Atoms>  (164) 
nan

$$$$
CHEMBL3648116
     RDKit          3D

  0  0  0  0  0  0  0  0  0  0999 V3000
M  V30 BEGIN CTAB
M  V30 COUNTS 47 48 0 0 0
M  V30 BEGIN ATOM
M  V30 1 C -0.831315 -5.125495 2.026367 0
M  V30 2 C -1.757007 -3.922143 1.873888 0 CFG=2
M  V30 3 N -1.412119 -3.147373 0.773533 0
M  V30 4 C -1.060313 -2.376814 -0.313789 0
M  V30 5 N -0.081539 -1.639407 -0.797284 0
M  V30 6 C -0.126541 -0.987283 -1.948780 0
M  V30 7 N 1.008815 -0.241207 -2.327632 0
M  V30 8 C 1.421648 0.949481 -1.647188 0
M  V30 9 C 2.342256 1.887619 -2.114184 0
M  V30 10 C 2.690566 2.991483 -1.361989 0
M  V30 11 C 2.098538 3.161561 -0.104158 0
M  V30 12 S 2.645086 4.628591 0.710958 0
M  V30 13 C 4.253522 4.393281 1.445658 0
M  V30 14 N 1.653576 4.838608 1.913563 0
M  V30 15 O 2.566282 5.829845 -0.150889 0
M  V30 16 C 1.184684 2.243148 0.373699 0
M  V30 17 C 0.856330 1.149375 -0.401234 0
M  V30 18 N -1.238869 -1.053212 -2.720163 0
M  V30 19 C -2.296966 -1.774666 -2.328387 0
M  V30 20 C -2.234642 -2.458316 -1.108140 0
M  V30 21 Br -3.896399 -3.396571 -0.842666 0
M  V30 22 C -1.812280 -3.202419 3.217594 0
M  V30 23 C -0.416897 -2.715675 3.630802 0
M  V30 24 C -2.803956 -2.070455 3.230476 0
M  V30 25 O -2.187066 -4.110675 4.218415 0
M  V30 26 H -1.318969 -5.964048 1.483852 0
M  V30 27 H 0.190325 -4.928298 1.678246 0
M  V30 28 H -0.756846 -5.453000 3.088930 0
M  V30 29 H -2.832889 -4.323475 1.745425 0
M  V30 30 H -0.470408 -2.957745 1.247706 0
M  V30 31 H 1.658345 -0.478056 -3.136803 0
M  V30 32 H 2.757495 1.694553 -3.089299 0
M  V30 33 H 3.415938 3.652806 -1.824492 0
M  V30 34 H 4.606658 3.385530 1.130227 0
M  V30 35 H 4.983320 5.127910 1.038132 0
M  V30 36 H 4.220981 4.379234 2.557657 0
M  V30 37 H 1.679671 5.799845 2.331756 0
M  V30 38 H 0.807384 2.492430 1.352449 0
M  V30 39 H 0.134517 0.537796 0.116150 0
M  V30 40 H -3.086642 -1.707280 -3.073173 0
M  V30 41 H 0.294417 -3.594003 3.611682 0
M  V30 42 H -0.079231 -1.878546 3.003298 0
M  V30 43 H -0.495906 -2.395740 4.685510 0
M  V30 44 H -3.815497 -2.519401 3.105788 0
M  V30 45 H -2.597123 -1.294695 2.490319 0
M  V30 46 H -2.771913 -1.673020 4.290085 0
M  V30 47 H -2.498934 -3.698350 5.039687 0
M  V30 END ATOM
M  V30 BEGIN BOND
M  V30 1 1 1 2
M  V30 2 1 2 3
M  V30 3 1 3 4
M  V30 4 2 4 5
M  V30 5 1 5 6
M  V30 6 1 6 7
M  V30 7 1 7 8
M  V30 8 2 8 9
M  V30 9 1 9 10
M  V30 10 2 10 11
M  V30 11 1 11 12
M  V30 12 1 12 13
M  V30 13 2 12 14
M  V30 14 2 12 15
M  V30 15 1 11 16
M  V30 16 2 16 17
M  V30 17 2 6 18
M  V30 18 1 18 19
M  V30 19 2 19 20
M  V30 20 1 20 21
M  V30 21 1 2 22
M  V30 22 1 22 23
M  V30 23 1 22 24
M  V30 24 1 22 25
M  V30 25 1 20 4
M  V30 26 1 17 8
M  V30 27 1 1 26
M  V30 28 1 1 27
M  V30 29 1 1 28
M  V30 30 1 2 29 CFG=3
M  V30 31 1 3 30
M  V30 32 1 7 31
M  V30 33 1 9 32
M  V30 34 1 10 33
M  V30 35 1 13 34
M  V30 36 1 13 35
M  V30 37 1 13 36
M  V30 38 1 14 37
M  V30 39 1 16 38
M  V30 40 1 17 39
M  V30 41 1 19 40
M  V30 42 1 23 41
M  V30 43 1 23 42
M  V30 44 1 23 43
M  V30 45 1 24 44
M  V30 46 1 24 45
M  V30 47 1 24 46
M  V30 48 1 25 47
M  V30 END BOND
M  V30 END CTAB
M  END
>  <Dataset>  (165) 
ChEMBL_Kinases

>  <Ligand_Instance>  (165) 
nan

>  <PDB_ID>  (165) 
nan

>  <Standardized_SMILES>  (165) 
C[C@H](Nc1nc(Nc2ccc(S(C)(=N)=O)cc2)ncc1Br)C(C)(C)O

>  <Name>  (165) 
nan

>  <Pocket>  (165) 
nan

>  <ATP_Site>  (165) 
nan

>  <Peripheral>  (165) 
nan

>  <Num_H_Atoms_ProtBoundConf>  (165) 
nan

>  <Num_Resolved_Atoms>  (165) 
nan

>  <Num_Not_Resolved_Atoms>  (165) 
nan

$$$$
CHEMBL3648117
     RDKit          3D

  0  0  0  0  0  0  0  0  0  0999 V3000
M  V30 BEGIN CTAB
M  V30 COUNTS 44 45 0 0 0
M  V30 BEGIN ATOM
M  V30 1 C -1.598475 -3.668194 1.393760 0
M  V30 2 C -1.026242 -3.292808 0.034563 0 CFG=2
M  V30 3 O 0.187941 -2.636020 0.164612 0
M  V30 4 C -2.026562 -2.490873 -0.768073 0 CFG=1
M  V30 5 C -2.360509 -1.248261 0.028947 0
M  V30 6 N -1.589874 -2.199483 -2.092975 0
M  V30 7 C -0.506314 -1.380245 -2.506063 0
M  V30 8 N 0.296786 -0.707428 -1.667721 0
M  V30 9 C 1.316912 0.077691 -2.017420 0
M  V30 10 N 2.161002 0.797645 -1.135183 0
M  V30 11 C 2.091705 0.929569 0.276305 0
M  V30 12 C 3.104853 1.511868 1.035899 0
M  V30 13 C 3.023096 1.641468 2.397026 0
M  V30 14 C 1.922955 1.198599 3.097700 0
M  V30 15 S 1.871153 1.386129 4.836495 0
M  V30 16 C 1.139454 2.971017 5.181334 0
M  V30 17 N 3.246681 1.196813 5.506797 0
M  V30 18 O 0.920934 0.325498 5.372391 0
M  V30 19 C 0.892032 0.615443 2.396671 0
M  V30 20 C 1.017055 0.505820 1.027516 0
M  V30 21 N 1.560843 0.204964 -3.331826 0
M  V30 22 C 0.838787 -0.408839 -4.274828 0
M  V30 23 C -0.190091 -1.197449 -3.857070 0
M  V30 24 Br -1.237849 -2.085939 -5.167018 0
M  V30 25 H -1.376609 -2.883615 2.140765 0
M  V30 26 H -2.679625 -3.812023 1.320257 0
M  V30 27 H -1.117374 -4.607312 1.782200 0
M  V30 28 H -0.865660 -4.244588 -0.535273 0
M  V30 29 H 0.410504 -2.443333 1.108459 0
M  V30 30 H -2.941547 -3.145268 -0.840115 0
M  V30 31 H -1.828823 -1.226946 1.002361 0
M  V30 32 H -2.078165 -0.311781 -0.486790 0
M  V30 33 H -3.436255 -1.251999 0.263912 0
M  V30 34 H -2.122392 -2.636428 -2.908748 0
M  V30 35 H 2.976708 1.331840 -1.542575 0
M  V30 36 H 3.992473 1.875025 0.516935 0
M  V30 37 H 3.853141 2.104308 2.906713 0
M  V30 38 H 0.837827 3.515729 4.258920 0
M  V30 39 H 1.916077 3.595671 5.679497 0
M  V30 40 H 0.243785 2.884459 5.808982 0
M  V30 41 H 3.314938 0.518811 6.295978 0
M  V30 42 H 0.026351 0.266933 2.942043 0
M  V30 43 H 0.168952 0.048806 0.558452 0
M  V30 44 H 1.047307 -0.296093 -5.326226 0
M  V30 END ATOM
M  V30 BEGIN BOND
M  V30 1 1 1 2
M  V30 2 1 2 3
M  V30 3 1 2 4
M  V30 4 1 4 5
M  V30 5 1 4 6
M  V30 6 1 6 7
M  V30 7 2 7 8
M  V30 8 1 8 9
M  V30 9 1 9 10
M  V30 10 1 10 11
M  V30 11 2 11 12
M  V30 12 1 12 13
M  V30 13 2 13 14
M  V30 14 1 14 15
M  V30 15 1 15 16
M  V30 16 2 15 17
M  V30 17 2 15 18
M  V30 18 1 14 19
M  V30 19 2 19 20
M  V30 20 2 9 21
M  V30 21 1 21 22
M  V30 22 2 22 23
M  V30 23 1 23 24
M  V30 24 1 23 7
M  V30 25 1 20 11
M  V30 26 1 1 25
M  V30 27 1 1 26
M  V30 28 1 1 27
M  V30 29 1 2 28 CFG=3
M  V30 30 1 3 29
M  V30 31 1 4 30 CFG=3
M  V30 32 1 5 31
M  V30 33 1 5 32
M  V30 34 1 5 33
M  V30 35 1 6 34
M  V30 36 1 10 35
M  V30 37 1 12 36
M  V30 38 1 13 37
M  V30 39 1 16 38
M  V30 40 1 16 39
M  V30 41 1 16 40
M  V30 42 1 17 41
M  V30 43 1 19 42
M  V30 44 1 20 43
M  V30 45 1 22 44
M  V30 END BOND
M  V30 END CTAB
M  END
>  <Dataset>  (166) 
ChEMBL_Kinases

>  <Ligand_Instance>  (166) 
nan

>  <PDB_ID>  (166) 
nan

>  <Standardized_SMILES>  (166) 
C[C@H](O)[C@@H](C)Nc1nc(Nc2ccc(S(C)(=N)=O)cc2)ncc1Br

>  <Name>  (166) 
nan

>  <Pocket>  (166) 
nan

>  <ATP_Site>  (166) 
nan

>  <Peripheral>  (166) 
nan

>  <Num_H_Atoms_ProtBoundConf>  (166) 
nan

>  <Num_Resolved_Atoms>  (166) 
nan

>  <Num_Not_Resolved_Atoms>  (166) 
nan

$$$$
CHEMBL3953845
     RDKit          3D

  0  0  0  0  0  0  0  0  0  0999 V3000
M  V30 BEGIN CTAB
M  V30 COUNTS 42 46 0 0 0
M  V30 BEGIN ATOM
M  V30 1 C -1.404038 -2.604228 2.785780 0
M  V30 2 C -0.267149 -3.034455 2.331139 0
M  V30 3 C 0.764381 -2.590935 1.429128 0
M  V30 4 N 1.865242 -3.368855 1.200980 0
M  V30 5 N 2.662981 -2.775736 0.356588 0
M  V30 6 C 2.191937 -1.585660 -0.048978 0
M  V30 7 C 2.630142 -0.595555 -0.902732 0
M  V30 8 C 1.846945 0.526769 -1.074342 0
M  V30 9 C 2.395702 1.511467 -1.994462 0
M  V30 10 C 2.915366 1.037686 -3.204233 0
M  V30 11 C 3.459774 1.883064 -4.150771 0
M  V30 12 N 3.510847 3.221193 -3.938549 0
M  V30 13 C 3.014902 3.697062 -2.778286 0
M  V30 14 N 2.910940 4.946329 -2.259541 0
M  V30 15 C 2.329415 4.920992 -1.038118 0
M  V30 16 C 2.032447 3.603026 -0.727044 0
M  V30 17 C 2.466552 2.878035 -1.817121 0
M  V30 18 C 0.654944 0.616513 -0.385579 0
M  V30 19 C 0.229956 -0.380699 0.464142 0
M  V30 20 C 1.003897 -1.498091 0.638636 0
M  V30 21 C -2.338218 -3.207425 3.720969 0
M  V30 22 C -3.489034 -2.518371 4.032447 0
M  V30 23 C -4.406837 -3.043961 4.911859 0
M  V30 24 C -4.208939 -4.265355 5.505607 0
M  V30 25 C -3.069681 -4.988311 5.221217 0
M  V30 26 C -2.173397 -4.428998 4.335391 0
M  V30 27 H -1.643970 -1.652464 2.376314 0
M  V30 28 H -0.136116 -4.012016 2.823499 0
M  V30 29 H 3.558454 -3.228041 0.065056 0
M  V30 30 H 3.576813 -0.739639 -1.407022 0
M  V30 31 H 2.918901 -0.026067 -3.466051 0
M  V30 32 H 3.862039 1.487177 -5.094207 0
M  V30 33 H 3.254599 5.794466 -2.781726 0
M  V30 34 H 2.146357 5.796821 -0.441892 0
M  V30 35 H 1.563436 3.244369 0.177554 0
M  V30 36 H 0.077959 1.509270 -0.551282 0
M  V30 37 H -0.702931 -0.260201 0.973708 0
M  V30 38 H -3.706155 -1.544261 3.595796 0
M  V30 39 H -5.312934 -2.460771 5.133223 0
M  V30 40 H -4.927644 -4.696456 6.205709 0
M  V30 41 H -2.894534 -5.953289 5.678590 0
M  V30 42 H -1.298460 -5.006944 4.130313 0
M  V30 END ATOM
M  V30 BEGIN BOND
M  V30 1 2 1 2
M  V30 2 1 2 3
M  V30 3 2 3 4
M  V30 4 1 4 5
M  V30 5 1 5 6
M  V30 6 2 6 7
M  V30 7 1 7 8
M  V30 8 1 8 9
M  V30 9 2 9 10
M  V30 10 1 10 11
M  V30 11 2 11 12
M  V30 12 1 12 13
M  V30 13 1 13 14
M  V30 14 1 14 15
M  V30 15 2 15 16
M  V30 16 1 16 17
M  V30 17 2 8 18
M  V30 18 1 18 19
M  V30 19 2 19 20
M  V30 20 1 1 21
M  V30 21 2 21 22
M  V30 22 1 22 23
M  V30 23 2 23 24
M  V30 24 1 24 25
M  V30 25 2 25 26
M  V30 26 1 20 3
M  V30 27 1 26 21
M  V30 28 1 20 6
M  V30 29 1 17 9
M  V30 30 2 17 13
M  V30 31 1 1 27
M  V30 32 1 2 28
M  V30 33 1 5 29
M  V30 34 1 7 30
M  V30 35 1 10 31
M  V30 36 1 11 32
M  V30 37 1 14 33
M  V30 38 1 15 34
M  V30 39 1 16 35
M  V30 40 1 18 36
M  V30 41 1 19 37
M  V30 42 1 22 38
M  V30 43 1 23 39
M  V30 44 1 24 40
M  V30 45 1 25 41
M  V30 46 1 26 42
M  V30 END BOND
M  V30 END CTAB
M  END
>  <Dataset>  (167) 
ChEMBL_Kinases

>  <Ligand_Instance>  (167) 
nan

>  <PDB_ID>  (167) 
nan

>  <Standardized_SMILES>  (167) 
C(=C/c1n[nH]c2cc(-c3ccnc4[nH]ccc34)ccc12)\c1ccccc1

>  <Name>  (167) 
nan

>  <Pocket>  (167) 
nan

>  <ATP_Site>  (167) 
nan

>  <Peripheral>  (167) 
nan

>  <Num_H_Atoms_ProtBoundConf>  (167) 
nan

>  <Num_Resolved_Atoms>  (167) 
nan

>  <Num_Not_Resolved_Atoms>  (167) 
nan

$$$$
CHEMBL3648118
     RDKit          3D

  0  0  0  0  0  0  0  0  0  0999 V3000
M  V30 BEGIN CTAB
M  V30 COUNTS 48 49 0 0 0
M  V30 BEGIN ATOM
M  V30 1 C -2.493100 -2.953425 3.721301 0
M  V30 2 O -2.470571 -2.850132 2.329812 0
M  V30 3 C -3.619587 -2.275134 1.829956 0
M  V30 4 C -3.633028 -2.144797 0.324913 0 CFG=1
M  V30 5 N -2.647610 -1.391297 -0.287919 0
M  V30 6 C -1.642329 -0.627708 -0.909410 0
M  V30 7 N -0.313016 -0.643903 -0.979342 0
M  V30 8 C 0.398257 0.254855 -1.673559 0
M  V30 9 N 1.799695 0.026971 -1.596935 0
M  V30 10 C 2.532792 0.603201 -0.516735 0
M  V30 11 C 1.827500 1.324706 0.423301 0
M  V30 12 C 2.523789 1.885988 1.471906 0
M  V30 13 C 3.911998 1.723549 1.573049 0
M  V30 14 S 4.850088 2.413939 2.897883 0
M  V30 15 C 5.072618 1.277758 4.230161 0
M  V30 16 N 6.202955 2.907453 2.331182 0
M  V30 17 O 4.142313 3.616444 3.468377 0
M  V30 18 C 4.629644 0.992194 0.619886 0
M  V30 19 C 3.911089 0.426304 -0.441143 0
M  V30 20 N -0.265598 1.212582 -2.326065 0
M  V30 21 C -1.590952 1.328394 -2.329048 0
M  V30 22 C -2.317491 0.384151 -1.601007 0
M  V30 23 Br -4.215806 0.712346 -1.724312 0
M  V30 24 C -3.752999 -3.540802 -0.304247 0 CFG=1
M  V30 25 C -3.949318 -3.286463 -1.788421 0
M  V30 26 O -2.525948 -4.156687 -0.144736 0
M  V30 27 H -1.516113 -3.433912 4.020370 0
M  V30 28 H -3.289978 -3.606676 4.106596 0
M  V30 29 H -2.527879 -1.909285 4.124459 0
M  V30 30 H -3.873821 -1.312912 2.320597 0
M  V30 31 H -4.456432 -2.963763 2.078391 0
M  V30 32 H -4.689729 -1.726926 0.123097 0
M  V30 33 H -1.952385 -2.070623 0.165017 0
M  V30 34 H 2.315493 -0.558244 -2.318673 0
M  V30 35 H 0.764375 1.492657 0.411213 0
M  V30 36 H 2.122533 2.475383 2.287318 0
M  V30 37 H 6.173899 1.147418 4.410832 0
M  V30 38 H 4.618340 1.618968 5.176382 0
M  V30 39 H 4.635795 0.280228 4.003494 0
M  V30 40 H 6.756804 3.526871 2.967352 0
M  V30 41 H 5.687327 0.843929 0.660825 0
M  V30 42 H 4.414459 -0.155857 -1.215099 0
M  V30 43 H -1.931599 2.161852 -2.911779 0
M  V30 44 H -4.596311 -4.101880 0.148604 0
M  V30 45 H -4.302626 -4.177551 -2.320834 0
M  V30 46 H -2.945968 -2.934883 -2.165648 0
M  V30 47 H -4.615139 -2.394000 -1.908715 0
M  V30 48 H -2.412407 -4.588492 0.732076 0
M  V30 END ATOM
M  V30 BEGIN BOND
M  V30 1 1 1 2
M  V30 2 1 2 3
M  V30 3 1 3 4
M  V30 4 1 4 5
M  V30 5 1 5 6
M  V30 6 2 6 7
M  V30 7 1 7 8
M  V30 8 1 8 9
M  V30 9 1 9 10
M  V30 10 2 10 11
M  V30 11 1 11 12
M  V30 12 2 12 13
M  V30 13 1 13 14
M  V30 14 1 14 15
M  V30 15 2 14 16
M  V30 16 2 14 17
M  V30 17 1 13 18
M  V30 18 2 18 19
M  V30 19 2 8 20
M  V30 20 1 20 21
M  V30 21 2 21 22
M  V30 22 1 22 23
M  V30 23 1 4 24
M  V30 24 1 24 25
M  V30 25 1 24 26
M  V30 26 1 22 6
M  V30 27 1 19 10
M  V30 28 1 1 27
M  V30 29 1 1 28
M  V30 30 1 1 29
M  V30 31 1 3 30
M  V30 32 1 3 31
M  V30 33 1 4 32 CFG=1
M  V30 34 1 5 33
M  V30 35 1 9 34
M  V30 36 1 11 35
M  V30 37 1 12 36
M  V30 38 1 15 37
M  V30 39 1 15 38
M  V30 40 1 15 39
M  V30 41 1 16 40
M  V30 42 1 18 41
M  V30 43 1 19 42
M  V30 44 1 21 43
M  V30 45 1 24 44 CFG=1
M  V30 46 1 25 45
M  V30 47 1 25 46
M  V30 48 1 25 47
M  V30 49 1 26 48
M  V30 END BOND
M  V30 END CTAB
M  END
>  <Dataset>  (168) 
ChEMBL_Kinases

>  <Ligand_Instance>  (168) 
nan

>  <PDB_ID>  (168) 
nan

>  <Standardized_SMILES>  (168) 
COC[C@@H](Nc1nc(Nc2ccc(S(C)(=N)=O)cc2)ncc1Br)[C@@H](C)O

>  <Name>  (168) 
nan

>  <Pocket>  (168) 
nan

>  <ATP_Site>  (168) 
nan

>  <Peripheral>  (168) 
nan

>  <Num_H_Atoms_ProtBoundConf>  (168) 
nan

>  <Num_Resolved_Atoms>  (168) 
nan

>  <Num_Not_Resolved_Atoms>  (168) 
nan

$$$$
CHEMBL3648110
     RDKit          3D

  0  0  0  0  0  0  0  0  0  0999 V3000
M  V30 BEGIN CTAB
M  V30 COUNTS 48 49 0 0 0
M  V30 BEGIN ATOM
M  V30 1 C 2.681731 -4.288807 1.306742 0
M  V30 2 C 2.392677 -4.334422 -0.159106 0 CFG=2
M  V30 3 O 3.589434 -4.274186 -0.854358 0
M  V30 4 C 1.586028 -3.100883 -0.557274 0 CFG=1
M  V30 5 C 2.486530 -1.906582 -0.229476 0
M  V30 6 N 1.325676 -3.072961 -1.973413 0
M  V30 7 C 0.592105 -2.038398 -2.639297 0
M  V30 8 N 0.093293 -1.006208 -1.949061 0
M  V30 9 C -0.606044 0.017218 -2.454939 0
M  V30 10 N -1.123010 1.094031 -1.714921 0
M  V30 11 C -1.032603 1.342020 -0.324548 0
M  V30 12 C -0.398245 0.545207 0.601000 0
M  V30 13 C -0.303418 0.776007 1.956629 0
M  V30 14 C -0.901519 1.919207 2.447410 0
M  V30 15 S -0.811335 2.260703 4.160842 0
M  V30 16 N 0.489344 1.615965 4.728301 0
M  V30 17 O -0.671329 3.739876 4.425620 0
M  V30 18 C -2.165125 1.561469 5.049292 0
M  V30 19 C -3.508254 2.053983 4.614587 0
M  V30 20 O -4.454291 1.390959 5.428916 0
M  V30 21 C -1.555368 2.763699 1.574115 0
M  V30 22 C -1.607332 2.464616 0.230791 0
M  V30 23 N -0.809130 -0.024437 -3.780334 0
M  V30 24 C -0.333877 -1.032473 -4.523492 0
M  V30 25 C 0.384435 -2.082339 -3.999246 0
M  V30 26 Br 1.049808 -3.498749 -5.057329 0
M  V30 27 H 3.748821 -4.213366 1.572685 0
M  V30 28 H 2.320240 -5.244121 1.784869 0
M  V30 29 H 2.087705 -3.497809 1.850761 0
M  V30 30 H 1.876054 -5.264884 -0.461002 0
M  V30 31 H 4.174532 -5.009579 -0.549482 0
M  V30 32 H 0.688925 -2.958392 0.066234 0
M  V30 33 H 2.172028 -1.001144 -0.786237 0
M  V30 34 H 3.517025 -2.218457 -0.497622 0
M  V30 35 H 2.414398 -1.734180 0.845794 0
M  V30 36 H 1.701180 -3.866056 -2.549044 0
M  V30 37 H -1.659573 1.835462 -2.257319 0
M  V30 38 H 0.086206 -0.360058 0.275840 0
M  V30 39 H 0.211717 0.104583 2.623570 0
M  V30 40 H 1.375614 2.093014 4.443397 0
M  V30 41 H -1.988240 1.741558 6.118965 0
M  V30 42 H -2.148679 0.467745 4.841577 0
M  V30 43 H -3.656795 3.143899 4.764030 0
M  V30 44 H -3.697445 1.714598 3.592401 0
M  V30 45 H -4.198980 0.434395 5.553951 0
M  V30 46 H -2.025107 3.660510 1.955881 0
M  V30 47 H -2.139872 3.177516 -0.393354 0
M  V30 48 H -0.505910 -1.056961 -5.608622 0
M  V30 END ATOM
M  V30 BEGIN BOND
M  V30 1 1 1 2
M  V30 2 1 2 3
M  V30 3 1 2 4
M  V30 4 1 4 5
M  V30 5 1 4 6
M  V30 6 1 6 7
M  V30 7 2 7 8
M  V30 8 1 8 9
M  V30 9 1 9 10
M  V30 10 1 10 11
M  V30 11 2 11 12
M  V30 12 1 12 13
M  V30 13 2 13 14
M  V30 14 1 14 15
M  V30 15 2 15 16
M  V30 16 2 15 17
M  V30 17 1 15 18
M  V30 18 1 18 19
M  V30 19 1 19 20
M  V30 20 1 14 21
M  V30 21 2 21 22
M  V30 22 2 9 23
M  V30 23 1 23 24
M  V30 24 2 24 25
M  V30 25 1 25 26
M  V30 26 1 25 7
M  V30 27 1 22 11
M  V30 28 1 1 27
M  V30 29 1 1 28
M  V30 30 1 1 29
M  V30 31 1 2 30 CFG=1
M  V30 32 1 3 31
M  V30 33 1 4 32 CFG=1
M  V30 34 1 5 33
M  V30 35 1 5 34
M  V30 36 1 5 35
M  V30 37 1 6 36
M  V30 38 1 10 37
M  V30 39 1 12 38
M  V30 40 1 13 39
M  V30 41 1 16 40
M  V30 42 1 18 41
M  V30 43 1 18 42
M  V30 44 1 19 43
M  V30 45 1 19 44
M  V30 46 1 20 45
M  V30 47 1 21 46
M  V30 48 1 22 47
M  V30 49 1 24 48
M  V30 END BOND
M  V30 END CTAB
M  END
>  <Dataset>  (169) 
ChEMBL_Kinases

>  <Ligand_Instance>  (169) 
nan

>  <PDB_ID>  (169) 
nan

>  <Standardized_SMILES>  (169) 
C[C@H](O)[C@@H](C)Nc1nc(Nc2ccc(S(=N)(=O)CCO)cc2)ncc1Br

>  <Name>  (169) 
nan

>  <Pocket>  (169) 
nan

>  <ATP_Site>  (169) 
nan

>  <Peripheral>  (169) 
nan

>  <Num_H_Atoms_ProtBoundConf>  (169) 
nan

>  <Num_Resolved_Atoms>  (169) 
nan

>  <Num_Not_Resolved_Atoms>  (169) 
nan

$$$$
CHEMBL3963283
     RDKit          3D

  0  0  0  0  0  0  0  0  0  0999 V3000
M  V30 BEGIN CTAB
M  V30 COUNTS 54 58 0 0 0
M  V30 BEGIN ATOM
M  V30 1 C 1.364848 2.267172 3.666392 0
M  V30 2 C 1.613744 1.081163 2.764627 0 CFG=2
M  V30 3 C 2.912223 0.447464 3.163873 0
M  V30 4 C 3.298575 -0.725244 2.322267 0
M  V30 5 C 2.288482 -0.882265 1.174928 0 CFG=2
M  V30 6 N 2.749527 -1.901794 0.254448 0
M  V30 7 C 2.237733 0.465124 0.502414 0
M  V30 8 N 1.480646 1.353831 1.380385 0
M  V30 9 C 0.688890 2.387533 0.807471 0
M  V30 10 C 1.092270 3.683025 1.025870 0
M  V30 11 C 0.425556 4.775189 0.512487 0
M  V30 12 N -0.670595 4.507908 -0.234426 0
M  V30 13 C -1.046955 3.233549 -0.434849 0
M  V30 14 C -0.427016 2.103068 0.048301 0
M  V30 15 N -0.875162 0.779167 -0.182589 0
M  V30 16 C -1.991202 0.366643 -0.960910 0
M  V30 17 N -2.872259 1.108417 -1.651152 0
M  V30 18 C -3.789542 0.346316 -2.261212 0
M  V30 19 C -3.443818 -0.933347 -1.920367 0
M  V30 20 C -4.057828 -2.128529 -2.280228 0
M  V30 21 C -3.539313 -3.321085 -1.820480 0
M  V30 22 C -2.415509 -3.246772 -1.012259 0
M  V30 23 C -1.879229 -4.535484 -0.533010 0
M  V30 24 N -2.804214 -5.403926 -0.072509 0
M  V30 25 C -2.504564 -6.628264 0.405185 0
M  V30 26 C -1.170245 -7.000191 0.417304 0
M  V30 27 C -0.192106 -6.143518 -0.043999 0
M  V30 28 C -0.542480 -4.899537 -0.524421 0
M  V30 29 F 0.311934 -3.976439 -1.000133 0
M  V30 30 N -1.861398 -2.062839 -0.694965 0
M  V30 31 N -2.356538 -0.916060 -1.134574 0
M  V30 32 H 1.160341 1.891838 4.706141 0
M  V30 33 H 0.583495 2.951139 3.318441 0
M  V30 34 H 2.322589 2.851922 3.724996 0
M  V30 35 H 0.811628 0.337611 3.027055 0
M  V30 36 H 2.844974 0.077161 4.210667 0
M  V30 37 H 3.747153 1.174610 3.169189 0
M  V30 38 H 4.257872 -0.513082 1.810221 0
M  V30 39 H 3.388081 -1.661320 2.883460 0
M  V30 40 H 1.325105 -1.129653 1.640806 0
M  V30 41 H 2.422972 -2.815847 0.681055 0
M  V30 42 H 2.151668 -1.796233 -0.616560 0
M  V30 43 H 3.287399 0.890731 0.542324 0
M  V30 44 H 1.880227 0.454184 -0.533319 0
M  V30 45 H 1.961592 3.920199 1.614805 0
M  V30 46 H 0.742650 5.779148 0.684886 0
M  V30 47 H -1.932825 3.157690 -1.044896 0
M  V30 48 H -0.303277 0.029913 0.291252 0
M  V30 49 H -4.595699 0.721515 -2.871307 0
M  V30 50 H -4.917205 -2.136688 -2.901715 0
M  V30 51 H -4.035821 -4.236209 -2.115087 0
M  V30 52 H -3.267959 -7.304967 0.768620 0
M  V30 53 H -0.839531 -7.974976 0.787815 0
M  V30 54 H 0.871075 -6.392413 -0.054017 0
M  V30 END ATOM
M  V30 BEGIN BOND
M  V30 1 1 1 2
M  V30 2 1 2 3
M  V30 3 1 3 4
M  V30 4 1 4 5
M  V30 5 1 5 6
M  V30 6 1 5 7
M  V30 7 1 7 8
M  V30 8 1 8 9
M  V30 9 2 9 10
M  V30 10 1 10 11
M  V30 11 2 11 12
M  V30 12 1 12 13
M  V30 13 2 13 14
M  V30 14 1 14 15
M  V30 15 1 15 16
M  V30 16 2 16 17
M  V30 17 1 17 18
M  V30 18 2 18 19
M  V30 19 1 19 20
M  V30 20 2 20 21
M  V30 21 1 21 22
M  V30 22 1 22 23
M  V30 23 2 23 24
M  V30 24 1 24 25
M  V30 25 2 25 26
M  V30 26 1 26 27
M  V30 27 2 27 28
M  V30 28 1 28 29
M  V30 29 2 22 30
M  V30 30 1 30 31
M  V30 31 1 8 2
M  V30 32 1 14 9
M  V30 33 1 31 16
M  V30 34 1 31 19
M  V30 35 1 28 23
M  V30 36 1 1 32
M  V30 37 1 1 33
M  V30 38 1 1 34
M  V30 39 1 2 35 CFG=1
M  V30 40 1 3 36
M  V30 41 1 3 37
M  V30 42 1 4 38
M  V30 43 1 4 39
M  V30 44 1 5 40 CFG=1
M  V30 45 1 6 41
M  V30 46 1 6 42
M  V30 47 1 7 43
M  V30 48 1 7 44
M  V30 49 1 10 45
M  V30 50 1 11 46
M  V30 51 1 13 47
M  V30 52 1 15 48
M  V30 53 1 18 49
M  V30 54 1 20 50
M  V30 55 1 21 51
M  V30 56 1 25 52
M  V30 57 1 26 53
M  V30 58 1 27 54
M  V30 END BOND
M  V30 END CTAB
M  END
>  <Dataset>  (170) 
ChEMBL_Kinases

>  <Ligand_Instance>  (170) 
nan

>  <PDB_ID>  (170) 
nan

>  <Standardized_SMILES>  (170) 
C[C@@H]1CC[C@H](N)CN1c1ccncc1Nc1ncc2ccc(-c3ncccc3F)nn12

>  <Name>  (170) 
nan

>  <Pocket>  (170) 
nan

>  <ATP_Site>  (170) 
nan

>  <Peripheral>  (170) 
nan

>  <Num_H_Atoms_ProtBoundConf>  (170) 
nan

>  <Num_Resolved_Atoms>  (170) 
nan

>  <Num_Not_Resolved_Atoms>  (170) 
nan

$$$$
CHEMBL396327
     RDKit          3D

  0  0  0  0  0  0  0  0  0  0999 V3000
M  V30 BEGIN CTAB
M  V30 COUNTS 75 82 0 0 0
M  V30 BEGIN ATOM
M  V30 1 O 0.996400 4.213784 3.678395 0
M  V30 2 C 1.494203 3.151732 3.174880 0
M  V30 3 N 2.461859 2.543553 3.975438 0
M  V30 4 C 2.870132 1.394710 3.227307 0
M  V30 5 O 3.756976 0.558742 3.618563 0
M  V30 6 C 2.122542 1.339208 1.973122 0
M  V30 7 C 1.292800 2.389412 1.926067 0
M  V30 8 C 0.352991 2.777626 0.886516 0
M  V30 9 C -0.437561 1.896206 0.187466 0
M  V30 10 N -1.226042 2.498631 -0.709226 0
M  V30 11 C -0.963537 3.819446 -0.616960 0
M  V30 12 C -1.404092 4.991151 -1.240929 0
M  V30 13 C -0.974327 6.269331 -0.980492 0
M  V30 14 C -0.010367 6.422344 -0.006672 0
M  V30 15 C 0.453271 5.292323 0.635193 0
M  V30 16 C -0.001122 4.001459 0.352826 0
M  V30 17 C -2.174286 1.986074 -1.671561 0
M  V30 18 C -2.369893 0.538644 -1.546554 0
M  V30 19 C -3.132226 0.018730 -0.344064 0
M  V30 20 C -2.942343 -1.508843 -0.322195 0
M  V30 21 C -1.913673 -1.840822 0.527547 0
M  V30 22 C -0.903053 -2.367704 1.341626 0
M  V30 23 C -0.665787 -3.769583 1.398201 0
M  V30 24 C -1.674647 -3.312931 0.584598 0
M  V30 25 N -1.894195 -4.720835 0.306089 0
M  V30 26 C -0.969575 -5.586653 -0.442700 0
M  V30 27 C -1.642499 -6.941021 -0.430365 0
M  V30 28 C -3.120098 -6.564833 -0.333598 0
M  V30 29 C -3.062331 -5.506561 0.743220 0
M  V30 30 N -2.611356 -2.806481 -0.162755 0
M  V30 31 C 0.456483 -3.855122 2.295480 0
M  V30 32 C 1.778968 -4.114809 1.658399 0
M  V30 33 C 2.209955 -3.370491 0.484618 0
M  V30 34 N 2.261078 -1.969241 0.512830 0
M  V30 35 C 2.184940 -1.005410 1.435166 0
M  V30 36 C 2.242253 0.299863 0.978797 0
M  V30 37 C 2.371443 0.074839 -0.370590 0
M  V30 38 C 2.477602 1.070758 -1.336045 0
M  V30 39 C 2.604408 0.748808 -2.665341 0
M  V30 40 C 2.623758 -0.581848 -3.016128 0
M  V30 41 C 2.513629 -1.514318 -2.012402 0
M  V30 42 C 2.383615 -1.269801 -0.660002 0
M  V30 43 H 2.891408 2.756817 4.920280 0
M  V30 44 H -0.336347 0.853214 0.412959 0
M  V30 45 H -2.167668 4.913010 -2.017966 0
M  V30 46 H -1.377103 7.114744 -1.516682 0
M  V30 47 H 0.325300 7.418138 0.196836 0
M  V30 48 H 1.210555 5.527765 1.367717 0
M  V30 49 H -1.835357 2.216004 -2.717136 0
M  V30 50 H -3.162959 2.502762 -1.590874 0
M  V30 51 H -1.338935 0.076740 -1.431949 0
M  V30 52 H -2.784733 0.125588 -2.494378 0
M  V30 53 H -4.208323 0.165994 -0.548608 0
M  V30 54 H -2.874294 0.466224 0.602697 0
M  V30 55 H -1.651485 -0.874420 0.952646 0
M  V30 56 H -0.296733 -1.687479 1.992060 0
M  V30 57 H -0.882594 -5.253898 -1.497135 0
M  V30 58 H -0.003149 -5.722783 0.074839 0
M  V30 59 H -1.410256 -7.458082 0.547471 0
M  V30 60 H -1.413077 -7.581250 -1.278043 0
M  V30 61 H -3.498432 -6.166358 -1.299299 0
M  V30 62 H -3.690162 -7.469629 -0.008038 0
M  V30 63 H -3.975525 -4.894502 0.790418 0
M  V30 64 H -2.834005 -6.042751 1.703657 0
M  V30 65 H 0.507282 -3.063095 3.042683 0
M  V30 66 H 0.259295 -4.822748 2.901841 0
M  V30 67 H 2.542709 -3.937919 2.477044 0
M  V30 68 H 1.914510 -5.220133 1.446022 0
M  V30 69 H 1.656501 -3.793965 -0.397721 0
M  V30 70 H 3.279272 -3.715676 0.256374 0
M  V30 71 H 2.088845 -1.384387 2.436651 0
M  V30 72 H 2.463471 2.112641 -1.085218 0
M  V30 73 H 2.687087 1.527493 -3.397490 0
M  V30 74 H 2.721514 -0.896772 -4.041358 0
M  V30 75 H 2.533210 -2.562472 -2.333218 0
M  V30 END ATOM
M  V30 BEGIN BOND
M  V30 1 2 1 2
M  V30 2 1 2 3
M  V30 3 1 3 4
M  V30 4 2 4 5
M  V30 5 1 4 6
M  V30 6 2 6 7
M  V30 7 1 7 8
M  V30 8 2 8 9
M  V30 9 1 9 10
M  V30 10 1 10 11
M  V30 11 2 11 12
M  V30 12 1 12 13
M  V30 13 2 13 14
M  V30 14 1 14 15
M  V30 15 2 15 16
M  V30 16 1 10 17
M  V30 17 1 17 18
M  V30 18 1 18 19
M  V30 19 1 19 20
M  V30 20 2 20 21
M  V30 21 1 21 22
M  V30 22 2 22 23
M  V30 23 1 23 24
M  V30 24 1 24 25
M  V30 25 1 25 26
M  V30 26 1 26 27
M  V30 27 1 27 28
M  V30 28 1 28 29
M  V30 29 2 24 30
M  V30 30 1 23 31
M  V30 31 1 31 32
M  V30 32 1 32 33
M  V30 33 1 33 34
M  V30 34 1 34 35
M  V30 35 2 35 36
M  V30 36 1 36 37
M  V30 37 2 37 38
M  V30 38 1 38 39
M  V30 39 2 39 40
M  V30 40 1 40 41
M  V30 41 2 41 42
M  V30 42 1 7 2
M  V30 43 1 16 8
M  V30 44 1 30 20
M  V30 45 1 42 34
M  V30 46 1 36 6
M  V30 47 1 42 37
M  V30 48 1 16 11
M  V30 49 1 29 25
M  V30 50 1 3 43
M  V30 51 1 9 44
M  V30 52 1 12 45
M  V30 53 1 13 46
M  V30 54 1 14 47
M  V30 55 1 15 48
M  V30 56 1 17 49
M  V30 57 1 17 50
M  V30 58 1 18 51
M  V30 59 1 18 52
M  V30 60 1 19 53
M  V30 61 1 19 54
M  V30 62 1 21 55
M  V30 63 1 22 56
M  V30 64 1 26 57
M  V30 65 1 26 58
M  V30 66 1 27 59
M  V30 67 1 27 60
M  V30 68 1 28 61
M  V30 69 1 28 62
M  V30 70 1 29 63
M  V30 71 1 29 64
M  V30 72 1 31 65
M  V30 73 1 31 66
M  V30 74 1 32 67
M  V30 75 1 32 68
M  V30 76 1 33 69
M  V30 77 1 33 70
M  V30 78 1 35 71
M  V30 79 1 38 72
M  V30 80 1 39 73
M  V30 81 1 40 74
M  V30 82 1 41 75
M  V30 END BOND
M  V30 END CTAB
M  END
>  <Dataset>  (171) 
ChEMBL_Kinases

>  <Ligand_Instance>  (171) 
nan

>  <PDB_ID>  (171) 
nan

>  <Standardized_SMILES>  (171) 
O=C1NC(=O)C2=C1c1cn(c3ccccc13)CCCc1ccc(c(N3CCCC3)n1)CCCn1cc2c2ccccc21

>  <Name>  (171) 
nan

>  <Pocket>  (171) 
nan

>  <ATP_Site>  (171) 
nan

>  <Peripheral>  (171) 
nan

>  <Num_H_Atoms_ProtBoundConf>  (171) 
nan

>  <Num_Resolved_Atoms>  (171) 
nan

>  <Num_Not_Resolved_Atoms>  (171) 
nan

$$$$
CHEMBL3962894
     RDKit          3D

  0  0  0  0  0  0  0  0  0  0999 V3000
M  V30 BEGIN CTAB
M  V30 COUNTS 31 33 0 0 0
M  V30 BEGIN ATOM
M  V30 1 N -2.359697 -1.709955 4.128450 0
M  V30 2 C -1.789359 -2.972260 3.799024 0
M  V30 3 O -2.056764 -4.020349 4.430318 0
M  V30 4 C -0.858556 -3.021131 2.676580 0
M  V30 5 C -0.525613 -1.896453 1.943053 0
M  V30 6 C 0.351338 -1.910801 0.876325 0
M  V30 7 C 0.676378 -0.700714 0.127617 0
M  V30 8 C 0.149512 0.543469 0.409363 0
M  V30 9 N 0.689595 1.391073 -0.496561 0
M  V30 10 C 0.513550 2.714493 -0.666275 0
M  V30 11 C 1.189844 3.386568 -1.687526 0
M  V30 12 O 0.957333 4.752602 -1.800675 0
M  V30 13 C 2.047013 2.725934 -2.542257 0
M  V30 14 C 2.193972 1.363280 -2.325620 0
M  V30 15 C 1.526686 0.698939 -1.317617 0
M  V30 16 N 1.505840 -0.604948 -0.913146 0
M  V30 17 C 0.919679 -3.128073 0.536158 0
M  V30 18 C 0.638148 -4.311764 1.224059 0
M  V30 19 C -0.249741 -4.192164 2.273544 0
M  V30 20 O -0.602759 -5.324068 3.033686 0
M  V30 21 H -1.656583 -1.394133 4.861775 0
M  V30 22 H -3.146999 -1.056960 3.920030 0
M  V30 23 H -0.956379 -0.934859 2.189568 0
M  V30 24 H -0.562408 0.831910 1.194935 0
M  V30 25 H -0.150803 3.260650 -0.013742 0
M  V30 26 H 0.087611 5.130481 -2.128833 0
M  V30 27 H 2.563268 3.256669 -3.326976 0
M  V30 28 H 2.862123 0.840058 -2.989470 0
M  V30 29 H 1.610087 -3.190413 -0.288817 0
M  V30 30 H 1.077869 -5.258350 0.962255 0
M  V30 31 H -1.489548 -5.793045 2.826238 0
M  V30 END ATOM
M  V30 BEGIN BOND
M  V30 1 1 1 2
M  V30 2 2 2 3
M  V30 3 1 2 4
M  V30 4 2 4 5
M  V30 5 1 5 6
M  V30 6 1 6 7
M  V30 7 2 7 8
M  V30 8 1 8 9
M  V30 9 1 9 10
M  V30 10 2 10 11
M  V30 11 1 11 12
M  V30 12 1 11 13
M  V30 13 2 13 14
M  V30 14 1 14 15
M  V30 15 2 15 16
M  V30 16 2 6 17
M  V30 17 1 17 18
M  V30 18 2 18 19
M  V30 19 1 19 20
M  V30 20 1 19 4
M  V30 21 1 16 7
M  V30 22 1 15 9
M  V30 23 1 1 21
M  V30 24 1 1 22
M  V30 25 1 5 23
M  V30 26 1 8 24
M  V30 27 1 10 25
M  V30 28 1 12 26
M  V30 29 1 13 27
M  V30 30 1 14 28
M  V30 31 1 17 29
M  V30 32 1 18 30
M  V30 33 1 20 31
M  V30 END BOND
M  V30 END CTAB
M  END
>  <Dataset>  (172) 
ChEMBL_Kinases

>  <Ligand_Instance>  (172) 
nan

>  <PDB_ID>  (172) 
nan

>  <Standardized_SMILES>  (172) 
NC(=O)c1cc(-c2cn3cc(O)ccc3n2)ccc1O

>  <Name>  (172) 
nan

>  <Pocket>  (172) 
nan

>  <ATP_Site>  (172) 
nan

>  <Peripheral>  (172) 
nan

>  <Num_H_Atoms_ProtBoundConf>  (172) 
nan

>  <Num_Resolved_Atoms>  (172) 
nan

>  <Num_Not_Resolved_Atoms>  (172) 
nan

$$$$
CHEMBL396230
     RDKit          3D

  0  0  0  0  0  0  0  0  0  0999 V3000
M  V30 BEGIN CTAB
M  V30 COUNTS 38 41 0 0 0
M  V30 BEGIN ATOM
M  V30 1 N -0.214268 -6.439319 3.156771 0
M  V30 2 C 0.418428 -5.702516 2.497531 0
M  V30 3 C 1.198994 -4.783439 1.709232 0
M  V30 4 C 2.461400 -4.893170 1.210926 0
M  V30 5 N 2.687218 -3.731799 0.551123 0
M  V30 6 N 1.635084 -2.958728 0.637546 0
M  V30 7 C 1.336199 -1.724387 0.176675 0
M  V30 8 N 2.284360 -0.945670 -0.535054 0
M  V30 9 C 2.241476 0.261637 -1.305505 0
M  V30 10 C 1.361114 0.320811 -2.391057 0
M  V30 11 C 1.307309 1.493013 -3.095898 0
M  V30 12 C 2.088219 2.591781 -2.758304 0
M  V30 13 C 2.952043 2.530987 -1.690983 0
M  V30 14 C 3.032992 1.359583 -0.957068 0
M  V30 15 N 0.144889 -1.094442 0.399051 0
M  V30 16 C -0.824386 -1.693517 1.112657 0
M  V30 17 N -2.118040 -1.321805 1.559851 0
M  V30 18 C -2.327082 -0.045283 2.172799 0
M  V30 19 C -1.337305 0.897385 2.312452 0
M  V30 20 C -1.532136 2.126324 2.932203 0
M  V30 21 C -2.811940 2.416502 3.442490 0
M  V30 22 C -3.834691 1.467217 3.310062 0
M  V30 23 C -3.599576 0.243789 2.679738 0
M  V30 24 N -0.523654 -2.941685 1.578231 0
M  V30 25 C 0.652314 -3.539341 1.348152 0
M  V30 26 H 3.077155 -5.761313 1.364667 0
M  V30 27 H 3.280734 -1.250406 -0.550327 0
M  V30 28 H 0.769979 -0.578216 -2.616749 0
M  V30 29 H 0.599968 1.471986 -3.939144 0
M  V30 30 H 1.981682 3.490764 -3.374927 0
M  V30 31 H 3.562453 3.412035 -1.428411 0
M  V30 32 H 3.712998 1.281253 -0.095598 0
M  V30 33 H -2.924487 -1.956368 1.451007 0
M  V30 34 H -0.330742 0.681065 1.920319 0
M  V30 35 H -0.685667 2.824518 3.006653 0
M  V30 36 H -2.980262 3.356353 3.927108 0
M  V30 37 H -4.820863 1.740933 3.738759 0
M  V30 38 H -4.447190 -0.427665 2.625202 0
M  V30 END ATOM
M  V30 BEGIN BOND
M  V30 1 3 1 2
M  V30 2 1 2 3
M  V30 3 1 3 4
M  V30 4 2 4 5
M  V30 5 1 5 6
M  V30 6 1 6 7
M  V30 7 1 7 8
M  V30 8 1 8 9
M  V30 9 2 9 10
M  V30 10 1 10 11
M  V30 11 2 11 12
M  V30 12 1 12 13
M  V30 13 2 13 14
M  V30 14 2 7 15
M  V30 15 1 15 16
M  V30 16 1 16 17
M  V30 17 1 17 18
M  V30 18 2 18 19
M  V30 19 1 19 20
M  V30 20 2 20 21
M  V30 21 1 21 22
M  V30 22 2 22 23
M  V30 23 2 16 24
M  V30 24 1 24 25
M  V30 25 2 25 3
M  V30 26 1 25 6
M  V30 27 1 14 9
M  V30 28 1 23 18
M  V30 29 1 4 26
M  V30 30 1 8 27
M  V30 31 1 10 28
M  V30 32 1 11 29
M  V30 33 1 12 30
M  V30 34 1 13 31
M  V30 35 1 14 32
M  V30 36 1 17 33
M  V30 37 1 19 34
M  V30 38 1 20 35
M  V30 39 1 21 36
M  V30 40 1 22 37
M  V30 41 1 23 38
M  V30 END BOND
M  V30 END CTAB
M  END
>  <Dataset>  (173) 
ChEMBL_Kinases

>  <Ligand_Instance>  (173) 
nan

>  <PDB_ID>  (173) 
nan

>  <Standardized_SMILES>  (173) 
N#Cc1cnn2c(Nc3ccccc3)nc(Nc3ccccc3)nc12

>  <Name>  (173) 
nan

>  <Pocket>  (173) 
nan

>  <ATP_Site>  (173) 
nan

>  <Peripheral>  (173) 
nan

>  <Num_H_Atoms_ProtBoundConf>  (173) 
nan

>  <Num_Resolved_Atoms>  (173) 
nan

>  <Num_Not_Resolved_Atoms>  (173) 
nan

$$$$
CHEMBL3652641
     RDKit          3D

  0  0  0  0  0  0  0  0  0  0999 V3000
M  V30 BEGIN CTAB
M  V30 COUNTS 54 57 0 0 0
M  V30 BEGIN ATOM
M  V30 1 C -0.647978 -5.256132 3.152578 0
M  V30 2 N -0.081364 -3.932813 3.001807 0
M  V30 3 N 0.595498 -3.344156 4.004666 0
M  V30 4 C 0.985342 -2.121281 3.570973 0
M  V30 5 C 0.520305 -1.988946 2.268482 0
M  V30 6 N 0.917701 -0.720258 1.772411 0
M  V30 7 C 2.173469 -0.574070 1.078159 0
M  V30 8 O 2.844436 -1.633792 0.961942 0
M  V30 9 C 2.622241 0.711901 0.553878 0
M  V30 10 C 3.839558 0.731396 -0.092755 0
M  V30 11 N 4.244495 1.919737 -0.568624 0
M  V30 12 C 3.513772 3.040163 -0.429935 0
M  V30 13 C 2.297772 3.027012 0.214823 0
M  V30 14 C 1.471302 4.215374 0.390927 0
M  V30 15 C 1.840324 5.461742 -0.069559 0
M  V30 16 C 0.993628 6.534403 0.143156 0
M  V30 17 C -0.206156 6.391455 0.801518 0
M  V30 18 C -0.585345 5.159046 1.264356 0
M  V30 19 C 0.267060 4.094449 1.046816 0
M  V30 20 F -0.120358 2.860273 1.512536 0
M  V30 21 N 1.901681 1.827836 0.688083 0
M  V30 22 C -0.150249 -3.140096 1.924397 0
M  V30 23 N -0.684818 -3.273611 0.644482 0
M  V30 24 C -1.122178 -4.544040 0.091393 0
M  V30 25 C -2.621322 -4.621477 0.111006 0
M  V30 26 C -3.223579 -4.287899 -1.239584 0
M  V30 27 C -2.656019 -2.986349 -1.780729 0 CFG=2
M  V30 28 N -1.549655 -3.207089 -2.665445 0
M  V30 29 C -2.365655 -2.064977 -0.636686 0
M  V30 30 C -0.880676 -2.142973 -0.236455 0
M  V30 31 H -0.810578 -5.438174 4.266302 0
M  V30 32 H -1.682259 -5.222820 2.755220 0
M  V30 33 H -0.015173 -6.068282 2.766148 0
M  V30 34 H 1.546265 -1.577138 4.337030 0
M  V30 35 H 0.386495 0.199818 1.849100 0
M  V30 36 H 4.487999 -0.120877 -0.245297 0
M  V30 37 H 3.911437 3.957186 -0.841848 0
M  V30 38 H 2.775008 5.608837 -0.590420 0
M  V30 39 H 1.255739 7.542297 -0.210911 0
M  V30 40 H -0.891298 7.228924 0.982155 0
M  V30 41 H -1.520606 4.983507 1.794491 0
M  V30 42 H -0.685164 -5.390291 0.652667 0
M  V30 43 H -0.770459 -4.672258 -0.987026 0
M  V30 44 H -3.032673 -4.065464 0.948047 0
M  V30 45 H -2.887318 -5.697383 0.300350 0
M  V30 46 H -2.982956 -5.117178 -1.928980 0
M  V30 47 H -4.301700 -4.167321 -1.097559 0
M  V30 48 H -3.480392 -2.549705 -2.414880 0
M  V30 49 H -1.792587 -3.966948 -3.320613 0
M  V30 50 H -1.341143 -2.375422 -3.252387 0
M  V30 51 H -3.024237 -2.170493 0.220491 0
M  V30 52 H -2.487097 -1.001699 -0.990024 0
M  V30 53 H -0.545583 -1.180531 0.143827 0
M  V30 54 H -0.353992 -2.396865 -1.205802 0
M  V30 END ATOM
M  V30 BEGIN BOND
M  V30 1 1 1 2
M  V30 2 1 2 3
M  V30 3 2 3 4
M  V30 4 1 4 5
M  V30 5 1 5 6
M  V30 6 1 6 7
M  V30 7 2 7 8
M  V30 8 1 7 9
M  V30 9 2 9 10
M  V30 10 1 10 11
M  V30 11 2 11 12
M  V30 12 1 12 13
M  V30 13 1 13 14
M  V30 14 2 14 15
M  V30 15 1 15 16
M  V30 16 2 16 17
M  V30 17 1 17 18
M  V30 18 2 18 19
M  V30 19 1 19 20
M  V30 20 2 13 21
M  V30 21 2 5 22
M  V30 22 1 22 23
M  V30 23 1 23 24
M  V30 24 1 24 25
M  V30 25 1 25 26
M  V30 26 1 26 27
M  V30 27 1 27 28
M  V30 28 1 27 29
M  V30 29 1 29 30
M  V30 30 1 22 2
M  V30 31 1 30 23
M  V30 32 1 21 9
M  V30 33 1 19 14
M  V30 34 1 1 31
M  V30 35 1 1 32
M  V30 36 1 1 33
M  V30 37 1 4 34
M  V30 38 1 6 35
M  V30 39 1 10 36
M  V30 40 1 12 37
M  V30 41 1 15 38
M  V30 42 1 16 39
M  V30 43 1 17 40
M  V30 44 1 18 41
M  V30 45 1 24 42
M  V30 46 1 24 43
M  V30 47 1 25 44
M  V30 48 1 25 45
M  V30 49 1 26 46
M  V30 50 1 26 47
M  V30 51 1 27 48 CFG=3
M  V30 52 1 28 49
M  V30 53 1 28 50
M  V30 54 1 29 51
M  V30 55 1 29 52
M  V30 56 1 30 53
M  V30 57 1 30 54
M  V30 END BOND
M  V30 END CTAB
M  END
>  <Dataset>  (174) 
ChEMBL_Kinases

>  <Ligand_Instance>  (174) 
nan

>  <PDB_ID>  (174) 
nan

>  <Standardized_SMILES>  (174) 
Cn1ncc(NC(=O)c2cncc(-c3ccccc3F)n2)c1N1CCC[C@H](N)CC1

>  <Name>  (174) 
nan

>  <Pocket>  (174) 
nan

>  <ATP_Site>  (174) 
nan

>  <Peripheral>  (174) 
nan

>  <Num_H_Atoms_ProtBoundConf>  (174) 
nan

>  <Num_Resolved_Atoms>  (174) 
nan

>  <Num_Not_Resolved_Atoms>  (174) 
nan

$$$$
CHEMBL3960736
     RDKit          3D

  0  0  0  0  0  0  0  0  0  0999 V3000
M  V30 BEGIN CTAB
M  V30 COUNTS 40 42 0 0 0
M  V30 BEGIN ATOM
M  V30 1 C -2.330940 -3.679612 0.027903 0
M  V30 2 O -2.059246 -3.163814 1.300135 0
M  V30 3 C -1.044904 -2.267168 1.603954 0
M  V30 4 C -0.140964 -1.746567 0.674135 0
M  V30 5 C 0.839532 -0.858931 1.059983 0
M  V30 6 C 1.755044 -0.342991 0.064174 0
M  V30 7 O 1.579231 -0.758614 -1.111484 0
M  V30 8 N 2.792632 0.570994 0.355329 0
M  V30 9 C 3.720784 1.097806 -0.640239 0
M  V30 10 C 2.876894 1.807022 -1.639587 0
M  V30 11 C 2.524393 1.389862 -2.907082 0
M  V30 12 C 1.729011 2.191950 -3.698028 0
M  V30 13 C 1.253835 3.422422 -3.279067 0
M  V30 14 C 1.621088 3.827275 -1.993784 0
M  V30 15 C 2.415505 3.031881 -1.196721 0
M  V30 16 Cl 2.781332 3.698067 0.394406 0
M  V30 17 C 0.882081 -0.512674 2.405298 0
M  V30 18 C 0.009159 -1.001881 3.360972 0
M  V30 19 C -0.959858 -1.890096 2.932569 0
M  V30 20 C -1.877321 -2.402466 3.943566 0
M  V30 21 C -1.518864 -2.857274 5.203874 0
M  V30 22 N -2.651556 -3.251361 5.846272 0
M  V30 23 N -3.673497 -3.052969 5.026572 0
M  V30 24 C -3.248990 -2.533764 3.848235 0
M  V30 25 H -3.183145 -4.385816 0.150105 0
M  V30 26 H -2.673506 -2.907915 -0.692967 0
M  V30 27 H -1.489858 -4.261167 -0.404520 0
M  V30 28 H -0.265818 -2.087669 -0.355509 0
M  V30 29 H 2.928927 0.912538 1.351813 0
M  V30 30 H 4.447695 1.780416 -0.202496 0
M  V30 31 H 4.208766 0.259782 -1.181475 0
M  V30 32 H 2.918749 0.432690 -3.183768 0
M  V30 33 H 1.482727 1.810241 -4.688736 0
M  V30 34 H 0.634859 4.016683 -3.931485 0
M  V30 35 H 1.221874 4.794279 -1.722031 0
M  V30 36 H 1.639157 0.181018 2.743929 0
M  V30 37 H 0.112349 -0.679360 4.388696 0
M  V30 38 H -0.532135 -2.913311 5.652958 0
M  V30 39 H -4.693745 -3.258398 5.224254 0
M  V30 40 H -3.827797 -2.259552 2.975673 0
M  V30 END ATOM
M  V30 BEGIN BOND
M  V30 1 1 1 2
M  V30 2 1 2 3
M  V30 3 2 3 4
M  V30 4 1 4 5
M  V30 5 1 5 6
M  V30 6 2 6 7
M  V30 7 1 6 8
M  V30 8 1 8 9
M  V30 9 1 9 10
M  V30 10 2 10 11
M  V30 11 1 11 12
M  V30 12 2 12 13
M  V30 13 1 13 14
M  V30 14 2 14 15
M  V30 15 1 15 16
M  V30 16 2 5 17
M  V30 17 1 17 18
M  V30 18 2 18 19
M  V30 19 1 19 20
M  V30 20 1 20 21
M  V30 21 2 21 22
M  V30 22 1 22 23
M  V30 23 1 23 24
M  V30 24 1 19 3
M  V30 25 2 24 20
M  V30 26 1 15 10
M  V30 27 1 1 25
M  V30 28 1 1 26
M  V30 29 1 1 27
M  V30 30 1 4 28
M  V30 31 1 8 29
M  V30 32 1 9 30
M  V30 33 1 9 31
M  V30 34 1 11 32
M  V30 35 1 12 33
M  V30 36 1 13 34
M  V30 37 1 14 35
M  V30 38 1 17 36
M  V30 39 1 18 37
M  V30 40 1 21 38
M  V30 41 1 23 39
M  V30 42 1 24 40
M  V30 END BOND
M  V30 END CTAB
M  END
>  <Dataset>  (175) 
ChEMBL_Kinases

>  <Ligand_Instance>  (175) 
nan

>  <PDB_ID>  (175) 
nan

>  <Standardized_SMILES>  (175) 
COc1cc(C(=O)NCc2ccccc2Cl)ccc1-c1cn[nH]c1

>  <Name>  (175) 
nan

>  <Pocket>  (175) 
nan

>  <ATP_Site>  (175) 
nan

>  <Peripheral>  (175) 
nan

>  <Num_H_Atoms_ProtBoundConf>  (175) 
nan

>  <Num_Resolved_Atoms>  (175) 
nan

>  <Num_Not_Resolved_Atoms>  (175) 
nan

$$$$
CHEMBL3652640
     RDKit          3D

  0  0  0  0  0  0  0  0  0  0999 V3000
M  V30 BEGIN CTAB
M  V30 COUNTS 57 60 0 0 0
M  V30 BEGIN ATOM
M  V30 1 C -2.328317 -4.762410 3.274691 0
M  V30 2 N -1.945923 -3.392353 2.999889 0
M  V30 3 N -2.316699 -2.374725 3.801785 0
M  V30 4 C -1.799762 -1.223688 3.294842 0
M  V30 5 C -1.108760 -1.599202 2.162113 0
M  V30 6 N -0.524699 -0.463559 1.540291 0
M  V30 7 C -1.097382 0.357050 0.519945 0
M  V30 8 O -2.260717 0.131999 0.043541 0
M  V30 9 C -0.375899 1.490667 -0.023553 0
M  V30 10 N 0.857291 1.813280 0.418668 0
M  V30 11 C 1.588485 2.829029 -0.020539 0
M  V30 12 C 2.914385 3.099732 0.520423 0
M  V30 13 C 3.716850 4.136885 0.097741 0
M  V30 14 C 4.973821 4.420002 0.588699 0
M  V30 15 C 5.456767 3.579005 1.593818 0
M  V30 16 C 4.678113 2.536663 2.035035 0
M  V30 17 C 3.405993 2.281177 1.511449 0
M  V30 18 F 2.746895 1.231372 2.029072 0
M  V30 19 C 1.009986 3.594737 -1.008122 0
M  V30 20 C -0.261623 3.343795 -1.533375 0
M  V30 21 C -0.941938 2.266323 -1.012264 0
M  V30 22 N -2.244830 1.997561 -1.540833 0
M  V30 23 C -1.200300 -2.959919 1.975974 0
M  V30 24 N -0.610579 -3.599603 0.888530 0
M  V30 25 C -0.865809 -4.998955 0.607413 0
M  V30 26 C -2.096762 -5.147848 -0.288610 0
M  V30 27 C -1.848256 -4.362003 -1.562444 0
M  V30 28 C -1.816703 -2.866833 -1.274518 0 CFG=2
M  V30 29 N -2.412479 -2.154067 -2.376750 0
M  V30 30 C -0.345147 -2.458579 -1.269756 0
M  V30 31 C 0.302815 -2.846479 0.017505 0
M  V30 32 H -2.910075 -5.253747 2.483280 0
M  V30 33 H -1.481966 -5.364652 3.681876 0
M  V30 34 H -3.058546 -4.774583 4.150891 0
M  V30 35 H -2.045203 -0.345452 3.874406 0
M  V30 36 H 0.438445 -0.154060 1.849658 0
M  V30 37 H 3.375468 4.797990 -0.670975 0
M  V30 38 H 5.574040 5.244280 0.231571 0
M  V30 39 H 6.430792 3.717754 2.043324 0
M  V30 40 H 5.075249 1.894462 2.819258 0
M  V30 41 H 1.524220 4.435191 -1.424560 0
M  V30 42 H -0.704059 3.952109 -2.307956 0
M  V30 43 H -3.207174 1.971835 -1.134970 0
M  V30 44 H -2.344697 1.768881 -2.543422 0
M  V30 45 H -0.041304 -5.415691 -0.060627 0
M  V30 46 H -0.841315 -5.669555 1.455632 0
M  V30 47 H -3.025903 -4.824331 0.171325 0
M  V30 48 H -2.174609 -6.214232 -0.577080 0
M  V30 49 H -0.931214 -4.718759 -2.055928 0
M  V30 50 H -2.696025 -4.581460 -2.248514 0
M  V30 51 H -2.279150 -2.644071 -0.296991 0
M  V30 52 H -2.638704 -2.770957 -3.161090 0
M  V30 53 H -3.116637 -1.452758 -2.125871 0
M  V30 54 H 0.080853 -3.027903 -2.151969 0
M  V30 55 H -0.203621 -1.399255 -1.569932 0
M  V30 56 H 1.165127 -3.531173 -0.294620 0
M  V30 57 H 0.849208 -2.052664 0.543713 0
M  V30 END ATOM
M  V30 BEGIN BOND
M  V30 1 1 1 2
M  V30 2 1 2 3
M  V30 3 2 3 4
M  V30 4 1 4 5
M  V30 5 1 5 6
M  V30 6 1 6 7
M  V30 7 2 7 8
M  V30 8 1 7 9
M  V30 9 2 9 10
M  V30 10 1 10 11
M  V30 11 1 11 12
M  V30 12 2 12 13
M  V30 13 1 13 14
M  V30 14 2 14 15
M  V30 15 1 15 16
M  V30 16 2 16 17
M  V30 17 1 17 18
M  V30 18 2 11 19
M  V30 19 1 19 20
M  V30 20 2 20 21
M  V30 21 1 21 22
M  V30 22 2 5 23
M  V30 23 1 23 24
M  V30 24 1 24 25
M  V30 25 1 25 26
M  V30 26 1 26 27
M  V30 27 1 27 28
M  V30 28 1 28 29
M  V30 29 1 28 30
M  V30 30 1 30 31
M  V30 31 1 23 2
M  V30 32 1 31 24
M  V30 33 1 21 9
M  V30 34 1 17 12
M  V30 35 1 1 32
M  V30 36 1 1 33
M  V30 37 1 1 34
M  V30 38 1 4 35
M  V30 39 1 6 36
M  V30 40 1 13 37
M  V30 41 1 14 38
M  V30 42 1 15 39
M  V30 43 1 16 40
M  V30 44 1 19 41
M  V30 45 1 20 42
M  V30 46 1 22 43
M  V30 47 1 22 44
M  V30 48 1 25 45
M  V30 49 1 25 46
M  V30 50 1 26 47
M  V30 51 1 26 48
M  V30 52 1 27 49
M  V30 53 1 27 50
M  V30 54 1 28 51 CFG=1
M  V30 55 1 29 52
M  V30 56 1 29 53
M  V30 57 1 30 54
M  V30 58 1 30 55
M  V30 59 1 31 56
M  V30 60 1 31 57
M  V30 END BOND
M  V30 END CTAB
M  END
>  <Dataset>  (176) 
ChEMBL_Kinases

>  <Ligand_Instance>  (176) 
nan

>  <PDB_ID>  (176) 
nan

>  <Standardized_SMILES>  (176) 
Cn1ncc(NC(=O)c2nc(-c3ccccc3F)ccc2N)c1N1CCC[C@H](N)CC1

>  <Name>  (176) 
nan

>  <Pocket>  (176) 
nan

>  <ATP_Site>  (176) 
nan

>  <Peripheral>  (176) 
nan

>  <Num_H_Atoms_ProtBoundConf>  (176) 
nan

>  <Num_Resolved_Atoms>  (176) 
nan

>  <Num_Not_Resolved_Atoms>  (176) 
nan

$$$$
CHEMBL3959725
     RDKit          3D

  0  0  0  0  0  0  0  0  0  0999 V3000
M  V30 BEGIN CTAB
M  V30 COUNTS 49 52 0 0 0
M  V30 BEGIN ATOM
M  V30 1 C 0.985958 -5.544474 1.223982 0
M  V30 2 C 1.327017 -4.123659 0.925055 0
M  V30 3 N 2.590954 -3.800214 0.607772 0
M  V30 4 C 2.864907 -2.508386 0.343523 0
M  V30 5 C 4.190851 -2.266100 0.025978 0
M  V30 6 C 4.542827 -0.962920 -0.256729 0
M  V30 7 C 3.564633 0.031658 -0.210359 0
M  V30 8 C 2.253727 -0.252701 0.110754 0
M  V30 9 C 1.308144 0.853330 0.132783 0
M  V30 10 C -0.037431 0.946658 0.402356 0
M  V30 11 C -0.484906 2.245344 0.288566 0
M  V30 12 C 0.629081 2.974883 -0.064120 0
M  V30 13 N 1.662453 2.127609 -0.146672 0
M  V30 14 C 0.425701 4.433494 -0.255406 0
M  V30 15 C -0.733725 4.966977 0.533315 0
M  V30 16 N -1.958080 4.229321 0.282531 0
M  V30 17 C -1.825468 2.812244 0.481469 0
M  V30 18 O -2.806117 2.071438 0.807621 0
M  V30 19 C 1.878434 -1.545332 0.396663 0
M  V30 20 N 0.611996 -1.864658 0.713804 0
M  V30 21 C 0.325657 -3.151465 0.979863 0
M  V30 22 N -1.000286 -3.585156 1.328121 0
M  V30 23 C -2.173915 -2.754250 1.441453 0
M  V30 24 C -3.422579 -3.516797 1.828191 0
M  V30 25 C -1.983784 -1.678850 2.489173 0
M  V30 26 C -2.454888 -2.064129 0.104914 0
M  V30 27 H 1.881659 -6.161629 1.202318 0
M  V30 28 H 0.520362 -5.617092 2.237059 0
M  V30 29 H 0.194769 -5.848660 0.515600 0
M  V30 30 H 4.938853 -3.039948 -0.007305 0
M  V30 31 H 5.571852 -0.751500 -0.506886 0
M  V30 32 H 3.953636 1.011155 -0.448944 0
M  V30 33 H -0.644893 0.117495 0.663991 0
M  V30 34 H 2.608401 2.535149 -0.412161 0
M  V30 35 H 0.359060 4.732311 -1.319688 0
M  V30 36 H 1.345432 4.933745 0.140494 0
M  V30 37 H -0.523201 5.021518 1.618116 0
M  V30 38 H -0.912205 6.011878 0.171727 0
M  V30 39 H -2.910484 4.577248 -0.018256 0
M  V30 40 H -1.175697 -4.593375 1.526747 0
M  V30 41 H -4.082554 -3.646018 0.945861 0
M  V30 42 H -4.044424 -2.952786 2.571141 0
M  V30 43 H -3.209273 -4.535081 2.190763 0
M  V30 44 H -2.295861 -2.121696 3.470222 0
M  V30 45 H -0.921048 -1.350304 2.546333 0
M  V30 46 H -2.669635 -0.849155 2.252900 0
M  V30 47 H -2.970472 -1.110911 0.342192 0
M  V30 48 H -3.172904 -2.679367 -0.485656 0
M  V30 49 H -1.529631 -1.864293 -0.465569 0
M  V30 END ATOM
M  V30 BEGIN BOND
M  V30 1 1 1 2
M  V30 2 2 2 3
M  V30 3 1 3 4
M  V30 4 2 4 5
M  V30 5 1 5 6
M  V30 6 2 6 7
M  V30 7 1 7 8
M  V30 8 1 8 9
M  V30 9 2 9 10
M  V30 10 1 10 11
M  V30 11 2 11 12
M  V30 12 1 12 13
M  V30 13 1 12 14
M  V30 14 1 14 15
M  V30 15 1 15 16
M  V30 16 1 16 17
M  V30 17 2 17 18
M  V30 18 2 8 19
M  V30 19 1 19 20
M  V30 20 2 20 21
M  V30 21 1 21 22
M  V30 22 1 22 23
M  V30 23 1 23 24
M  V30 24 1 23 25
M  V30 25 1 23 26
M  V30 26 1 21 2
M  V30 27 1 19 4
M  V30 28 1 13 9
M  V30 29 1 17 11
M  V30 30 1 1 27
M  V30 31 1 1 28
M  V30 32 1 1 29
M  V30 33 1 5 30
M  V30 34 1 6 31
M  V30 35 1 7 32
M  V30 36 1 10 33
M  V30 37 1 13 34
M  V30 38 1 14 35
M  V30 39 1 14 36
M  V30 40 1 15 37
M  V30 41 1 15 38
M  V30 42 1 16 39
M  V30 43 1 22 40
M  V30 44 1 24 41
M  V30 45 1 24 42
M  V30 46 1 24 43
M  V30 47 1 25 44
M  V30 48 1 25 45
M  V30 49 1 25 46
M  V30 50 1 26 47
M  V30 51 1 26 48
M  V30 52 1 26 49
M  V30 END BOND
M  V30 END CTAB
M  END
>  <Dataset>  (177) 
ChEMBL_Kinases

>  <Ligand_Instance>  (177) 
nan

>  <PDB_ID>  (177) 
nan

>  <Standardized_SMILES>  (177) 
Cc1nc2cccc(-c3cc4c([nH]3)CCNC4=O)c2nc1NC(C)(C)C

>  <Name>  (177) 
nan

>  <Pocket>  (177) 
nan

>  <ATP_Site>  (177) 
nan

>  <Peripheral>  (177) 
nan

>  <Num_H_Atoms_ProtBoundConf>  (177) 
nan

>  <Num_Resolved_Atoms>  (177) 
nan

>  <Num_Not_Resolved_Atoms>  (177) 
nan

$$$$
CHEMBL3959351
     RDKit          3D

  0  0  0  0  0  0  0  0  0  0999 V3000
M  V30 BEGIN CTAB
M  V30 COUNTS 64 68 0 0 0
M  V30 BEGIN ATOM
M  V30 1 C 6.507475 -1.463689 2.131040 0
M  V30 2 C 5.287406 -0.616250 1.974992 0
M  V30 3 C 4.550480 -0.186226 3.063558 0
M  V30 4 C 3.434912 0.593648 2.831732 0
M  V30 5 C 3.077615 0.928316 1.518632 0
M  V30 6 C 3.829996 0.486772 0.445737 0
M  V30 7 C 4.946880 -0.294093 0.677022 0
M  V30 8 C 3.642124 0.711661 -0.983253 0
M  V30 9 O 4.534439 0.334269 -1.786565 0
M  V30 10 N 2.516127 1.336808 -1.607656 0
M  V30 11 C 2.597620 1.678906 -3.031526 0
M  V30 12 C 1.279141 1.679453 -0.985856 0
M  V30 13 C 0.250473 1.844069 -1.892423 0
M  V30 14 N -0.965227 2.175494 -1.415544 0
M  V30 15 C -1.199165 2.348708 -0.087602 0
M  V30 16 N -2.552393 2.681955 0.224785 0
M  V30 17 C -3.406910 1.632743 0.733471 0
M  V30 18 C -4.761570 1.756211 0.970026 0
M  V30 19 C -5.455365 0.690947 1.472415 0
M  V30 20 C -4.888979 -0.523129 1.766776 0
M  V30 21 C -3.518057 -0.699304 1.544753 0
M  V30 22 S -2.704024 -2.197038 1.905160 0
M  V30 23 O -1.323316 -1.955923 2.453818 0
M  V30 24 O -3.481845 -2.812892 3.064134 0
M  V30 25 N -2.683735 -3.324815 0.655103 0
M  V30 26 C -3.990367 -3.730557 0.284145 0
M  V30 27 C -4.026837 -4.766149 -0.804530 0
M  V30 28 C -2.668363 -5.392871 -1.029651 0
M  V30 29 O -2.766110 -6.305633 -2.075011 0
M  V30 30 C -1.611833 -4.347670 -1.295283 0
M  V30 31 C -1.723229 -3.162964 -0.370907 0
M  V30 32 C -2.850792 0.386489 1.040049 0
M  V30 33 N -0.210586 2.192864 0.811659 0
M  V30 34 C 1.039622 1.856003 0.373139 0
M  V30 35 N 1.882797 1.741814 1.515018 0
M  V30 36 C 1.561177 2.435843 2.719126 0
M  V30 37 H 6.306360 -2.514926 1.841030 0
M  V30 38 H 6.809652 -1.440612 3.196374 0
M  V30 39 H 7.306164 -1.003984 1.541142 0
M  V30 40 H 4.838080 -0.450142 4.055295 0
M  V30 41 H 2.813412 0.962549 3.623508 0
M  V30 42 H 5.516622 -0.624637 -0.183598 0
M  V30 43 H 3.689849 1.725139 -3.259931 0
M  V30 44 H 2.223509 2.707364 -3.225127 0
M  V30 45 H 2.189279 0.903680 -3.686021 0
M  V30 46 H 0.483514 1.697900 -2.922910 0
M  V30 47 H -3.008570 3.626298 0.123461 0
M  V30 48 H -5.172198 2.737630 0.723903 0
M  V30 49 H -6.528109 0.873313 1.631523 0
M  V30 50 H -5.461176 -1.348982 2.164500 0
M  V30 51 H -4.554819 -4.117193 1.154086 0
M  V30 52 H -4.609005 -2.858263 -0.079863 0
M  V30 53 H -4.422730 -4.364131 -1.736465 0
M  V30 54 H -4.682116 -5.594663 -0.470439 0
M  V30 55 H -2.378196 -5.975493 -0.115411 0
M  V30 56 H -1.907294 -6.423163 -2.576308 0
M  V30 57 H -0.605087 -4.821033 -1.274352 0
M  V30 58 H -1.760605 -3.985857 -2.331087 0
M  V30 59 H -1.834685 -2.228710 -0.961434 0
M  V30 60 H -0.715472 -3.061696 0.133287 0
M  V30 61 H -1.779235 0.236941 0.868939 0
M  V30 62 H 0.865118 3.286863 2.489432 0
M  V30 63 H 2.458316 2.923962 3.151764 0
M  V30 64 H 0.980306 1.832700 3.447932 0
M  V30 END ATOM
M  V30 BEGIN BOND
M  V30 1 1 1 2
M  V30 2 2 2 3
M  V30 3 1 3 4
M  V30 4 2 4 5
M  V30 5 1 5 6
M  V30 6 2 6 7
M  V30 7 1 6 8
M  V30 8 2 8 9
M  V30 9 1 8 10
M  V30 10 1 10 11
M  V30 11 1 10 12
M  V30 12 2 12 13
M  V30 13 1 13 14
M  V30 14 2 14 15
M  V30 15 1 15 16
M  V30 16 1 16 17
M  V30 17 2 17 18
M  V30 18 1 18 19
M  V30 19 2 19 20
M  V30 20 1 20 21
M  V30 21 1 21 22
M  V30 22 2 22 23
M  V30 23 2 22 24
M  V30 24 1 22 25
M  V30 25 1 25 26
M  V30 26 1 26 27
M  V30 27 1 27 28
M  V30 28 1 28 29
M  V30 29 1 28 30
M  V30 30 1 30 31
M  V30 31 2 21 32
M  V30 32 1 15 33
M  V30 33 2 33 34
M  V30 34 1 34 35
M  V30 35 1 35 36
M  V30 36 1 7 2
M  V30 37 1 34 12
M  V30 38 1 35 5
M  V30 39 1 32 17
M  V30 40 1 31 25
M  V30 41 1 1 37
M  V30 42 1 1 38
M  V30 43 1 1 39
M  V30 44 1 3 40
M  V30 45 1 4 41
M  V30 46 1 7 42
M  V30 47 1 11 43
M  V30 48 1 11 44
M  V30 49 1 11 45
M  V30 50 1 13 46
M  V30 51 1 16 47
M  V30 52 1 18 48
M  V30 53 1 19 49
M  V30 54 1 20 50
M  V30 55 1 26 51
M  V30 56 1 26 52
M  V30 57 1 27 53
M  V30 58 1 27 54
M  V30 59 1 28 55
M  V30 60 1 29 56
M  V30 61 1 30 57
M  V30 62 1 30 58
M  V30 63 1 31 59
M  V30 64 1 31 60
M  V30 65 1 32 61
M  V30 66 1 36 62
M  V30 67 1 36 63
M  V30 68 1 36 64
M  V30 END BOND
M  V30 END CTAB
M  END
>  <Dataset>  (178) 
ChEMBL_Kinases

>  <Ligand_Instance>  (178) 
nan

>  <PDB_ID>  (178) 
nan

>  <Standardized_SMILES>  (178) 
Cc1ccc2c(c1)C(=O)N(C)c1cnc(Nc3cccc(S(=O)(=O)N4CCC(O)CC4)c3)nc1N2C

>  <Name>  (178) 
nan

>  <Pocket>  (178) 
nan

>  <ATP_Site>  (178) 
nan

>  <Peripheral>  (178) 
nan

>  <Num_H_Atoms_ProtBoundConf>  (178) 
nan

>  <Num_Resolved_Atoms>  (178) 
nan

>  <Num_Not_Resolved_Atoms>  (178) 
nan

$$$$
CHEMBL3652646
     RDKit          3D

  0  0  0  0  0  0  0  0  0  0999 V3000
M  V30 BEGIN CTAB
M  V30 COUNTS 37 39 0 0 0
M  V30 BEGIN ATOM
M  V30 1 N 0.569213 -4.128374 2.416370 0
M  V30 2 C 1.349790 -3.065053 1.969191 0
M  V30 3 S 3.084449 -2.993785 1.759041 0
M  V30 4 C 3.068570 -1.199974 1.152200 0
M  V30 5 C 4.359948 -0.601467 0.812980 0
M  V30 6 C 5.590057 -1.249155 0.895408 0
M  V30 7 F 5.583779 -2.542848 1.326011 0
M  V30 8 C 6.756047 -0.608888 0.559325 0
M  V30 9 C 6.603700 0.697386 0.143008 0
M  V30 10 C 5.436587 1.410591 0.031758 0
M  V30 11 C 4.290746 0.695701 0.391027 0
M  V30 12 F 3.102163 1.358321 0.298836 0
M  V30 13 N 1.919443 -0.958177 1.192480 0
M  V30 14 C 0.946302 -1.741631 1.562308 0
M  V30 15 C -0.474356 -1.415670 1.602599 0
M  V30 16 O -1.336744 -2.234577 1.995601 0
M  V30 17 N -0.986138 -0.152737 1.201400 0
M  V30 18 C -2.443541 0.086844 1.279552 0
M  V30 19 C -3.546763 0.558087 2.072287 0
M  V30 20 N -4.494409 0.334181 1.184620 0
M  V30 21 N -4.175367 -0.166870 0.044407 0
M  V30 22 C -5.304717 -0.379504 -0.879927 0
M  V30 23 C -5.482958 0.881334 -1.706358 0
M  V30 24 F -4.330348 1.154331 -2.429505 0
M  V30 25 C -2.840321 -0.369389 0.002219 0
M  V30 26 H 0.828312 -5.039967 1.933455 0
M  V30 27 H -0.188298 -4.110994 3.128120 0
M  V30 28 H 7.709136 -1.100733 0.620642 0
M  V30 29 H 7.498494 1.274621 -0.142750 0
M  V30 30 H 5.400859 2.432215 -0.301323 0
M  V30 31 H -0.342336 0.578450 0.865190 0
M  V30 32 H -2.769335 0.761089 2.848304 0
M  V30 33 H -4.957249 -1.172280 -1.599094 0
M  V30 34 H -6.201617 -0.716866 -0.373980 0
M  V30 35 H -5.680051 1.771588 -1.071297 0
M  V30 36 H -6.368211 0.794609 -2.368611 0
M  V30 37 H -2.577190 -0.796832 -0.972523 0
M  V30 END ATOM
M  V30 BEGIN BOND
M  V30 1 1 1 2
M  V30 2 1 2 3
M  V30 3 1 3 4
M  V30 4 1 4 5
M  V30 5 2 5 6
M  V30 6 1 6 7
M  V30 7 1 6 8
M  V30 8 2 8 9
M  V30 9 1 9 10
M  V30 10 2 10 11
M  V30 11 1 11 12
M  V30 12 2 4 13
M  V30 13 1 13 14
M  V30 14 1 14 15
M  V30 15 2 15 16
M  V30 16 1 15 17
M  V30 17 1 17 18
M  V30 18 1 18 19
M  V30 19 2 19 20
M  V30 20 1 20 21
M  V30 21 1 21 22
M  V30 22 1 22 23
M  V30 23 1 23 24
M  V30 24 1 21 25
M  V30 25 2 14 2
M  V30 26 2 25 18
M  V30 27 1 11 5
M  V30 28 1 1 26
M  V30 29 1 1 27
M  V30 30 1 8 28
M  V30 31 1 9 29
M  V30 32 1 10 30
M  V30 33 1 17 31
M  V30 34 1 19 32
M  V30 35 1 22 33
M  V30 36 1 22 34
M  V30 37 1 23 35
M  V30 38 1 23 36
M  V30 39 1 25 37
M  V30 END BOND
M  V30 END CTAB
M  END
>  <Dataset>  (179) 
ChEMBL_Kinases

>  <Ligand_Instance>  (179) 
nan

>  <PDB_ID>  (179) 
nan

>  <Standardized_SMILES>  (179) 
Nc1sc(-c2c(F)cccc2F)nc1C(=O)Nc1cnn(CCF)c1

>  <Name>  (179) 
nan

>  <Pocket>  (179) 
nan

>  <ATP_Site>  (179) 
nan

>  <Peripheral>  (179) 
nan

>  <Num_H_Atoms_ProtBoundConf>  (179) 
nan

>  <Num_Resolved_Atoms>  (179) 
nan

>  <Num_Not_Resolved_Atoms>  (179) 
nan

$$$$
CHEMBL3652639
     RDKit          3D

  0  0  0  0  0  0  0  0  0  0999 V3000
M  V30 BEGIN CTAB
M  V30 COUNTS 56 59 0 0 0
M  V30 BEGIN ATOM
M  V30 1 C -1.863694 -4.950006 2.638853 0
M  V30 2 N -1.476462 -3.586529 2.770693 0
M  V30 3 N -1.421103 -2.878451 3.895807 0
M  V30 4 C -1.020247 -1.627784 3.634055 0
M  V30 5 C -0.805412 -1.528173 2.258639 0
M  V30 6 N -0.357979 -0.249711 1.804562 0
M  V30 7 C -1.261993 0.788500 1.346649 0
M  V30 8 O -2.501614 0.620165 1.318334 0
M  V30 9 C -0.731538 2.068096 0.904238 0
M  V30 10 N 0.576441 2.428532 0.912814 0
M  V30 11 C 0.970708 3.648126 0.481804 0
M  V30 12 C 2.390189 3.957391 0.538344 0
M  V30 13 C 2.917438 5.128321 0.077460 0
M  V30 14 C 4.271869 5.497943 0.113535 0
M  V30 15 C 5.129842 4.550063 0.684649 0
M  V30 16 C 4.655165 3.328153 1.177846 0
M  V30 17 C 3.304641 3.085541 1.082072 0
M  V30 18 F 2.927352 1.880191 1.581030 0
M  V30 19 C 0.090164 4.594183 0.011482 0
M  V30 20 N -1.205337 4.238323 0.002471 0
M  V30 21 C -1.617085 3.022078 0.430744 0
M  V30 22 N -3.017367 2.751472 0.381468 0
M  V30 23 C -1.108633 -2.803212 1.742205 0
M  V30 24 N -0.961677 -2.961990 0.365116 0
M  V30 25 C -2.329464 -3.152960 -0.093087 0
M  V30 26 C -2.427730 -3.239581 -1.604051 0
M  V30 27 C -1.614316 -4.350037 -2.186561 0
M  V30 28 C -0.704554 -5.054341 -1.218989 0 CFG=1
M  V30 29 N -0.271222 -6.284916 -1.899554 0
M  V30 30 C 0.560708 -4.304314 -0.898729 0
M  V30 31 C 0.255604 -2.927353 -0.424098 0
M  V30 32 H -2.944508 -5.108341 2.446791 0
M  V30 33 H -1.189675 -5.594563 2.038840 0
M  V30 34 H -1.743741 -5.408430 3.676368 0
M  V30 35 H -0.944093 -0.969113 4.493841 0
M  V30 36 H 0.679273 -0.105329 1.820530 0
M  V30 37 H 2.295987 5.898395 -0.378937 0
M  V30 38 H 4.626988 6.444641 -0.272170 0
M  V30 39 H 6.190796 4.851593 0.709257 0
M  V30 40 H 5.409282 2.695864 1.587755 0
M  V30 41 H 0.320342 5.564175 -0.338576 0
M  V30 42 H -3.846036 2.596746 1.021129 0
M  V30 43 H -3.226193 2.698741 -0.653057 0
M  V30 44 H -2.933473 -2.284732 0.193101 0
M  V30 45 H -2.763557 -4.115608 0.264336 0
M  V30 46 H -3.510404 -3.436185 -1.809837 0
M  V30 47 H -2.248160 -2.240099 -2.073833 0
M  V30 48 H -1.024059 -3.965144 -3.017452 0
M  V30 49 H -2.296559 -5.147360 -2.609445 0
M  V30 50 H -1.230405 -5.411584 -0.318245 0
M  V30 51 H -0.586357 -7.148531 -1.398993 0
M  V30 52 H 0.767396 -6.363845 -1.952611 0
M  V30 53 H 1.064915 -4.896169 -0.084952 0
M  V30 54 H 1.204503 -4.328857 -1.805286 0
M  V30 55 H 1.086559 -2.428800 0.103146 0
M  V30 56 H 0.111990 -2.291055 -1.348659 0
M  V30 END ATOM
M  V30 BEGIN BOND
M  V30 1 1 1 2
M  V30 2 1 2 3
M  V30 3 2 3 4
M  V30 4 1 4 5
M  V30 5 1 5 6
M  V30 6 1 6 7
M  V30 7 2 7 8
M  V30 8 1 7 9
M  V30 9 2 9 10
M  V30 10 1 10 11
M  V30 11 1 11 12
M  V30 12 2 12 13
M  V30 13 1 13 14
M  V30 14 2 14 15
M  V30 15 1 15 16
M  V30 16 2 16 17
M  V30 17 1 17 18
M  V30 18 2 11 19
M  V30 19 1 19 20
M  V30 20 2 20 21
M  V30 21 1 21 22
M  V30 22 2 5 23
M  V30 23 1 23 24
M  V30 24 1 24 25
M  V30 25 1 25 26
M  V30 26 1 26 27
M  V30 27 1 27 28
M  V30 28 1 28 29
M  V30 29 1 28 30
M  V30 30 1 30 31
M  V30 31 1 23 2
M  V30 32 1 31 24
M  V30 33 1 21 9
M  V30 34 1 17 12
M  V30 35 1 1 32
M  V30 36 1 1 33
M  V30 37 1 1 34
M  V30 38 1 4 35
M  V30 39 1 6 36
M  V30 40 1 13 37
M  V30 41 1 14 38
M  V30 42 1 15 39
M  V30 43 1 16 40
M  V30 44 1 19 41
M  V30 45 1 22 42
M  V30 46 1 22 43
M  V30 47 1 25 44
M  V30 48 1 25 45
M  V30 49 1 26 46
M  V30 50 1 26 47
M  V30 51 1 27 48
M  V30 52 1 27 49
M  V30 53 1 28 50 CFG=1
M  V30 54 1 29 51
M  V30 55 1 29 52
M  V30 56 1 30 53
M  V30 57 1 30 54
M  V30 58 1 31 55
M  V30 59 1 31 56
M  V30 END BOND
M  V30 END CTAB
M  END
>  <Dataset>  (180) 
ChEMBL_Kinases

>  <Ligand_Instance>  (180) 
nan

>  <PDB_ID>  (180) 
nan

>  <Standardized_SMILES>  (180) 
Cn1ncc(NC(=O)c2nc(-c3ccccc3F)cnc2N)c1N1CCC[C@@H](N)CC1

>  <Name>  (180) 
nan

>  <Pocket>  (180) 
nan

>  <ATP_Site>  (180) 
nan

>  <Peripheral>  (180) 
nan

>  <Num_H_Atoms_ProtBoundConf>  (180) 
nan

>  <Num_Resolved_Atoms>  (180) 
nan

>  <Num_Not_Resolved_Atoms>  (180) 
nan

$$$$
CHEMBL3651898
     RDKit          3D

  0  0  0  0  0  0  0  0  0  0999 V3000
M  V30 BEGIN CTAB
M  V30 COUNTS 54 57 0 0 0
M  V30 BEGIN ATOM
M  V30 1 C 1.745888 -2.704514 -1.142345 0
M  V30 2 C 2.335198 -1.720164 -0.124428 0 CFG=2
M  V30 3 C 1.482956 -1.724894 1.087568 0
M  V30 4 C 1.903286 -0.695509 2.054690 0 CFG=2
M  V30 5 O 0.859611 -0.578716 3.005817 0
M  V30 6 C 2.201596 0.670222 1.544752 0
M  V30 7 C 2.508593 0.777939 0.092963 0 CFG=2
M  V30 8 C 1.966141 1.999848 -0.556099 0
M  V30 9 C 2.842814 3.014625 -0.986365 0
M  V30 10 C 2.525787 4.187508 -1.627236 0
M  V30 11 N 1.198630 4.378465 -1.869225 0
M  V30 12 C 0.318171 3.424998 -1.470261 0
M  V30 13 C 0.650961 2.261631 -0.831889 0
M  V30 14 N -0.326253 1.324115 -0.431725 0
M  V30 15 C -1.729509 1.318235 -0.635958 0
M  V30 16 O -2.276272 2.257011 -1.263769 0
M  V30 17 C -2.627872 0.274559 -0.160845 0
M  V30 18 C -3.976127 0.309379 -0.381546 0
M  V30 19 C -4.844437 -0.659666 0.054491 0
M  V30 20 C -4.382209 -1.748646 0.758233 0
M  V30 21 F -5.228074 -2.702994 1.189036 0
M  V30 22 C -3.021571 -1.777636 0.977374 0
M  V30 23 C -2.505325 -2.933752 1.728292 0
M  V30 24 C -2.147197 -4.007307 0.930231 0
M  V30 25 F -2.239495 -4.048896 -0.409692 0
M  V30 26 C -1.645452 -5.165890 1.489948 0
M  V30 27 C -1.491774 -5.270620 2.876112 0
M  V30 28 C -1.856471 -4.184679 3.653366 0
M  V30 29 C -2.358280 -3.024421 3.100977 0
M  V30 30 F -2.733389 -1.929005 3.795817 0
M  V30 31 N -2.215029 -0.799969 0.527127 0
M  V30 32 C 2.319876 -0.387791 -0.780729 0
M  V30 33 H 0.623607 -2.685491 -1.115736 0
M  V30 34 H 2.016583 -2.387457 -2.188648 0
M  V30 35 H 2.092686 -3.734056 -0.978225 0
M  V30 36 H 3.343310 -2.103381 0.117805 0
M  V30 37 H 1.652946 -2.731344 1.577379 0
M  V30 38 H 0.389796 -1.752566 0.862659 0
M  V30 39 H 2.744597 -1.105476 2.672053 0
M  V30 40 H 1.238043 0.094008 3.657619 0
M  V30 41 H 1.366305 1.367835 1.763377 0
M  V30 42 H 3.023903 1.068680 2.186516 0
M  V30 43 H 3.650924 0.945311 0.075658 0
M  V30 44 H 3.912170 2.909960 -0.816540 0
M  V30 45 H 3.264206 4.914865 -1.923770 0
M  V30 46 H -0.677131 3.733860 -1.735943 0
M  V30 47 H -0.080882 0.473822 0.116655 0
M  V30 48 H -4.416922 1.132976 -0.927359 0
M  V30 49 H -5.902717 -0.582632 -0.147735 0
M  V30 50 H -1.341188 -6.053083 0.932803 0
M  V30 51 H -1.096346 -6.179977 3.335290 0
M  V30 52 H -1.753143 -4.223342 4.739641 0
M  V30 53 H 3.158881 -0.442917 -1.560193 0
M  V30 54 H 1.426560 -0.316512 -1.429287 0
M  V30 END ATOM
M  V30 BEGIN BOND
M  V30 1 1 1 2
M  V30 2 1 2 3
M  V30 3 1 3 4
M  V30 4 1 4 5
M  V30 5 1 4 6
M  V30 6 1 6 7
M  V30 7 1 7 8
M  V30 8 2 8 9
M  V30 9 1 9 10
M  V30 10 2 10 11
M  V30 11 1 11 12
M  V30 12 2 12 13
M  V30 13 1 13 14
M  V30 14 1 14 15
M  V30 15 2 15 16
M  V30 16 1 15 17
M  V30 17 2 17 18
M  V30 18 1 18 19
M  V30 19 2 19 20
M  V30 20 1 20 21
M  V30 21 1 20 22
M  V30 22 1 22 23
M  V30 23 2 23 24
M  V30 24 1 24 25
M  V30 25 1 24 26
M  V30 26 2 26 27
M  V30 27 1 27 28
M  V30 28 2 28 29
M  V30 29 1 29 30
M  V30 30 2 22 31
M  V30 31 1 7 32
M  V30 32 1 32 2
M  V30 33 1 13 8
M  V30 34 1 31 17
M  V30 35 1 29 23
M  V30 36 1 1 33
M  V30 37 1 1 34
M  V30 38 1 1 35
M  V30 39 1 2 36 CFG=1
M  V30 40 1 3 37
M  V30 41 1 3 38
M  V30 42 1 4 39 CFG=1
M  V30 43 1 5 40
M  V30 44 1 6 41
M  V30 45 1 6 42
M  V30 46 1 7 43 CFG=1
M  V30 47 1 9 44
M  V30 48 1 10 45
M  V30 49 1 12 46
M  V30 50 1 14 47
M  V30 51 1 18 48
M  V30 52 1 19 49
M  V30 53 1 26 50
M  V30 54 1 27 51
M  V30 55 1 28 52
M  V30 56 1 32 53
M  V30 57 1 32 54
M  V30 END BOND
M  V30 END CTAB
M  END
>  <Dataset>  (181) 
ChEMBL_Kinases

>  <Ligand_Instance>  (181) 
nan

>  <PDB_ID>  (181) 
nan

>  <Standardized_SMILES>  (181) 
C[C@@H]1C[C@H](O)C[C@H](c2ccncc2NC(=O)c2ccc(F)c(-c3c(F)cccc3F)n2)C1

>  <Name>  (181) 
nan

>  <Pocket>  (181) 
nan

>  <ATP_Site>  (181) 
nan

>  <Peripheral>  (181) 
nan

>  <Num_H_Atoms_ProtBoundConf>  (181) 
nan

>  <Num_Resolved_Atoms>  (181) 
nan

>  <Num_Not_Resolved_Atoms>  (181) 
nan

$$$$
CHEMBL3651899
     RDKit          3D

  0  0  0  0  0  0  0  0  0  0999 V3000
M  V30 BEGIN CTAB
M  V30 COUNTS 56 59 0 0 0
M  V30 BEGIN ATOM
M  V30 1 C 3.550747 -3.572606 0.372550 0
M  V30 2 C 2.090884 -3.298417 0.472839 0 CFG=1
M  V30 3 C 1.876160 -1.795301 0.699906 0
M  V30 4 N 2.277631 -1.060755 -0.509072 0
M  V30 5 C 2.704732 0.295481 -0.549459 0
M  V30 6 C 3.998993 0.522955 -1.033216 0
M  V30 7 C 4.538003 1.809817 -1.126201 0
M  V30 8 N 3.799573 2.872671 -0.741710 0
M  V30 9 C 2.561476 2.671667 -0.277434 0
M  V30 10 C 2.005449 1.411694 -0.175275 0
M  V30 11 N 0.701940 1.201916 0.311324 0
M  V30 12 C 0.571254 1.020048 1.719041 0
M  V30 13 O 1.630506 1.068939 2.358701 0
M  V30 14 C -0.732288 0.793932 2.335227 0
M  V30 15 C -0.747119 0.627539 3.723243 0
M  V30 16 C -1.917077 0.409865 4.398494 0
M  V30 17 C -3.085513 0.358489 3.673312 0
M  V30 18 F -4.218130 0.141458 4.378815 0
M  V30 19 C -3.034761 0.529068 2.285840 0
M  V30 20 C -4.327372 0.453349 1.641547 0
M  V30 21 C -5.209091 1.497858 1.394298 0
M  V30 22 F -4.789378 2.718051 1.813058 0
M  V30 23 C -6.418224 1.272559 0.764693 0
M  V30 24 C -6.780025 -0.010040 0.363331 0
M  V30 25 O -8.007410 -0.136203 -0.257822 0
M  V30 26 C -5.905919 -1.072511 0.603706 0
M  V30 27 C -4.684272 -0.831947 1.242094 0
M  V30 28 F -3.900013 -1.925194 1.433141 0
M  V30 29 N -1.879296 0.740993 1.644802 0
M  V30 30 C 2.299451 -1.600586 -1.833360 0
M  V30 31 C 2.034983 -3.058404 -1.958475 0 CFG=1
M  V30 32 N 3.249766 -3.846630 -2.211273 0
M  V30 33 C 1.304811 -3.608207 -0.779040 0 CFG=2
M  V30 34 O 0.095958 -2.884357 -0.663182 0
M  V30 35 H 3.943377 -3.561768 1.427317 0
M  V30 36 H 3.778890 -4.571371 -0.005102 0
M  V30 37 H 4.118286 -2.757166 -0.148982 0
M  V30 38 H 1.656896 -3.803595 1.368154 0
M  V30 39 H 2.393241 -1.453957 1.596248 0
M  V30 40 H 0.771891 -1.700597 0.751531 0
M  V30 41 H 4.637402 -0.290810 -1.356104 0
M  V30 42 H 5.545225 1.959489 -1.505084 0
M  V30 43 H 1.915518 3.471535 0.047156 0
M  V30 44 H -0.152034 1.175103 -0.303464 0
M  V30 45 H 0.193585 0.672569 4.276411 0
M  V30 46 H -1.846774 0.289604 5.481074 0
M  V30 47 H -7.072157 2.128557 0.595698 0
M  V30 48 H -8.404057 -1.048725 -0.509813 0
M  V30 49 H -6.221014 -2.059731 0.277010 0
M  V30 50 H 1.476350 -1.066461 -2.392952 0
M  V30 51 H 3.221496 -1.323997 -2.423384 0
M  V30 52 H 1.390358 -3.283272 -2.858407 0
M  V30 53 H 3.707491 -3.567302 -3.090625 0
M  V30 54 H 2.912246 -4.838928 -2.340223 0
M  V30 55 H 1.018822 -4.651685 -0.891027 0
M  V30 56 H -0.017965 -2.240548 -1.387030 0
M  V30 END ATOM
M  V30 BEGIN BOND
M  V30 1 1 1 2
M  V30 2 1 2 3
M  V30 3 1 3 4
M  V30 4 1 4 5
M  V30 5 2 5 6
M  V30 6 1 6 7
M  V30 7 2 7 8
M  V30 8 1 8 9
M  V30 9 2 9 10
M  V30 10 1 10 11
M  V30 11 1 11 12
M  V30 12 2 12 13
M  V30 13 1 12 14
M  V30 14 2 14 15
M  V30 15 1 15 16
M  V30 16 2 16 17
M  V30 17 1 17 18
M  V30 18 1 17 19
M  V30 19 1 19 20
M  V30 20 2 20 21
M  V30 21 1 21 22
M  V30 22 1 21 23
M  V30 23 2 23 24
M  V30 24 1 24 25
M  V30 25 1 24 26
M  V30 26 2 26 27
M  V30 27 1 27 28
M  V30 28 2 19 29
M  V30 29 1 4 30
M  V30 30 1 30 31
M  V30 31 1 31 32
M  V30 32 1 31 33
M  V30 33 1 33 34
M  V30 34 1 33 2
M  V30 35 1 10 5
M  V30 36 1 29 14
M  V30 37 1 27 20
M  V30 38 1 1 35
M  V30 39 1 1 36
M  V30 40 1 1 37
M  V30 41 1 2 38 CFG=1
M  V30 42 1 3 39
M  V30 43 1 3 40
M  V30 44 1 6 41
M  V30 45 1 7 42
M  V30 46 1 9 43
M  V30 47 1 11 44
M  V30 48 1 15 45
M  V30 49 1 16 46
M  V30 50 1 23 47
M  V30 51 1 25 48
M  V30 52 1 26 49
M  V30 53 1 30 50
M  V30 54 1 30 51
M  V30 55 1 31 52 CFG=3
M  V30 56 1 32 53
M  V30 57 1 32 54
M  V30 58 1 33 55 CFG=3
M  V30 59 1 34 56
M  V30 END BOND
M  V30 END CTAB
M  END
>  <Dataset>  (182) 
ChEMBL_Kinases

>  <Ligand_Instance>  (182) 
nan

>  <PDB_ID>  (182) 
nan

>  <Standardized_SMILES>  (182) 
C[C@H]1CN(c2ccncc2NC(=O)c2ccc(F)c(-c3c(F)cc(O)cc3F)n2)C[C@@H](N)[C@@H]1O

>  <Name>  (182) 
nan

>  <Pocket>  (182) 
nan

>  <ATP_Site>  (182) 
nan

>  <Peripheral>  (182) 
nan

>  <Num_H_Atoms_ProtBoundConf>  (182) 
nan

>  <Num_Resolved_Atoms>  (182) 
nan

>  <Num_Not_Resolved_Atoms>  (182) 
nan

$$$$
CHEMBL3651900
     RDKit          3D

  0  0  0  0  0  0  0  0  0  0999 V3000
M  V30 BEGIN CTAB
M  V30 COUNTS 57 60 0 0 0
M  V30 BEGIN ATOM
M  V30 1 C 1.914467 -2.735602 0.943200 0
M  V30 2 C 2.239084 -2.422951 2.371964 0 CFG=1
M  V30 3 C 2.775555 -1.051398 2.586075 0
M  V30 4 C 1.740734 0.035865 2.728216 0 CFG=1
M  V30 5 C 2.061819 1.268795 2.013245 0
M  V30 6 C 2.954442 2.138731 2.662820 0
M  V30 7 C 3.464558 3.342232 2.230040 0
M  V30 8 N 3.033584 3.723085 1.005677 0
M  V30 9 C 2.178928 2.972695 0.291823 0
M  V30 10 C 1.707894 1.776451 0.788542 0
M  V30 11 N 0.816061 1.040415 -0.029809 0
M  V30 12 C -0.499544 1.620545 0.155000 0
M  V30 13 O -0.507976 2.585498 0.957892 0
M  V30 14 C -1.706481 1.122950 -0.533933 0
M  V30 15 C -2.870252 1.772775 -0.260307 0
M  V30 16 C -4.022370 1.339180 -0.883652 0
M  V30 17 C -4.037551 0.279454 -1.767014 0
M  V30 18 F -5.118073 -0.204445 -2.415309 0
M  V30 19 C -2.820392 -0.345250 -2.007530 0
M  V30 20 C -2.621394 -1.485008 -2.907692 0
M  V30 21 C -2.737851 -2.766768 -2.378731 0
M  V30 22 F -3.032964 -2.884764 -1.044808 0
M  V30 23 C -2.587038 -3.948909 -3.055606 0
M  V30 24 C -2.289463 -3.832750 -4.400857 0
M  V30 25 O -2.116723 -4.983434 -5.178761 0
M  V30 26 C -2.160678 -2.582584 -4.987089 0
M  V30 27 C -2.324709 -1.414176 -4.249359 0
M  V30 28 F -2.206477 -0.164589 -4.781559 0
M  V30 29 N -1.674506 0.068647 -1.401804 0
M  V30 30 C 0.358403 -0.469212 2.453737 0
M  V30 31 C 0.017462 -1.691659 3.275827 0 CFG=1
M  V30 32 N -1.148996 -2.300215 2.688743 0
M  V30 33 C 1.134850 -2.683212 3.347456 0 CFG=2
M  V30 34 O 1.702434 -2.738002 4.620433 0
M  V30 35 H 2.478954 -3.634478 0.595751 0
M  V30 36 H 0.849691 -3.039792 0.892889 0
M  V30 37 H 2.050527 -1.875847 0.255457 0
M  V30 38 H 3.073120 -3.128833 2.677219 0
M  V30 39 H 3.403947 -1.065349 3.500275 0
M  V30 40 H 3.481427 -0.857317 1.755605 0
M  V30 41 H 1.726869 0.314538 3.831574 0
M  V30 42 H 3.332444 1.866191 3.665028 0
M  V30 43 H 4.140209 3.932064 2.799815 0
M  V30 44 H 1.850255 3.301737 -0.683389 0
M  V30 45 H 0.891589 0.217790 -0.700750 0
M  V30 46 H -2.989674 2.608384 0.406819 0
M  V30 47 H -4.981940 1.830344 -0.693447 0
M  V30 48 H -2.695774 -4.900307 -2.560719 0
M  V30 49 H -1.577887 -5.754622 -4.758871 0
M  V30 50 H -1.926829 -2.497447 -6.044618 0
M  V30 51 H -0.417138 0.271809 2.677354 0
M  V30 52 H 0.273722 -0.764514 1.394471 0
M  V30 53 H -0.249142 -1.390373 4.306114 0
M  V30 54 H -0.938522 -3.297029 2.467603 0
M  V30 55 H -1.409672 -1.840247 1.790147 0
M  V30 56 H 0.763456 -3.716446 3.131738 0
M  V30 57 H 1.315545 -3.476399 5.148154 0
M  V30 END ATOM
M  V30 BEGIN BOND
M  V30 1 1 1 2
M  V30 2 1 2 3
M  V30 3 1 3 4
M  V30 4 1 4 5
M  V30 5 2 5 6
M  V30 6 1 6 7
M  V30 7 2 7 8
M  V30 8 1 8 9
M  V30 9 2 9 10
M  V30 10 1 10 11
M  V30 11 1 11 12
M  V30 12 2 12 13
M  V30 13 1 12 14
M  V30 14 2 14 15
M  V30 15 1 15 16
M  V30 16 2 16 17
M  V30 17 1 17 18
M  V30 18 1 17 19
M  V30 19 1 19 20
M  V30 20 2 20 21
M  V30 21 1 21 22
M  V30 22 1 21 23
M  V30 23 2 23 24
M  V30 24 1 24 25
M  V30 25 1 24 26
M  V30 26 2 26 27
M  V30 27 1 27 28
M  V30 28 2 19 29
M  V30 29 1 4 30
M  V30 30 1 30 31
M  V30 31 1 31 32
M  V30 32 1 31 33
M  V30 33 1 33 34
M  V30 34 1 33 2
M  V30 35 1 10 5
M  V30 36 1 29 14
M  V30 37 1 27 20
M  V30 38 1 1 35
M  V30 39 1 1 36
M  V30 40 1 1 37
M  V30 41 1 2 38 CFG=1
M  V30 42 1 3 39
M  V30 43 1 3 40
M  V30 44 1 4 41 CFG=1
M  V30 45 1 6 42
M  V30 46 1 7 43
M  V30 47 1 9 44
M  V30 48 1 11 45
M  V30 49 1 15 46
M  V30 50 1 16 47
M  V30 51 1 23 48
M  V30 52 1 25 49
M  V30 53 1 26 50
M  V30 54 1 30 51
M  V30 55 1 30 52
M  V30 56 1 31 53 CFG=1
M  V30 57 1 32 54
M  V30 58 1 32 55
M  V30 59 1 33 56 CFG=3
M  V30 60 1 34 57
M  V30 END BOND
M  V30 END CTAB
M  END
>  <Dataset>  (183) 
ChEMBL_Kinases

>  <Ligand_Instance>  (183) 
nan

>  <PDB_ID>  (183) 
nan

>  <Standardized_SMILES>  (183) 
C[C@H]1C[C@@H](c2ccncc2NC(=O)c2ccc(F)c(-c3c(F)cc(O)cc3F)n2)C[C@@H](N)[C@@H]1O

>  <Name>  (183) 
nan

>  <Pocket>  (183) 
nan

>  <ATP_Site>  (183) 
nan

>  <Peripheral>  (183) 
nan

>  <Num_H_Atoms_ProtBoundConf>  (183) 
nan

>  <Num_Resolved_Atoms>  (183) 
nan

>  <Num_Not_Resolved_Atoms>  (183) 
nan

$$$$
CHEMBL3651901
     RDKit          3D

  0  0  0  0  0  0  0  0  0  0999 V3000
M  V30 BEGIN CTAB
M  V30 COUNTS 57 60 0 0 0
M  V30 BEGIN ATOM
M  V30 1 C 3.082869 -3.060069 1.230747 0
M  V30 2 C 2.375059 -2.752955 -0.093395 0 CFG=1
M  V30 3 C 1.394096 -1.646481 0.065811 0
M  V30 4 C 1.341458 -0.605214 -0.982308 0 CFG=1
M  V30 5 C 1.987193 0.681354 -0.576140 0
M  V30 6 C 3.235890 0.942146 -1.099337 0
M  V30 7 C 3.968192 2.099522 -0.840204 0
M  V30 8 N 3.393341 3.022656 -0.011268 0
M  V30 9 C 2.174479 2.748074 0.488063 0
M  V30 10 C 1.420676 1.619801 0.256731 0
M  V30 11 N 0.150341 1.369271 0.801383 0
M  V30 12 C -0.677217 2.146301 1.650470 0
M  V30 13 O -0.216901 3.286302 2.004994 0
M  V30 14 C -1.994157 1.755365 2.145633 0
M  V30 15 C -2.675160 2.626170 2.966062 0
M  V30 16 C -3.920008 2.281956 3.446151 0
M  V30 17 C -4.385712 1.051099 3.045659 0
M  V30 18 F -5.607050 0.732583 3.526354 0
M  V30 19 C -3.739536 0.156584 2.231283 0
M  V30 20 C -4.206468 -1.131177 1.801469 0
M  V30 21 C -5.393890 -1.756670 2.100682 0
M  V30 22 C -5.795652 -2.991560 1.665365 0
M  V30 23 O -7.012372 -3.539231 2.020675 0
M  V30 24 C -4.946233 -3.712751 0.838392 0
M  V30 25 C -3.740881 -3.136364 0.504257 0
M  V30 26 C -3.401309 -1.887107 0.979738 0
M  V30 27 F -2.185033 -1.475956 0.551610 0
M  V30 28 N -2.537207 0.558652 1.803969 0
M  V30 29 C 1.770539 -1.050259 -2.332590 0
M  V30 30 C 2.793579 -2.120152 -2.418224 0 CFG=1
M  V30 31 N 3.760815 -1.877171 -3.478398 0
M  V30 32 C 3.446069 -2.490329 -1.109980 0 CFG=2
M  V30 33 O 4.057625 -3.743670 -1.347032 0
M  V30 34 H 2.970465 -2.214854 1.933338 0
M  V30 35 H 4.145753 -3.332888 1.076277 0
M  V30 36 H 2.618220 -3.961225 1.707760 0
M  V30 37 H 1.891983 -3.724939 -0.419036 0
M  V30 38 H 0.384907 -2.164260 0.142577 0
M  V30 39 H 1.494702 -1.210858 1.103716 0
M  V30 40 H 0.253042 -0.304876 -1.101488 0
M  V30 41 H 3.792363 0.302756 -1.765130 0
M  V30 42 H 4.954055 2.315035 -1.247129 0
M  V30 43 H 1.826544 3.532360 1.118128 0
M  V30 44 H -0.345586 0.475263 0.603535 0
M  V30 45 H -2.255317 3.597379 3.255142 0
M  V30 46 H -4.479163 2.940655 4.089740 0
M  V30 47 H -6.089501 -1.252534 2.730741 0
M  V30 48 H -7.779683 -3.521840 1.377236 0
M  V30 49 H -5.238017 -4.673154 0.487074 0
M  V30 50 H -3.115011 -3.734712 -0.140775 0
M  V30 51 H 2.169341 -0.175621 -2.912637 0
M  V30 52 H 0.847128 -1.343827 -2.915249 0
M  V30 53 H 2.250372 -3.057864 -2.761367 0
M  V30 54 H 4.736589 -1.952128 -3.136305 0
M  V30 55 H 3.511651 -0.952385 -3.893680 0
M  V30 56 H 4.243723 -1.812248 -0.787706 0
M  V30 57 H 3.356016 -4.387704 -1.690292 0
M  V30 END ATOM
M  V30 BEGIN BOND
M  V30 1 1 1 2
M  V30 2 1 2 3
M  V30 3 1 3 4
M  V30 4 1 4 5
M  V30 5 2 5 6
M  V30 6 1 6 7
M  V30 7 2 7 8
M  V30 8 1 8 9
M  V30 9 2 9 10
M  V30 10 1 10 11
M  V30 11 1 11 12
M  V30 12 2 12 13
M  V30 13 1 12 14
M  V30 14 2 14 15
M  V30 15 1 15 16
M  V30 16 2 16 17
M  V30 17 1 17 18
M  V30 18 1 17 19
M  V30 19 1 19 20
M  V30 20 2 20 21
M  V30 21 1 21 22
M  V30 22 1 22 23
M  V30 23 2 22 24
M  V30 24 1 24 25
M  V30 25 2 25 26
M  V30 26 1 26 27
M  V30 27 2 19 28
M  V30 28 1 4 29
M  V30 29 1 29 30
M  V30 30 1 30 31
M  V30 31 1 30 32
M  V30 32 1 32 33
M  V30 33 1 32 2
M  V30 34 1 10 5
M  V30 35 1 28 14
M  V30 36 1 26 20
M  V30 37 1 1 34
M  V30 38 1 1 35
M  V30 39 1 1 36
M  V30 40 1 2 37 CFG=3
M  V30 41 1 3 38
M  V30 42 1 3 39
M  V30 43 1 4 40 CFG=3
M  V30 44 1 6 41
M  V30 45 1 7 42
M  V30 46 1 9 43
M  V30 47 1 11 44
M  V30 48 1 15 45
M  V30 49 1 16 46
M  V30 50 1 21 47
M  V30 51 1 23 48
M  V30 52 1 24 49
M  V30 53 1 25 50
M  V30 54 1 29 51
M  V30 55 1 29 52
M  V30 56 1 30 53 CFG=3
M  V30 57 1 31 54
M  V30 58 1 31 55
M  V30 59 1 32 56 CFG=1
M  V30 60 1 33 57
M  V30 END BOND
M  V30 END CTAB
M  END
>  <Dataset>  (184) 
ChEMBL_Kinases

>  <Ligand_Instance>  (184) 
nan

>  <PDB_ID>  (184) 
nan

>  <Standardized_SMILES>  (184) 
C[C@H]1C[C@@H](c2ccncc2NC(=O)c2ccc(F)c(-c3cc(O)ccc3F)n2)C[C@@H](N)[C@@H]1O

>  <Name>  (184) 
nan

>  <Pocket>  (184) 
nan

>  <ATP_Site>  (184) 
nan

>  <Peripheral>  (184) 
nan

>  <Num_H_Atoms_ProtBoundConf>  (184) 
nan

>  <Num_Resolved_Atoms>  (184) 
nan

>  <Num_Not_Resolved_Atoms>  (184) 
nan

$$$$
CHEMBL3651902
     RDKit          3D

  0  0  0  0  0  0  0  0  0  0999 V3000
M  V30 BEGIN CTAB
M  V30 COUNTS 53 56 0 0 0
M  V30 BEGIN ATOM
M  V30 1 N 5.239763 -0.832764 0.255411 0
M  V30 2 C 4.223091 -1.818777 0.455371 0 CFG=1
M  V30 3 C 3.896624 -2.035418 1.919967 0
M  V30 4 C 3.677339 -0.639433 2.467133 0
M  V30 5 C 2.648883 0.123541 1.741308 0
M  V30 6 C 2.166487 -0.312796 0.427534 0 CFG=1
M  V30 7 C 1.899335 0.837976 -0.509615 0
M  V30 8 C 2.834581 1.313140 -1.404360 0
M  V30 9 C 2.596665 2.364917 -2.263383 0
M  V30 10 N 1.397510 2.967227 -2.238841 0
M  V30 11 C 0.428571 2.566777 -1.397435 0
M  V30 12 C 0.678299 1.513477 -0.542404 0
M  V30 13 N -0.337403 1.087180 0.352797 0
M  V30 14 C -0.788296 1.326183 1.656123 0
M  V30 15 O -0.173395 2.155223 2.332427 0
M  V30 16 C -1.952995 0.574368 2.113768 0
M  V30 17 C -2.353778 0.821983 3.408070 0
M  V30 18 C -3.452579 0.104563 3.827743 0
M  V30 19 C -4.068669 -0.783119 2.976391 0
M  V30 20 C -3.661950 -1.022323 1.690909 0
M  V30 21 C -4.231645 -1.923068 0.706963 0
M  V30 22 C -3.621628 -1.977870 -0.529762 0
M  V30 23 C -4.116285 -2.819195 -1.530050 0
M  V30 24 C -5.219706 -3.622210 -1.333294 0
M  V30 25 O -5.652388 -4.429573 -2.371206 0
M  V30 26 C -5.840931 -3.575372 -0.093584 0
M  V30 27 C -5.321928 -2.735378 0.860271 0
M  V30 28 F -5.968552 -2.737061 2.035667 0
M  V30 29 N -2.588830 -0.300736 1.327189 0
M  V30 30 C 2.955137 -1.373297 -0.208893 0
M  V30 31 H 6.142979 -1.071627 0.727766 0
M  V30 32 H 5.451979 -0.800915 -0.776248 0
M  V30 33 H 4.527590 -2.768981 -0.036008 0
M  V30 34 H 3.033143 -2.691163 1.982096 0
M  V30 35 H 4.771210 -2.453163 2.416191 0
M  V30 36 H 4.688783 -0.169353 2.474033 0
M  V30 37 H 3.410279 -0.746926 3.533439 0
M  V30 38 H 2.977034 1.206695 1.760424 0
M  V30 39 H 1.746477 0.168692 2.442695 0
M  V30 40 H 1.114818 -0.730697 0.570132 0
M  V30 41 H 3.807569 0.848627 -1.447146 0
M  V30 42 H 3.359171 2.708688 -2.950770 0
M  V30 43 H -0.545152 3.040774 -1.363408 0
M  V30 44 H -0.817860 0.393266 -0.273470 0
M  V30 45 H -1.831914 1.531891 4.034714 0
M  V30 46 H -3.840567 0.235811 4.835629 0
M  V30 47 H -4.911824 -1.311525 3.345625 0
M  V30 48 H -2.755922 -1.398339 -0.801880 0
M  V30 49 H -3.634804 -2.853380 -2.488802 0
M  V30 50 H -5.255958 -5.331078 -2.583687 0
M  V30 51 H -6.707908 -4.192976 0.090352 0
M  V30 52 H 3.255701 -1.135605 -1.267479 0
M  V30 53 H 2.309915 -2.310867 -0.288811 0
M  V30 END ATOM
M  V30 BEGIN BOND
M  V30 1 1 1 2
M  V30 2 1 2 3
M  V30 3 1 3 4
M  V30 4 1 4 5
M  V30 5 1 5 6
M  V30 6 1 6 7
M  V30 7 2 7 8
M  V30 8 1 8 9
M  V30 9 2 9 10
M  V30 10 1 10 11
M  V30 11 2 11 12
M  V30 12 1 12 13
M  V30 13 1 13 14
M  V30 14 2 14 15
M  V30 15 1 14 16
M  V30 16 2 16 17
M  V30 17 1 17 18
M  V30 18 2 18 19
M  V30 19 1 19 20
M  V30 20 1 20 21
M  V30 21 2 21 22
M  V30 22 1 22 23
M  V30 23 2 23 24
M  V30 24 1 24 25
M  V30 25 1 24 26
M  V30 26 2 26 27
M  V30 27 1 27 28
M  V30 28 2 20 29
M  V30 29 1 6 30
M  V30 30 1 30 2
M  V30 31 1 12 7
M  V30 32 1 29 16
M  V30 33 1 27 21
M  V30 34 1 1 31
M  V30 35 1 1 32
M  V30 36 1 2 33 CFG=3
M  V30 37 1 3 34
M  V30 38 1 3 35
M  V30 39 1 4 36
M  V30 40 1 4 37
M  V30 41 1 5 38
M  V30 42 1 5 39
M  V30 43 1 6 40 CFG=1
M  V30 44 1 8 41
M  V30 45 1 9 42
M  V30 46 1 11 43
M  V30 47 1 13 44
M  V30 48 1 17 45
M  V30 49 1 18 46
M  V30 50 1 19 47
M  V30 51 1 22 48
M  V30 52 1 23 49
M  V30 53 1 25 50
M  V30 54 1 26 51
M  V30 55 1 30 52
M  V30 56 1 30 53
M  V30 END BOND
M  V30 END CTAB
M  END
>  <Dataset>  (185) 
ChEMBL_Kinases

>  <Ligand_Instance>  (185) 
nan

>  <PDB_ID>  (185) 
nan

>  <Standardized_SMILES>  (185) 
N[C@H]1CCC[C@@H](c2ccncc2NC(=O)c2cccc(-c3ccc(O)cc3F)n2)C1

>  <Name>  (185) 
nan

>  <Pocket>  (185) 
nan

>  <ATP_Site>  (185) 
nan

>  <Peripheral>  (185) 
nan

>  <Num_H_Atoms_ProtBoundConf>  (185) 
nan

>  <Num_Resolved_Atoms>  (185) 
nan

>  <Num_Not_Resolved_Atoms>  (185) 
nan

$$$$
CHEMBL3651903
     RDKit          3D

  0  0  0  0  0  0  0  0  0  0999 V3000
M  V30 BEGIN CTAB
M  V30 COUNTS 53 56 0 0 0
M  V30 BEGIN ATOM
M  V30 1 N 2.585985 -1.233932 -0.099804 0
M  V30 2 C 2.149405 -1.795686 1.138402 0 CFG=1
M  V30 3 C 3.421204 -2.183343 1.918686 0
M  V30 4 C 4.213034 -0.893059 1.983996 0
M  V30 5 C 3.484687 0.193575 2.684213 0
M  V30 6 C 2.122577 0.538765 2.119873 0 CFG=1
M  V30 7 C 2.107065 1.395357 0.958868 0
M  V30 8 C 3.175750 2.295089 0.858100 0
M  V30 9 C 3.296662 3.154827 -0.239852 0
M  V30 10 N 2.400863 3.171559 -1.260246 0
M  V30 11 C 1.368119 2.321947 -1.189452 0
M  V30 12 C 1.245216 1.474409 -0.109878 0
M  V30 13 N 0.099825 0.656785 -0.130663 0
M  V30 14 C -0.954464 1.377763 0.499517 0
M  V30 15 O -0.680036 2.527148 0.924656 0
M  V30 16 C -2.317721 0.821040 0.658253 0
M  V30 17 C -3.269448 1.596121 1.281971 0
M  V30 18 C -4.497818 1.017596 1.391132 0
M  V30 19 C -4.707372 -0.248574 0.895221 0
M  V30 20 C -3.758465 -1.016625 0.275435 0
M  V30 21 C -3.884271 -2.351104 -0.275411 0
M  V30 22 C -2.768235 -2.917140 -0.855719 0
M  V30 23 C -2.780476 -4.180677 -1.408962 0
M  V30 24 O -1.647209 -4.720002 -1.982608 0
M  V30 25 C -3.926239 -4.944982 -1.406155 0
M  V30 26 C -5.040669 -4.405896 -0.838201 0
M  V30 27 C -4.994963 -3.158134 -0.301832 0
M  V30 28 F -6.130698 -2.688396 0.241869 0
M  V30 29 N -2.561408 -0.412644 0.186776 0
M  V30 30 C 1.436305 -0.800119 1.992257 0
M  V30 31 H 3.498099 -1.649055 -0.399511 0
M  V30 32 H 1.896819 -1.348396 -0.878358 0
M  V30 33 H 1.486476 -2.666632 1.026116 0
M  V30 34 H 3.076839 -2.537397 2.896168 0
M  V30 35 H 3.960761 -2.901450 1.301461 0
M  V30 36 H 4.610042 -0.686492 0.997704 0
M  V30 37 H 5.105328 -1.141352 2.623274 0
M  V30 38 H 4.132120 1.035847 2.898336 0
M  V30 39 H 3.244804 -0.232858 3.712922 0
M  V30 40 H 1.574469 1.067996 2.954357 0
M  V30 41 H 3.990729 2.472878 1.512906 0
M  V30 42 H 4.097284 3.884194 -0.394891 0
M  V30 43 H 0.649002 2.327181 -1.996882 0
M  V30 44 H -0.215831 -0.303529 -0.465356 0
M  V30 45 H -3.021810 2.583784 1.643854 0
M  V30 46 H -5.310280 1.549166 1.866251 0
M  V30 47 H -5.693851 -0.664156 1.004493 0
M  V30 48 H -1.817569 -2.400931 -0.910037 0
M  V30 49 H -0.882413 -5.052807 -1.390526 0
M  V30 50 H -3.926600 -5.932306 -1.841183 0
M  V30 51 H -5.947452 -4.993455 -0.828343 0
M  V30 52 H 1.510508 -1.227605 3.051155 0
M  V30 53 H 0.381387 -0.788275 1.773256 0
M  V30 END ATOM
M  V30 BEGIN BOND
M  V30 1 1 1 2
M  V30 2 1 2 3
M  V30 3 1 3 4
M  V30 4 1 4 5
M  V30 5 1 5 6
M  V30 6 1 6 7
M  V30 7 2 7 8
M  V30 8 1 8 9
M  V30 9 2 9 10
M  V30 10 1 10 11
M  V30 11 2 11 12
M  V30 12 1 12 13
M  V30 13 1 13 14
M  V30 14 2 14 15
M  V30 15 1 14 16
M  V30 16 2 16 17
M  V30 17 1 17 18
M  V30 18 2 18 19
M  V30 19 1 19 20
M  V30 20 1 20 21
M  V30 21 2 21 22
M  V30 22 1 22 23
M  V30 23 1 23 24
M  V30 24 2 23 25
M  V30 25 1 25 26
M  V30 26 2 26 27
M  V30 27 1 27 28
M  V30 28 2 20 29
M  V30 29 1 6 30
M  V30 30 1 30 2
M  V30 31 1 12 7
M  V30 32 1 29 16
M  V30 33 1 27 21
M  V30 34 1 1 31
M  V30 35 1 1 32
M  V30 36 1 2 33 CFG=3
M  V30 37 1 3 34
M  V30 38 1 3 35
M  V30 39 1 4 36
M  V30 40 1 4 37
M  V30 41 1 5 38
M  V30 42 1 5 39
M  V30 43 1 6 40 CFG=1
M  V30 44 1 8 41
M  V30 45 1 9 42
M  V30 46 1 11 43
M  V30 47 1 13 44
M  V30 48 1 17 45
M  V30 49 1 18 46
M  V30 50 1 19 47
M  V30 51 1 22 48
M  V30 52 1 24 49
M  V30 53 1 25 50
M  V30 54 1 26 51
M  V30 55 1 30 52
M  V30 56 1 30 53
M  V30 END BOND
M  V30 END CTAB
M  END
>  <Dataset>  (186) 
ChEMBL_Kinases

>  <Ligand_Instance>  (186) 
nan

>  <PDB_ID>  (186) 
nan

>  <Standardized_SMILES>  (186) 
N[C@H]1CCC[C@@H](c2ccncc2NC(=O)c2cccc(-c3cc(O)ccc3F)n2)C1

>  <Name>  (186) 
nan

>  <Pocket>  (186) 
nan

>  <ATP_Site>  (186) 
nan

>  <Peripheral>  (186) 
nan

>  <Num_H_Atoms_ProtBoundConf>  (186) 
nan

>  <Num_Resolved_Atoms>  (186) 
nan

>  <Num_Not_Resolved_Atoms>  (186) 
nan

$$$$
CHEMBL3651904
     RDKit          3D

  0  0  0  0  0  0  0  0  0  0999 V3000
M  V30 BEGIN CTAB
M  V30 COUNTS 53 56 0 0 0
M  V30 BEGIN ATOM
M  V30 1 N 4.514519 0.753823 2.415240 0
M  V30 2 C 4.169645 -0.016467 1.284850 0 CFG=1
M  V30 3 C 3.605993 -1.379643 1.709577 0
M  V30 4 C 2.464008 -1.056218 2.628513 0
M  V30 5 C 1.520845 -0.037978 2.146706 0
M  V30 6 C 1.761343 0.587286 0.804252 0 CFG=1
M  V30 7 C 1.186264 1.984080 0.745973 0
M  V30 8 C 2.113625 2.994530 0.994178 0
M  V30 9 C 1.760262 4.341555 0.966857 0
M  V30 10 N 0.482596 4.676228 0.692027 0
M  V30 11 C -0.379379 3.673119 0.459247 0
M  V30 12 C -0.118171 2.325820 0.466071 0
M  V30 13 N -1.026676 1.281360 0.227774 0
M  V30 14 C -2.403607 1.354731 -0.104009 0
M  V30 15 O -2.952352 2.480873 -0.217109 0
M  V30 16 C -3.259755 0.195589 -0.331319 0
M  V30 17 C -4.591241 0.321996 -0.651176 0
M  V30 18 C -5.414511 -0.749474 -0.869000 0
M  V30 19 C -4.917908 -2.040880 -0.771407 0
M  V30 20 C -3.574653 -2.161970 -0.448611 0
M  V30 21 C -2.877522 -3.438160 -0.302238 0
M  V30 22 C -2.286604 -3.965802 -1.443966 0
M  V30 23 F -2.377655 -3.288553 -2.629479 0
M  V30 24 C -1.593875 -5.155822 -1.476908 0
M  V30 25 C -1.519978 -5.815256 -0.263973 0
M  V30 26 O -0.823392 -7.030132 -0.255454 0
M  V30 27 C -2.080640 -5.354422 0.910200 0
M  V30 28 C -2.771182 -4.140498 0.879843 0
M  V30 29 F -3.352764 -3.613498 1.985967 0
M  V30 30 N -2.811240 -1.074443 -0.244985 0
M  V30 31 C 3.170822 0.528665 0.331444 0
M  V30 32 H 5.149664 0.210316 3.005154 0
M  V30 33 H 3.787300 1.281213 2.897462 0
M  V30 34 H 5.099838 -0.222635 0.712534 0
M  V30 35 H 4.408154 -1.851705 2.290466 0
M  V30 36 H 3.335453 -1.948663 0.821095 0
M  V30 37 H 2.931117 -0.785517 3.621202 0
M  V30 38 H 1.971756 -2.029383 2.839614 0
M  V30 39 H 1.455547 0.761231 2.929548 0
M  V30 40 H 0.481132 -0.488314 2.182361 0
M  V30 41 H 1.148060 0.020131 0.074143 0
M  V30 42 H 3.143755 2.868858 1.222964 0
M  V30 43 H 2.466031 5.157195 1.157502 0
M  V30 44 H -1.378304 4.015677 0.248114 0
M  V30 45 H -0.759696 0.279693 0.281977 0
M  V30 46 H -5.003930 1.333763 -0.733352 0
M  V30 47 H -6.452615 -0.632168 -1.118053 0
M  V30 48 H -5.470935 -2.943139 -0.920915 0
M  V30 49 H -1.146249 -5.540401 -2.376301 0
M  V30 50 H 0.116305 -7.030653 0.155758 0
M  V30 51 H -2.006213 -5.891730 1.842047 0
M  V30 52 H 3.205103 -0.216847 -0.525358 0
M  V30 53 H 3.487977 1.458657 -0.179443 0
M  V30 END ATOM
M  V30 BEGIN BOND
M  V30 1 1 1 2
M  V30 2 1 2 3
M  V30 3 1 3 4
M  V30 4 1 4 5
M  V30 5 1 5 6
M  V30 6 1 6 7
M  V30 7 2 7 8
M  V30 8 1 8 9
M  V30 9 2 9 10
M  V30 10 1 10 11
M  V30 11 2 11 12
M  V30 12 1 12 13
M  V30 13 1 13 14
M  V30 14 2 14 15
M  V30 15 1 14 16
M  V30 16 2 16 17
M  V30 17 1 17 18
M  V30 18 2 18 19
M  V30 19 1 19 20
M  V30 20 1 20 21
M  V30 21 2 21 22
M  V30 22 1 22 23
M  V30 23 1 22 24
M  V30 24 2 24 25
M  V30 25 1 25 26
M  V30 26 1 25 27
M  V30 27 2 27 28
M  V30 28 1 28 29
M  V30 29 2 20 30
M  V30 30 1 6 31
M  V30 31 1 31 2
M  V30 32 1 12 7
M  V30 33 1 30 16
M  V30 34 1 28 21
M  V30 35 1 1 32
M  V30 36 1 1 33
M  V30 37 1 2 34 CFG=3
M  V30 38 1 3 35
M  V30 39 1 3 36
M  V30 40 1 4 37
M  V30 41 1 4 38
M  V30 42 1 5 39
M  V30 43 1 5 40
M  V30 44 1 6 41 CFG=3
M  V30 45 1 8 42
M  V30 46 1 9 43
M  V30 47 1 11 44
M  V30 48 1 13 45
M  V30 49 1 17 46
M  V30 50 1 18 47
M  V30 51 1 19 48
M  V30 52 1 24 49
M  V30 53 1 26 50
M  V30 54 1 27 51
M  V30 55 1 31 52
M  V30 56 1 31 53
M  V30 END BOND
M  V30 END CTAB
M  END
>  <Dataset>  (187) 
ChEMBL_Kinases

>  <Ligand_Instance>  (187) 
nan

>  <PDB_ID>  (187) 
nan

>  <Standardized_SMILES>  (187) 
N[C@H]1CCC[C@@H](c2ccncc2NC(=O)c2cccc(-c3c(F)cc(O)cc3F)n2)C1

>  <Name>  (187) 
nan

>  <Pocket>  (187) 
nan

>  <ATP_Site>  (187) 
nan

>  <Peripheral>  (187) 
nan

>  <Num_H_Atoms_ProtBoundConf>  (187) 
nan

>  <Num_Resolved_Atoms>  (187) 
nan

>  <Num_Not_Resolved_Atoms>  (187) 
nan

$$$$
CHEMBL3651905
     RDKit          3D

  0  0  0  0  0  0  0  0  0  0999 V3000
M  V30 BEGIN CTAB
M  V30 COUNTS 53 56 0 0 0
M  V30 BEGIN ATOM
M  V30 1 N 1.806489 -1.012053 2.230874 0
M  V30 2 C 2.299172 -1.624682 1.008736 0 CFG=1
M  V30 3 C 1.212184 -2.112410 0.117539 0
M  V30 4 C 1.228808 -1.556327 -1.263889 0
M  V30 5 C 1.825926 -0.208277 -1.423804 0
M  V30 6 C 2.799155 0.296250 -0.484951 0 CFG=1
M  V30 7 C 2.696764 1.646143 0.093408 0
M  V30 8 C 3.795966 2.532820 0.042815 0
M  V30 9 C 3.920099 3.809491 0.543485 0
M  V30 10 N 2.827902 4.304798 1.186799 0
M  V30 11 C 1.753348 3.513198 1.268302 0
M  V30 12 C 1.621482 2.237826 0.770505 0
M  V30 13 N 0.430471 1.492980 0.872559 0
M  V30 14 C -0.837507 1.809911 1.413054 0
M  V30 15 O -0.970679 2.981689 1.908293 0
M  V30 16 C -2.004605 0.949967 1.465098 0
M  V30 17 C -3.191568 1.441481 1.958157 0
M  V30 18 C -4.367727 0.734586 2.038956 0
M  V30 19 C -4.379853 -0.571368 1.596506 0
M  V30 20 F -5.531265 -1.261629 1.675992 0
M  V30 21 C -3.193225 -1.073201 1.100829 0
M  V30 22 C -3.265139 -2.464557 0.671232 0
M  V30 23 C -4.066635 -3.051683 -0.287092 0
M  V30 24 C -3.979022 -4.394439 -0.563462 0
M  V30 25 C -3.082579 -5.182721 0.116723 0
M  V30 26 O -2.974307 -6.555198 -0.148179 0
M  V30 27 C -2.257844 -4.624007 1.091215 0
M  V30 28 C -2.366091 -3.275091 1.348970 0
M  V30 29 F -1.516815 -2.854971 2.328772 0
M  V30 30 N -2.055053 -0.324609 1.044320 0
M  V30 31 C 3.333549 -0.765191 0.413479 0
M  V30 32 H 0.958906 -1.585223 2.514728 0
M  V30 33 H 2.480424 -1.139259 3.042690 0
M  V30 34 H 2.883727 -2.531493 1.422511 0
M  V30 35 H 0.251636 -1.857943 0.610178 0
M  V30 36 H 1.226440 -3.220002 0.109397 0
M  V30 37 H 1.716532 -2.349446 -1.910390 0
M  V30 38 H 0.184127 -1.546656 -1.640236 0
M  V30 39 H 2.334594 -0.271617 -2.447655 0
M  V30 40 H 1.015744 0.541768 -1.722454 0
M  V30 41 H 3.761373 0.462767 -1.173976 0
M  V30 42 H 4.732612 2.232765 -0.451945 0
M  V30 43 H 4.814724 4.406889 0.449016 0
M  V30 44 H 0.969094 4.027766 1.801587 0
M  V30 45 H 0.348377 0.526863 0.513848 0
M  V30 46 H -3.260773 2.472809 2.330251 0
M  V30 47 H -5.274529 1.164202 2.433903 0
M  V30 48 H -4.733252 -2.344850 -0.762364 0
M  V30 49 H -4.628425 -4.800497 -1.321774 0
M  V30 50 H -2.096569 -6.942396 -0.526800 0
M  V30 51 H -1.562316 -5.295113 1.602918 0
M  V30 52 H 4.002124 -1.458195 -0.194105 0
M  V30 53 H 3.950098 -0.345849 1.253033 0
M  V30 END ATOM
M  V30 BEGIN BOND
M  V30 1 1 1 2
M  V30 2 1 2 3
M  V30 3 1 3 4
M  V30 4 1 4 5
M  V30 5 1 5 6
M  V30 6 1 6 7
M  V30 7 2 7 8
M  V30 8 1 8 9
M  V30 9 2 9 10
M  V30 10 1 10 11
M  V30 11 2 11 12
M  V30 12 1 12 13
M  V30 13 1 13 14
M  V30 14 2 14 15
M  V30 15 1 14 16
M  V30 16 2 16 17
M  V30 17 1 17 18
M  V30 18 2 18 19
M  V30 19 1 19 20
M  V30 20 1 19 21
M  V30 21 1 21 22
M  V30 22 2 22 23
M  V30 23 1 23 24
M  V30 24 2 24 25
M  V30 25 1 25 26
M  V30 26 1 25 27
M  V30 27 2 27 28
M  V30 28 1 28 29
M  V30 29 2 21 30
M  V30 30 1 6 31
M  V30 31 1 31 2
M  V30 32 1 12 7
M  V30 33 1 30 16
M  V30 34 1 28 22
M  V30 35 1 1 32
M  V30 36 1 1 33
M  V30 37 1 2 34 CFG=1
M  V30 38 1 3 35
M  V30 39 1 3 36
M  V30 40 1 4 37
M  V30 41 1 4 38
M  V30 42 1 5 39
M  V30 43 1 5 40
M  V30 44 1 6 41 CFG=3
M  V30 45 1 8 42
M  V30 46 1 9 43
M  V30 47 1 11 44
M  V30 48 1 13 45
M  V30 49 1 17 46
M  V30 50 1 18 47
M  V30 51 1 23 48
M  V30 52 1 24 49
M  V30 53 1 26 50
M  V30 54 1 27 51
M  V30 55 1 31 52
M  V30 56 1 31 53
M  V30 END BOND
M  V30 END CTAB
M  END
>  <Dataset>  (188) 
ChEMBL_Kinases

>  <Ligand_Instance>  (188) 
nan

>  <PDB_ID>  (188) 
nan

>  <Standardized_SMILES>  (188) 
N[C@H]1CCC[C@@H](c2ccncc2NC(=O)c2ccc(F)c(-c3ccc(O)cc3F)n2)C1

>  <Name>  (188) 
nan

>  <Pocket>  (188) 
nan

>  <ATP_Site>  (188) 
nan

>  <Peripheral>  (188) 
nan

>  <Num_H_Atoms_ProtBoundConf>  (188) 
nan

>  <Num_Resolved_Atoms>  (188) 
nan

>  <Num_Not_Resolved_Atoms>  (188) 
nan

$$$$
CHEMBL3958862
     RDKit          3D

  0  0  0  0  0  0  0  0  0  0999 V3000
M  V30 BEGIN CTAB
M  V30 COUNTS 52 57 0 0 0
M  V30 BEGIN ATOM
M  V30 1 C 5.648340 -0.681838 4.134137 0
M  V30 2 C 5.542386 -1.005515 2.651212 0 CFG=1
M  V30 3 N 5.504890 -2.427849 2.494473 0
M  V30 4 C 4.265966 -2.856684 1.934180 0
M  V30 5 O 3.886033 -4.014744 1.660542 0
M  V30 6 C 3.518752 -1.607537 1.745807 0
M  V30 7 C 2.332857 -1.093680 1.301192 0
M  V30 8 C 2.308448 0.267986 1.426059 0
M  V30 9 C 1.297437 1.262971 1.102298 0
M  V30 10 C 1.562011 2.594110 1.344961 0
M  V30 11 C 0.651394 3.600917 1.064393 0
M  V30 12 C -0.561139 3.236868 0.521623 0
M  V30 13 C -0.894811 1.927594 0.252262 0
M  V30 14 C -2.100035 1.541054 -0.289280 0
M  V30 15 O -2.861522 2.514734 -0.512098 0
M  V30 16 N -2.313331 0.246652 -0.506379 0
M  V30 17 C -3.614653 -0.040591 -1.067238 0
M  V30 18 C -4.767428 0.772780 -0.411486 0
M  V30 19 C -4.677648 -0.696253 -0.305182 0
M  V30 20 C -1.414758 -0.709978 -0.227082 0
M  V30 21 N -1.625035 -2.079194 -0.473473 0
M  V30 22 C -2.606123 -2.948085 -1.006353 0
M  V30 23 C -2.948899 -2.683055 -2.480847 0
M  V30 24 C -2.352457 -4.460831 -0.787010 0
M  V30 25 C -3.509773 -3.799931 -0.197092 0
M  V30 26 N -0.258136 -0.278697 0.298961 0
M  V30 27 C 0.062337 0.990659 0.559195 0
M  V30 28 N 3.500601 0.593693 1.956565 0
M  V30 29 C 4.231369 -0.500692 2.153400 0
M  V30 30 H 6.442128 0.083648 4.241146 0
M  V30 31 H 5.840152 -1.603785 4.720338 0
M  V30 32 H 4.720202 -0.239079 4.508441 0
M  V30 33 H 6.330066 -0.503094 2.064869 0
M  V30 34 H 6.308396 -3.030942 2.770451 0
M  V30 35 H 1.526144 -1.692267 0.904696 0
M  V30 36 H 2.486507 2.973746 1.768929 0
M  V30 37 H 0.840290 4.640320 1.246478 0
M  V30 38 H -1.287838 4.011721 0.294879 0
M  V30 39 H -3.662285 0.090448 -2.170594 0
M  V30 40 H -4.554258 1.347318 0.496833 0
M  V30 41 H -5.574204 1.146246 -1.037778 0
M  V30 42 H -5.396390 -1.349265 -0.855196 0
M  V30 43 H -4.359094 -1.174830 0.667393 0
M  V30 44 H -0.782306 -2.658434 -0.169138 0
M  V30 45 H -4.018199 -2.434033 -2.621160 0
M  V30 46 H -2.351451 -1.861903 -2.896479 0
M  V30 47 H -2.700437 -3.568546 -3.123991 0
M  V30 48 H -2.537601 -5.161996 -1.596326 0
M  V30 49 H -1.512726 -4.708822 -0.087986 0
M  V30 50 H -4.552098 -3.887103 -0.582137 0
M  V30 51 H -3.523368 -3.537585 0.893463 0
M  V30 52 H 3.875636 1.556832 2.208819 0
M  V30 END ATOM
M  V30 BEGIN BOND
M  V30 1 1 1 2
M  V30 2 1 2 3
M  V30 3 1 3 4
M  V30 4 2 4 5
M  V30 5 1 4 6
M  V30 6 1 6 7
M  V30 7 2 7 8
M  V30 8 1 8 9
M  V30 9 2 9 10
M  V30 10 1 10 11
M  V30 11 2 11 12
M  V30 12 1 12 13
M  V30 13 1 13 14
M  V30 14 2 14 15
M  V30 15 1 14 16
M  V30 16 1 16 17
M  V30 17 1 17 18
M  V30 18 1 18 19
M  V30 19 1 16 20
M  V30 20 1 20 21
M  V30 21 1 21 22
M  V30 22 1 22 23
M  V30 23 1 22 24
M  V30 24 1 24 25
M  V30 25 2 20 26
M  V30 26 1 26 27
M  V30 27 1 8 28
M  V30 28 1 28 29
M  V30 29 1 29 2
M  V30 30 2 29 6
M  V30 31 1 27 9
M  V30 32 2 27 13
M  V30 33 1 19 17
M  V30 34 1 25 22
M  V30 35 1 1 30
M  V30 36 1 1 31
M  V30 37 1 1 32
M  V30 38 1 2 33 CFG=3
M  V30 39 1 3 34
M  V30 40 1 7 35
M  V30 41 1 10 36
M  V30 42 1 11 37
M  V30 43 1 12 38
M  V30 44 1 17 39
M  V30 45 1 18 40
M  V30 46 1 18 41
M  V30 47 1 19 42
M  V30 48 1 19 43
M  V30 49 1 21 44
M  V30 50 1 23 45
M  V30 51 1 23 46
M  V30 52 1 23 47
M  V30 53 1 24 48
M  V30 54 1 24 49
M  V30 55 1 25 50
M  V30 56 1 25 51
M  V30 57 1 28 52
M  V30 END BOND
M  V30 END CTAB
M  END
>  <Dataset>  (189) 
ChEMBL_Kinases

>  <Ligand_Instance>  (189) 
nan

>  <PDB_ID>  (189) 
nan

>  <Standardized_SMILES>  (189) 
C[C@H]1NC(=O)c2cc(-c3cccc4c(=O)n(C5CC5)c(NC5(C)CC5)nc34)[nH]c21

>  <Name>  (189) 
nan

>  <Pocket>  (189) 
nan

>  <ATP_Site>  (189) 
nan

>  <Peripheral>  (189) 
nan

>  <Num_H_Atoms_ProtBoundConf>  (189) 
nan

>  <Num_Resolved_Atoms>  (189) 
nan

>  <Num_Not_Resolved_Atoms>  (189) 
nan

$$$$
CHEMBL3649658
     RDKit          3D

  0  0  0  0  0  0  0  0  0  0999 V3000
M  V30 BEGIN CTAB
M  V30 COUNTS 50 54 0 0 0
M  V30 BEGIN ATOM
M  V30 1 C -1.154059 -2.586408 -1.487183 0
M  V30 2 N -1.560760 -2.845174 -0.098676 0
M  V30 3 C -1.940668 -1.715710 0.677277 0
M  V30 4 O -2.296056 -0.709095 0.017340 0
M  V30 5 C -1.981500 -1.545093 2.126845 0 CFG=2
M  V30 6 C -0.609405 -1.327723 2.720330 0
M  V30 7 C 0.083853 -0.142510 2.207713 0
M  V30 8 C 0.871784 -0.332157 1.089756 0
M  V30 9 C 1.581275 0.692556 0.499511 0
M  V30 10 C 1.521928 1.967347 1.022771 0
M  V30 11 C 2.189962 3.174082 0.550924 0
M  V30 12 C 2.811347 3.996172 1.498431 0
M  V30 13 C 3.456214 5.148783 1.097645 0
M  V30 14 N 3.512458 5.519232 -0.184946 0
M  V30 15 C 2.926475 4.752743 -1.118933 0
M  V30 16 N 2.808523 4.847248 -2.455974 0
M  V30 17 C 2.107323 3.799494 -2.969622 0
M  V30 18 C 1.774398 3.014389 -1.884800 0
M  V30 19 C 2.282502 3.609032 -0.752427 0
M  V30 20 C 0.734627 2.175006 2.146169 0
M  V30 21 C 0.031391 1.137504 2.723615 0
M  V30 22 N -2.592970 -2.655005 2.842159 0
M  V30 23 C -2.338715 -4.064175 2.668512 0
M  V30 24 O -2.598499 -4.712553 3.738526 0
M  V30 25 C -1.853988 -4.766780 1.489437 0
M  V30 26 C -1.783785 -6.110305 1.781637 0
M  V30 27 C -1.331801 -6.909449 0.735947 0
M  V30 28 Cl -1.212947 -8.650952 1.031877 0
M  V30 29 C -0.971507 -6.440013 -0.510137 0
M  V30 30 C -1.072286 -5.079153 -0.717936 0
M  V30 31 C -1.512054 -4.219595 0.268928 0
M  V30 32 H -0.086979 -2.773720 -1.665682 0
M  V30 33 H -1.849224 -3.023171 -2.222524 0
M  V30 34 H -1.256694 -1.473911 -1.661404 0
M  V30 35 H -2.578227 -0.656617 2.423731 0
M  V30 36 H 0.010059 -2.245526 2.538957 0
M  V30 37 H -0.656477 -1.248851 3.825780 0
M  V30 38 H 1.033904 -1.273161 0.545537 0
M  V30 39 H 2.213142 0.606275 -0.373929 0
M  V30 40 H 2.816357 3.773157 2.567754 0
M  V30 41 H 3.933786 5.777377 1.841002 0
M  V30 42 H 3.176573 5.591826 -3.085453 0
M  V30 43 H 1.858220 3.611994 -4.005126 0
M  V30 44 H 1.210119 2.098685 -1.962430 0
M  V30 45 H 0.601164 3.126661 2.655832 0
M  V30 46 H -0.604001 1.243281 3.608741 0
M  V30 47 H -3.321085 -2.461571 3.593658 0
M  V30 48 H -2.050189 -6.533517 2.731355 0
M  V30 49 H -0.628208 -7.119048 -1.277453 0
M  V30 50 H -0.803779 -4.683339 -1.663798 0
M  V30 END ATOM
M  V30 BEGIN BOND
M  V30 1 1 1 2
M  V30 2 1 2 3
M  V30 3 2 3 4
M  V30 4 1 3 5
M  V30 5 1 5 6
M  V30 6 1 6 7
M  V30 7 2 7 8
M  V30 8 1 8 9
M  V30 9 2 9 10
M  V30 10 1 10 11
M  V30 11 2 11 12
M  V30 12 1 12 13
M  V30 13 2 13 14
M  V30 14 1 14 15
M  V30 15 1 15 16
M  V30 16 1 16 17
M  V30 17 2 17 18
M  V30 18 1 18 19
M  V30 19 1 10 20
M  V30 20 2 20 21
M  V30 21 1 5 22
M  V30 22 1 22 23
M  V30 23 2 23 24
M  V30 24 1 23 25
M  V30 25 2 25 26
M  V30 26 1 26 27
M  V30 27 1 27 28
M  V30 28 2 27 29
M  V30 29 1 29 30
M  V30 30 2 30 31
M  V30 31 1 31 2
M  V30 32 1 21 7
M  V30 33 1 31 25
M  V30 34 1 19 11
M  V30 35 2 19 15
M  V30 36 1 1 32
M  V30 37 1 1 33
M  V30 38 1 1 34
M  V30 39 1 5 35 CFG=3
M  V30 40 1 6 36
M  V30 41 1 6 37
M  V30 42 1 8 38
M  V30 43 1 9 39
M  V30 44 1 12 40
M  V30 45 1 13 41
M  V30 46 1 16 42
M  V30 47 1 17 43
M  V30 48 1 18 44
M  V30 49 1 20 45
M  V30 50 1 21 46
M  V30 51 1 22 47
M  V30 52 1 26 48
M  V30 53 1 29 49
M  V30 54 1 30 50
M  V30 END BOND
M  V30 END CTAB
M  END
>  <Dataset>  (190) 
ChEMBL_Kinases

>  <Ligand_Instance>  (190) 
nan

>  <PDB_ID>  (190) 
nan

>  <Standardized_SMILES>  (190) 
CN1C(=O)[C@H](Cc2ccc(-c3ccnc4[nH]ccc34)cc2)NC(=O)c2cc(Cl)ccc21

>  <Name>  (190) 
nan

>  <Pocket>  (190) 
nan

>  <ATP_Site>  (190) 
nan

>  <Peripheral>  (190) 
nan

>  <Num_H_Atoms_ProtBoundConf>  (190) 
nan

>  <Num_Resolved_Atoms>  (190) 
nan

>  <Num_Not_Resolved_Atoms>  (190) 
nan

$$$$
CHEMBL3649659
     RDKit          3D

  0  0  0  0  0  0  0  0  0  0999 V3000
M  V30 BEGIN CTAB
M  V30 COUNTS 54 58 0 0 0
M  V30 BEGIN ATOM
M  V30 1 C 5.857093 -2.731314 5.337886 0
M  V30 2 O 4.968544 -3.605820 4.649622 0
M  V30 3 C 4.285831 -3.197117 3.510760 0
M  V30 4 C 3.436819 -4.086407 2.883849 0
M  V30 5 C 2.731663 -3.737756 1.749060 0
M  V30 6 C 2.889449 -2.458582 1.236362 0
M  V30 7 C 3.758473 -1.574749 1.893063 0
M  V30 8 C 4.474531 -1.913659 3.036835 0
M  V30 9 C 4.043460 -0.179321 1.483998 0
M  V30 10 O 5.094668 0.339214 1.947128 0
M  V30 11 N 3.225404 0.623348 0.609586 0
M  V30 12 C 1.829893 0.373120 0.233553 0 CFG=1
M  V30 13 C 1.171942 1.551979 -0.353046 0
M  V30 14 C -0.239845 1.320655 -0.735417 0
M  V30 15 C -1.181551 1.500374 0.284864 0
M  V30 16 C -2.541954 1.348086 0.135590 0
M  V30 17 C -3.038301 0.996370 -1.085749 0
M  V30 18 C -4.450841 0.800382 -1.385914 0
M  V30 19 C -4.922291 1.381705 -2.561265 0
M  V30 20 C -6.248820 1.271369 -2.963545 0
M  V30 21 N -7.096973 0.569073 -2.169715 0
M  V30 22 C -6.686812 -0.013963 -1.018641 0
M  V30 23 N -7.296569 -0.745833 -0.071146 0
M  V30 24 C -6.399071 -1.090392 0.897887 0
M  V30 25 C -5.177591 -0.551791 0.541729 0
M  V30 26 C -5.375471 0.104141 -0.636028 0
M  V30 27 C -2.139688 0.812461 -2.109294 0
M  V30 28 C -0.779455 0.966999 -1.952182 0
M  V30 29 C 1.783660 -0.877608 -0.524942 0
M  V30 30 O 1.475535 -1.120736 -1.722192 0
M  V30 31 N 2.121449 -2.163682 0.045087 0
M  V30 32 C 1.666802 -3.378604 -0.609251 0
M  V30 33 H 6.001803 -3.058619 6.386061 0
M  V30 34 H 6.830313 -2.616171 4.853275 0
M  V30 35 H 5.399727 -1.703539 5.439367 0
M  V30 36 H 3.289431 -5.102123 3.261508 0
M  V30 37 H 2.056982 -4.402430 1.227962 0
M  V30 38 H 5.121614 -1.186199 3.486468 0
M  V30 39 H 3.699762 1.465046 0.217159 0
M  V30 40 H 1.321972 0.190579 1.230042 0
M  V30 41 H 1.198084 2.365467 0.432123 0
M  V30 42 H 1.745922 2.012095 -1.198737 0
M  V30 43 H -0.861427 1.783127 1.292876 0
M  V30 44 H -3.224452 1.498915 0.954096 0
M  V30 45 H -4.306025 1.953888 -3.241048 0
M  V30 46 H -6.614252 1.723474 -3.877118 0
M  V30 47 H -8.318398 -1.025780 -0.056854 0
M  V30 48 H -6.586908 -1.680753 1.796311 0
M  V30 49 H -4.274484 -0.650602 1.104149 0
M  V30 50 H -2.420400 0.529909 -3.129607 0
M  V30 51 H -0.061166 0.837384 -2.743635 0
M  V30 52 H 2.492879 -4.121861 -0.738444 0
M  V30 53 H 0.743294 -3.783919 -0.198326 0
M  V30 54 H 1.416707 -3.083283 -1.667463 0
M  V30 END ATOM
M  V30 BEGIN BOND
M  V30 1 1 1 2
M  V30 2 1 2 3
M  V30 3 2 3 4
M  V30 4 1 4 5
M  V30 5 2 5 6
M  V30 6 1 6 7
M  V30 7 2 7 8
M  V30 8 1 7 9
M  V30 9 2 9 10
M  V30 10 1 9 11
M  V30 11 1 11 12
M  V30 12 1 12 13
M  V30 13 1 13 14
M  V30 14 2 14 15
M  V30 15 1 15 16
M  V30 16 2 16 17
M  V30 17 1 17 18
M  V30 18 2 18 19
M  V30 19 1 19 20
M  V30 20 2 20 21
M  V30 21 1 21 22
M  V30 22 1 22 23
M  V30 23 1 23 24
M  V30 24 2 24 25
M  V30 25 1 25 26
M  V30 26 1 17 27
M  V30 27 2 27 28
M  V30 28 1 12 29
M  V30 29 2 29 30
M  V30 30 1 29 31
M  V30 31 1 31 32
M  V30 32 1 8 3
M  V30 33 1 28 14
M  V30 34 1 31 6
M  V30 35 1 26 18
M  V30 36 2 26 22
M  V30 37 1 1 33
M  V30 38 1 1 34
M  V30 39 1 1 35
M  V30 40 1 4 36
M  V30 41 1 5 37
M  V30 42 1 8 38
M  V30 43 1 11 39
M  V30 44 1 12 40 CFG=1
M  V30 45 1 13 41
M  V30 46 1 13 42
M  V30 47 1 15 43
M  V30 48 1 16 44
M  V30 49 1 19 45
M  V30 50 1 20 46
M  V30 51 1 23 47
M  V30 52 1 24 48
M  V30 53 1 25 49
M  V30 54 1 27 50
M  V30 55 1 28 51
M  V30 56 1 32 52
M  V30 57 1 32 53
M  V30 58 1 32 54
M  V30 END BOND
M  V30 END CTAB
M  END
>  <Dataset>  (191) 
ChEMBL_Kinases

>  <Ligand_Instance>  (191) 
nan

>  <PDB_ID>  (191) 
nan

>  <Standardized_SMILES>  (191) 
COc1ccc2c(c1)C(=O)N[C@@H](Cc1ccc(-c3ccnc4[nH]ccc34)cc1)C(=O)N2C

>  <Name>  (191) 
nan

>  <Pocket>  (191) 
nan

>  <ATP_Site>  (191) 
nan

>  <Peripheral>  (191) 
nan

>  <Num_H_Atoms_ProtBoundConf>  (191) 
nan

>  <Num_Resolved_Atoms>  (191) 
nan

>  <Num_Not_Resolved_Atoms>  (191) 
nan

$$$$
CHEMBL3973432
     RDKit          3D

  0  0  0  0  0  0  0  0  0  0999 V3000
M  V30 BEGIN CTAB
M  V30 COUNTS 52 56 0 0 0
M  V30 BEGIN ATOM
M  V30 1 N 4.522998 -3.608748 2.356658 0
M  V30 2 C 3.477415 -3.001780 1.512988 0 CFG=2
M  V30 3 C 3.666116 -1.514011 1.402735 0
M  V30 4 N 2.674026 -0.758735 2.126518 0
M  V30 5 C 2.250604 0.490350 1.686144 0
M  V30 6 C 2.572487 1.544975 2.547329 0
M  V30 7 C 2.200421 2.840689 2.179449 0
M  V30 8 N 1.548031 3.105522 1.031897 0
M  V30 9 C 1.213521 2.116638 0.162811 0
M  V30 10 C 1.583794 0.844293 0.535320 0
M  V30 11 N 1.235826 -0.221566 -0.329644 0
M  V30 12 C 0.574073 -0.165485 -1.592241 0
M  V30 13 N 1.125826 -0.111096 -2.839008 0
M  V30 14 C 0.157015 -0.064514 -3.764934 0
M  V30 15 C -1.057924 -0.088233 -3.117475 0
M  V30 16 C -2.372043 -0.060665 -3.526812 0
M  V30 17 C -3.434130 -0.092103 -2.679775 0
M  V30 18 C -3.074890 -0.155645 -1.327043 0
M  V30 19 C -3.979692 -0.196586 -0.200270 0
M  V30 20 C -4.460464 0.949540 0.442944 0
M  V30 21 F -4.053468 2.164496 -0.025972 0
M  V30 22 C -5.334041 0.872754 1.536285 0
M  V30 23 C -5.736742 -0.380718 1.998289 0
M  V30 24 C -5.301227 -1.568560 1.409247 0
M  V30 25 C -4.451960 -1.362096 0.350705 0
M  V30 26 F -3.993718 -2.503272 -0.268665 0
M  V30 27 N -1.772726 -0.182716 -0.926582 0
M  V30 28 N -0.770370 -0.149276 -1.813412 0
M  V30 29 C 2.220152 -1.466573 3.316805 0
M  V30 30 C 1.330184 -2.572709 2.790394 0
M  V30 31 C 2.118466 -3.463424 1.900623 0 CFG=1
M  V30 32 F 1.399471 -3.728397 0.726905 0
M  V30 33 H 5.427420 -3.332645 1.895266 0
M  V30 34 H 4.412066 -4.637027 2.204031 0
M  V30 35 H 3.704420 -3.498091 0.511653 0
M  V30 36 H 4.680390 -1.278486 1.852962 0
M  V30 37 H 3.679858 -1.295831 0.311461 0
M  V30 38 H 3.086829 1.508464 3.496578 0
M  V30 39 H 2.354197 3.777821 2.701740 0
M  V30 40 H 0.693055 2.297083 -0.762559 0
M  V30 41 H 1.376308 -1.236215 -0.231633 0
M  V30 42 H 0.298451 -0.016944 -4.818514 0
M  V30 43 H -2.626316 -0.005734 -4.592290 0
M  V30 44 H -4.488061 -0.075932 -2.888919 0
M  V30 45 H -5.702968 1.763745 2.031289 0
M  V30 46 H -6.416639 -0.475907 2.849213 0
M  V30 47 H -5.580991 -2.559737 1.725054 0
M  V30 48 H 3.098082 -1.890278 3.884425 0
M  V30 49 H 1.695571 -0.819672 4.046023 0
M  V30 50 H 0.799532 -3.104636 3.611553 0
M  V30 51 H 0.542564 -2.060706 2.175631 0
M  V30 52 H 2.253541 -4.468162 2.378510 0
M  V30 END ATOM
M  V30 BEGIN BOND
M  V30 1 1 1 2
M  V30 2 1 2 3
M  V30 3 1 3 4
M  V30 4 1 4 5
M  V30 5 2 5 6
M  V30 6 1 6 7
M  V30 7 2 7 8
M  V30 8 1 8 9
M  V30 9 2 9 10
M  V30 10 1 10 11
M  V30 11 1 11 12
M  V30 12 2 12 13
M  V30 13 1 13 14
M  V30 14 2 14 15
M  V30 15 1 15 16
M  V30 16 2 16 17
M  V30 17 1 17 18
M  V30 18 1 18 19
M  V30 19 2 19 20
M  V30 20 1 20 21
M  V30 21 1 20 22
M  V30 22 2 22 23
M  V30 23 1 23 24
M  V30 24 2 24 25
M  V30 25 1 25 26
M  V30 26 2 18 27
M  V30 27 1 27 28
M  V30 28 1 4 29
M  V30 29 1 29 30
M  V30 30 1 30 31
M  V30 31 1 31 32
M  V30 32 1 31 2
M  V30 33 1 10 5
M  V30 34 1 28 12
M  V30 35 1 28 15
M  V30 36 1 25 19
M  V30 37 1 1 33
M  V30 38 1 1 34
M  V30 39 1 2 35 CFG=3
M  V30 40 1 3 36
M  V30 41 1 3 37
M  V30 42 1 6 38
M  V30 43 1 7 39
M  V30 44 1 9 40
M  V30 45 1 11 41
M  V30 46 1 14 42
M  V30 47 1 16 43
M  V30 48 1 17 44
M  V30 49 1 22 45
M  V30 50 1 23 46
M  V30 51 1 24 47
M  V30 52 1 29 48
M  V30 53 1 29 49
M  V30 54 1 30 50
M  V30 55 1 30 51
M  V30 56 1 31 52 CFG=1
M  V30 END BOND
M  V30 END CTAB
M  END
>  <Dataset>  (192) 
ChEMBL_Kinases

>  <Ligand_Instance>  (192) 
nan

>  <PDB_ID>  (192) 
nan

>  <Standardized_SMILES>  (192) 
N[C@@H]1CN(c2ccncc2Nc2ncc3ccc(-c4c(F)cccc4F)nn23)CC[C@H]1F

>  <Name>  (192) 
nan

>  <Pocket>  (192) 
nan

>  <ATP_Site>  (192) 
nan

>  <Peripheral>  (192) 
nan

>  <Num_H_Atoms_ProtBoundConf>  (192) 
nan

>  <Num_Resolved_Atoms>  (192) 
nan

>  <Num_Not_Resolved_Atoms>  (192) 
nan

$$$$
CHEMBL3652645
     RDKit          3D

  0  0  0  0  0  0  0  0  0  0999 V3000
M  V30 BEGIN CTAB
M  V30 COUNTS 57 60 0 0 0
M  V30 BEGIN ATOM
M  V30 1 C 3.647462 -1.641810 4.076215 0
M  V30 2 N 3.705410 -1.793268 2.636248 0
M  V30 3 C 2.991287 -2.997385 2.188801 0 CFG=1
M  V30 4 C 1.555077 -2.963195 2.578481 0
M  V30 5 C 0.602142 -3.323514 1.473061 0
M  V30 6 C 0.349641 -2.235444 0.478125 0
M  V30 7 N 1.356795 -2.122567 -0.526789 0
M  V30 8 C 1.075955 -2.006497 -1.928450 0
M  V30 9 C 0.101338 -1.239200 -2.536354 0
M  V30 10 N -0.826322 -0.381788 -1.925794 0
M  V30 11 C -1.815232 0.451972 -2.523133 0
M  V30 12 O -1.874886 0.426512 -3.781423 0
M  V30 13 C -2.722377 1.300442 -1.759626 0
M  V30 14 N -2.797288 1.390229 -0.457768 0
M  V30 15 C -3.466483 2.013748 0.217840 0
M  V30 16 C -3.688563 2.236410 1.702728 0
M  V30 17 C -2.908233 1.512101 2.579901 0
M  V30 18 F -2.002107 0.662011 2.039282 0
M  V30 19 C -3.145465 1.742627 3.919656 0
M  V30 20 C -4.092276 2.630572 4.350181 0
M  V30 21 C -4.876443 3.358273 3.449074 0
M  V30 22 C -4.648552 3.137014 2.108608 0
M  V30 23 F -5.403826 3.840127 1.221913 0
M  V30 24 S -4.509657 2.949716 -1.056964 0
M  V30 25 C -3.634442 2.125118 -2.419701 0
M  V30 26 N -3.855558 2.303910 -3.878398 0
M  V30 27 C 0.158253 -1.428386 -3.904611 0
M  V30 28 N 1.160222 -2.301358 -4.099078 0
M  V30 29 N 1.698605 -2.641039 -2.940358 0
M  V30 30 C 2.797531 -3.589067 -2.910765 0
M  V30 31 C 2.756420 -2.082811 -0.131414 0
M  V30 32 C 3.202180 -3.215966 0.710340 0
M  V30 33 H 3.084057 -2.424733 4.581405 0
M  V30 34 H 3.278433 -0.610894 4.297277 0
M  V30 35 H 4.675428 -1.656900 4.543782 0
M  V30 36 H 4.712736 -1.848541 2.383229 0
M  V30 37 H 3.475382 -3.843649 2.712461 0
M  V30 38 H 1.354859 -3.665770 3.412711 0
M  V30 39 H 1.326806 -1.959047 2.985359 0
M  V30 40 H -0.393158 -3.493716 1.989585 0
M  V30 41 H 0.818555 -4.293098 0.998325 0
M  V30 42 H 0.220725 -1.269175 1.020120 0
M  V30 43 H -0.595276 -2.509215 -0.041422 0
M  V30 44 H -0.841009 -0.297315 -0.872660 0
M  V30 45 H -2.514405 1.153935 4.586573 0
M  V30 46 H -4.171734 2.711860 5.434618 0
M  V30 47 H -5.609523 4.046018 3.845083 0
M  V30 48 H -4.582525 1.605206 -4.214827 0
M  V30 49 H -3.344489 3.028052 -4.445419 0
M  V30 50 H -0.389716 -1.048744 -4.755442 0
M  V30 51 H 2.853261 -4.187748 -1.993851 0
M  V30 52 H 3.777736 -3.086234 -3.163021 0
M  V30 53 H 2.686032 -4.343429 -3.749544 0
M  V30 54 H 2.945725 -1.079895 0.323817 0
M  V30 55 H 3.362225 -2.066627 -1.059302 0
M  V30 56 H 2.738658 -4.144379 0.389580 0
M  V30 57 H 4.302624 -3.347199 0.532830 0
M  V30 END ATOM
M  V30 BEGIN BOND
M  V30 1 1 1 2
M  V30 2 1 2 3
M  V30 3 1 3 4
M  V30 4 1 4 5
M  V30 5 1 5 6
M  V30 6 1 6 7
M  V30 7 1 7 8
M  V30 8 2 8 9
M  V30 9 1 9 10
M  V30 10 1 10 11
M  V30 11 2 11 12
M  V30 12 1 11 13
M  V30 13 1 13 14
M  V30 14 2 14 15
M  V30 15 1 15 16
M  V30 16 2 16 17
M  V30 17 1 17 18
M  V30 18 1 17 19
M  V30 19 2 19 20
M  V30 20 1 20 21
M  V30 21 2 21 22
M  V30 22 1 22 23
M  V30 23 1 15 24
M  V30 24 1 24 25
M  V30 25 1 25 26
M  V30 26 1 9 27
M  V30 27 2 27 28
M  V30 28 1 28 29
M  V30 29 1 29 30
M  V30 30 1 7 31
M  V30 31 1 31 32
M  V30 32 1 32 3
M  V30 33 1 29 8
M  V30 34 2 25 13
M  V30 35 1 22 16
M  V30 36 1 1 33
M  V30 37 1 1 34
M  V30 38 1 1 35
M  V30 39 1 2 36
M  V30 40 1 3 37 CFG=1
M  V30 41 1 4 38
M  V30 42 1 4 39
M  V30 43 1 5 40
M  V30 44 1 5 41
M  V30 45 1 6 42
M  V30 46 1 6 43
M  V30 47 1 10 44
M  V30 48 1 19 45
M  V30 49 1 20 46
M  V30 50 1 21 47
M  V30 51 1 26 48
M  V30 52 1 26 49
M  V30 53 1 27 50
M  V30 54 1 30 51
M  V30 55 1 30 52
M  V30 56 1 30 53
M  V30 57 1 31 54
M  V30 58 1 31 55
M  V30 59 1 32 56
M  V30 60 1 32 57
M  V30 END BOND
M  V30 END CTAB
M  END
>  <Dataset>  (193) 
ChEMBL_Kinases

>  <Ligand_Instance>  (193) 
nan

>  <PDB_ID>  (193) 
nan

>  <Standardized_SMILES>  (193) 
CN[C@H]1CCCN(c2c(NC(=O)c3nc(-c4c(F)cccc4F)sc3N)cnn2C)CC1

>  <Name>  (193) 
nan

>  <Pocket>  (193) 
nan

>  <ATP_Site>  (193) 
nan

>  <Peripheral>  (193) 
nan

>  <Num_H_Atoms_ProtBoundConf>  (193) 
nan

>  <Num_Resolved_Atoms>  (193) 
nan

>  <Num_Not_Resolved_Atoms>  (193) 
nan

$$$$
CHEMBL397332
     RDKit          3D

  0  0  0  0  0  0  0  0  0  0999 V3000
M  V30 BEGIN CTAB
M  V30 COUNTS 41 44 0 0 0
M  V30 BEGIN ATOM
M  V30 1 C -0.447380 -3.281493 -0.609752 0
M  V30 2 C 0.703597 -3.188300 -1.586165 0
M  V30 3 C 0.908090 -4.469191 -2.304537 0
M  V30 4 N 2.230793 -5.028491 -2.213469 0
M  V30 5 C 3.339547 -4.591517 -1.440288 0
M  V30 6 O 4.422703 -5.230591 -1.424141 0
M  V30 7 C 3.127382 -3.368542 -0.682145 0
M  V30 8 N 3.906420 -2.660651 0.139127 0
M  V30 9 C 3.209676 -1.599512 0.579620 0
M  V30 10 C 3.535586 -0.564474 1.435696 0
M  V30 11 C 2.648041 0.456491 1.767445 0
M  V30 12 C 1.383796 0.422533 1.207763 0
M  V30 13 C 0.445260 1.491116 1.550720 0
M  V30 14 O 0.861500 2.376182 2.341560 0
M  V30 15 N -0.861814 1.565977 1.047727 0
M  V30 16 C -1.519983 2.754083 1.592456 0
M  V30 17 N -2.291648 2.650606 2.894775 0
M  V30 18 C -2.752328 3.868707 3.104671 0
M  V30 19 C -3.520875 3.890478 4.346076 0
M  V30 20 N -3.873509 2.946225 5.338936 0
M  V30 21 O -4.082692 4.915466 4.805956 0
M  V30 22 C -2.613075 5.070455 2.345004 0
M  V30 23 S -1.614929 4.350878 1.038888 0
M  V30 24 C 1.064269 -0.614284 0.353183 0
M  V30 25 C 1.929542 -1.623668 0.020039 0
M  V30 26 C 1.898411 -2.752857 -0.776321 0
M  V30 27 H -0.875569 -4.319238 -0.579225 0
M  V30 28 H -0.152022 -3.080123 0.441544 0
M  V30 29 H -1.259446 -2.562159 -0.840213 0
M  V30 30 H 0.436294 -2.392258 -2.309479 0
M  V30 31 H 0.717036 -4.316231 -3.386962 0
M  V30 32 H 0.126391 -5.211724 -1.990093 0
M  V30 33 H 2.366463 -5.884929 -2.818877 0
M  V30 34 H 4.898929 -2.941669 0.365101 0
M  V30 35 H 4.540051 -0.586168 1.846605 0
M  V30 36 H 2.952592 1.229872 2.433008 0
M  V30 37 H -1.218236 0.857594 0.404981 0
M  V30 38 H -4.698274 2.309120 5.385183 0
M  V30 39 H -3.401734 2.677700 6.229278 0
M  V30 40 H -3.001844 5.973534 2.577444 0
M  V30 41 H 0.085826 -0.634998 -0.076034 0
M  V30 END ATOM
M  V30 BEGIN BOND
M  V30 1 1 1 2
M  V30 2 1 2 3
M  V30 3 1 3 4
M  V30 4 1 4 5
M  V30 5 2 5 6
M  V30 6 1 5 7
M  V30 7 1 7 8
M  V30 8 1 8 9
M  V30 9 2 9 10
M  V30 10 1 10 11
M  V30 11 2 11 12
M  V30 12 1 12 13
M  V30 13 2 13 14
M  V30 14 1 13 15
M  V30 15 1 15 16
M  V30 16 2 16 17
M  V30 17 1 17 18
M  V30 18 1 18 19
M  V30 19 1 19 20
M  V30 20 2 19 21
M  V30 21 2 18 22
M  V30 22 1 22 23
M  V30 23 1 12 24
M  V30 24 2 24 25
M  V30 25 1 25 26
M  V30 26 1 26 2
M  V30 27 2 26 7
M  V30 28 1 25 9
M  V30 29 1 23 16
M  V30 30 1 1 27
M  V30 31 1 1 28
M  V30 32 1 1 29
M  V30 33 1 2 30
M  V30 34 1 3 31
M  V30 35 1 3 32
M  V30 36 1 4 33
M  V30 37 1 8 34
M  V30 38 1 10 35
M  V30 39 1 11 36
M  V30 40 1 15 37
M  V30 41 1 20 38
M  V30 42 1 20 39
M  V30 43 1 22 40
M  V30 44 1 24 41
M  V30 END BOND
M  V30 END CTAB
M  END
>  <Dataset>  (194) 
ChEMBL_Kinases

>  <Ligand_Instance>  (194) 
nan

>  <PDB_ID>  (194) 
nan

>  <Standardized_SMILES>  (194) 
CC1CNC(=O)c2[nH]c3ccc(C(=O)Nc4nc(C(N)=O)cs4)cc3c21

>  <Name>  (194) 
nan

>  <Pocket>  (194) 
nan

>  <ATP_Site>  (194) 
nan

>  <Peripheral>  (194) 
nan

>  <Num_H_Atoms_ProtBoundConf>  (194) 
nan

>  <Num_Resolved_Atoms>  (194) 
nan

>  <Num_Not_Resolved_Atoms>  (194) 
nan

$$$$
CHEMBL3972685
     RDKit          3D

  0  0  0  0  0  0  0  0  0  0999 V3000
M  V30 BEGIN CTAB
M  V30 COUNTS 74 78 0 0 0
M  V30 BEGIN ATOM
M  V30 1 C 4.223295 -1.567838 4.664455 0
M  V30 2 C 5.291050 -2.154015 3.846583 0
M  V30 3 O 6.041750 -3.052262 4.298645 0
M  V30 4 O 5.609128 -1.833769 2.556846 0
M  V30 5 C 6.648203 -2.427455 1.809957 0
M  V30 6 O 6.622452 -1.802448 0.532988 0
M  V30 7 C 6.815728 -0.410352 0.474587 0
M  V30 8 O 7.011179 0.321161 1.473307 0
M  V30 9 N 6.758381 0.060757 -0.887670 0
M  V30 10 C 6.541042 -0.679967 -2.097146 0
M  V30 11 C 5.460828 -0.098293 -2.986346 0
M  V30 12 N 4.725314 0.867105 -2.197593 0
M  V30 13 C 3.386630 0.756078 -1.743886 0
M  V30 14 C 2.626279 -0.369785 -1.937667 0
M  V30 15 C 1.329643 -0.371060 -1.450758 0
M  V30 16 C 0.722696 0.668231 -0.780071 0
M  V30 17 N -0.597603 0.680959 -0.270799 0
M  V30 18 C -1.581926 -0.340477 -0.324600 0
M  V30 19 N -1.388581 -1.522402 -0.906427 0
M  V30 20 C -2.345622 -2.452989 -0.924474 0
M  V30 21 C -3.574354 -2.234797 -0.343534 0
M  V30 22 C -4.520394 -3.237468 -0.394703 0
M  V30 23 C -4.316742 -4.543340 -1.033867 0
M  V30 24 C -5.731789 -2.929269 0.220377 0
M  V30 25 C -6.799945 -3.920899 0.223437 0
M  V30 26 C -7.941399 -4.309478 -0.617234 0
M  V30 27 O -6.638223 -4.614411 1.283828 0
M  V30 28 C -5.870754 -1.687562 0.805953 0
M  V30 29 O -6.987460 -1.474706 1.342446 0
M  V30 30 N -4.934260 -0.723378 0.843970 0
M  V30 31 C -5.085423 0.556220 1.448839 0
M  V30 32 C -6.366498 0.806790 2.161591 0
M  V30 33 C -6.180278 2.282139 2.557019 0
M  V30 34 C -5.432443 2.882713 1.360428 0
M  V30 35 C -5.065723 1.717102 0.461394 0
M  V30 36 C -3.741157 -1.007452 0.246917 0
M  V30 37 N -2.767283 -0.094889 0.250214 0
M  V30 38 N 1.529794 1.729596 -0.631749 0
M  V30 39 C 2.790264 1.798265 -1.076153 0
M  V30 40 C 5.653369 1.959262 -1.961106 0
M  V30 41 C 6.916382 1.447214 -1.287082 0
M  V30 42 H 3.562133 -0.896212 4.065653 0
M  V30 43 H 4.672904 -0.980028 5.477269 0
M  V30 44 H 3.545645 -2.372664 5.067952 0
M  V30 45 H 6.487777 -3.516188 1.645212 0
M  V30 46 H 7.633805 -2.296007 2.275684 0
M  V30 47 H 7.494413 -0.789922 -2.659898 0
M  V30 48 H 6.201807 -1.693552 -1.790567 0
M  V30 49 H 5.937344 0.370389 -3.886080 0
M  V30 50 H 4.774116 -0.917990 -3.332319 0
M  V30 51 H 3.009061 -1.229305 -2.446193 0
M  V30 52 H 0.781735 -1.267786 -1.627293 0
M  V30 53 H -0.863205 1.588672 0.211587 0
M  V30 54 H -2.170260 -3.409134 -1.402923 0
M  V30 55 H -3.315042 -4.985194 -0.793404 0
M  V30 56 H -4.431371 -4.423384 -2.122515 0
M  V30 57 H -5.049921 -5.248384 -0.591035 0
M  V30 58 H -8.136958 -3.620545 -1.452968 0
M  V30 59 H -7.790458 -5.346089 -0.985632 0
M  V30 60 H -8.850200 -4.319247 0.006579 0
M  V30 61 H -4.263577 0.753079 2.167965 0
M  V30 62 H -6.461154 0.247425 3.095456 0
M  V30 63 H -7.272346 0.819776 1.520484 0
M  V30 64 H -7.156612 2.814887 2.616120 0
M  V30 65 H -5.650319 2.398379 3.499661 0
M  V30 66 H -6.078135 3.591669 0.793485 0
M  V30 67 H -4.477133 3.342776 1.690002 0
M  V30 68 H -5.894445 1.506305 -0.253543 0
M  V30 69 H -4.104444 1.845800 -0.046558 0
M  V30 70 H 3.255769 2.732402 -0.853537 0
M  V30 71 H 5.184130 2.767986 -1.382368 0
M  V30 72 H 5.925076 2.396815 -2.948341 0
M  V30 73 H 7.793187 1.536260 -1.958717 0
M  V30 74 H 7.107340 2.110976 -0.418667 0
M  V30 END ATOM
M  V30 BEGIN BOND
M  V30 1 1 1 2
M  V30 2 2 2 3
M  V30 3 1 2 4
M  V30 4 1 4 5
M  V30 5 1 5 6
M  V30 6 1 6 7
M  V30 7 2 7 8
M  V30 8 1 7 9
M  V30 9 1 9 10
M  V30 10 1 10 11
M  V30 11 1 11 12
M  V30 12 1 12 13
M  V30 13 2 13 14
M  V30 14 1 14 15
M  V30 15 2 15 16
M  V30 16 1 16 17
M  V30 17 1 17 18
M  V30 18 2 18 19
M  V30 19 1 19 20
M  V30 20 2 20 21
M  V30 21 1 21 22
M  V30 22 1 22 23
M  V30 23 2 22 24
M  V30 24 1 24 25
M  V30 25 1 25 26
M  V30 26 2 25 27
M  V30 27 1 24 28
M  V30 28 2 28 29
M  V30 29 1 28 30
M  V30 30 1 30 31
M  V30 31 1 31 32
M  V30 32 1 32 33
M  V30 33 1 33 34
M  V30 34 1 34 35
M  V30 35 1 30 36
M  V30 36 2 36 37
M  V30 37 1 16 38
M  V30 38 2 38 39
M  V30 39 1 12 40
M  V30 40 1 40 41
M  V30 41 1 41 9
M  V30 42 1 39 13
M  V30 43 1 37 18
M  V30 44 1 36 21
M  V30 45 1 35 31
M  V30 46 1 1 42
M  V30 47 1 1 43
M  V30 48 1 1 44
M  V30 49 1 5 45
M  V30 50 1 5 46
M  V30 51 1 10 47
M  V30 52 1 10 48
M  V30 53 1 11 49
M  V30 54 1 11 50
M  V30 55 1 14 51
M  V30 56 1 15 52
M  V30 57 1 17 53
M  V30 58 1 20 54
M  V30 59 1 23 55
M  V30 60 1 23 56
M  V30 61 1 23 57
M  V30 62 1 26 58
M  V30 63 1 26 59
M  V30 64 1 26 60
M  V30 65 1 31 61
M  V30 66 1 32 62
M  V30 67 1 32 63
M  V30 68 1 33 64
M  V30 69 1 33 65
M  V30 70 1 34 66
M  V30 71 1 34 67
M  V30 72 1 35 68
M  V30 73 1 35 69
M  V30 74 1 39 70
M  V30 75 1 40 71
M  V30 76 1 40 72
M  V30 77 1 41 73
M  V30 78 1 41 74
M  V30 END BOND
M  V30 END CTAB
M  END
>  <Dataset>  (195) 
ChEMBL_Kinases

>  <Ligand_Instance>  (195) 
nan

>  <PDB_ID>  (195) 
nan

>  <Standardized_SMILES>  (195) 
CC(=O)OCOC(=O)N1CCN(c2ccc(Nc3ncc4c(C)c(C(C)=O)c(=O)n(C5CCCC5)c4n3)nc2)CC1

>  <Name>  (195) 
nan

>  <Pocket>  (195) 
nan

>  <ATP_Site>  (195) 
nan

>  <Peripheral>  (195) 
nan

>  <Num_H_Atoms_ProtBoundConf>  (195) 
nan

>  <Num_Resolved_Atoms>  (195) 
nan

>  <Num_Not_Resolved_Atoms>  (195) 
nan

$$$$
CHEMBL3971812
     RDKit          3D

  0  0  0  0  0  0  0  0  0  0999 V3000
M  V30 BEGIN CTAB
M  V30 COUNTS 61 66 0 0 0
M  V30 BEGIN ATOM
M  V30 1 O 1.724402 -0.768383 5.462518 0
M  V30 2 C 2.094393 -1.538118 4.389808 0
M  V30 3 C 3.445419 -1.214808 3.816298 0
M  V30 4 C 3.498055 0.172945 3.147833 0
M  V30 5 C 2.127423 0.535358 2.780371 0
M  V30 6 N 1.874065 1.596116 1.886458 0
M  V30 7 C 2.693771 2.543818 1.410059 0
M  V30 8 C 4.024105 2.855404 1.591694 0
M  V30 9 N 4.665411 3.865831 1.016397 0
M  V30 10 C 4.012946 4.698881 0.168565 0
M  V30 11 C 2.676673 4.455731 -0.066328 0
M  V30 12 C 2.015178 3.384437 0.549068 0
M  V30 13 C 0.737946 2.904440 0.522893 0
M  V30 14 C -0.319226 3.418169 -0.200507 0
M  V30 15 N -1.512734 2.803183 -0.093132 0
M  V30 16 C -1.659933 1.712102 0.705794 0
M  V30 17 N -2.756797 0.860725 1.001045 0
M  V30 18 C -2.734536 -0.340557 0.239601 0
M  V30 19 C -1.733100 -0.612661 -0.682885 0
M  V30 20 C -1.700510 -1.797165 -1.422562 0
M  V30 21 C -2.678225 -2.756528 -1.261338 0
M  V30 22 N -2.754504 -4.001357 -1.937904 0
M  V30 23 C -3.864592 -4.893344 -1.726736 0
M  V30 24 C -3.910277 -5.871154 -2.875291 0
M  V30 25 N -3.692275 -5.203528 -4.138344 0
M  V30 26 C -2.461807 -4.484408 -4.236472 0
M  V30 27 C -1.769479 -4.509330 -2.870168 0
M  V30 28 C -3.652118 -2.446354 -0.337676 0
M  V30 29 N -3.668688 -1.300723 0.366399 0
M  V30 30 N -0.590569 1.274740 1.374131 0
M  V30 31 C 0.640926 1.801488 1.345699 0
M  V30 32 C 1.523081 -0.743794 2.169123 0
M  V30 33 C 1.023211 -1.570188 3.307845 0
M  V30 34 H 0.728901 -0.707558 5.483470 0
M  V30 35 H 2.176146 -2.592208 4.760136 0
M  V30 36 H 3.722892 -2.023516 3.108509 0
M  V30 37 H 4.160758 -1.270655 4.666342 0
M  V30 38 H 4.194556 0.014040 2.300756 0
M  V30 39 H 3.877833 0.827587 3.954720 0
M  V30 40 H 1.540236 0.720004 3.712872 0
M  V30 41 H 4.631364 2.273286 2.243599 0
M  V30 42 H 4.450335 5.555497 -0.353190 0
M  V30 43 H 2.128976 5.084747 -0.723945 0
M  V30 44 H -0.266149 4.268408 -0.842284 0
M  V30 45 H -3.539415 0.982701 1.664009 0
M  V30 46 H -0.939089 0.088990 -0.860298 0
M  V30 47 H -0.916603 -1.973923 -2.124012 0
M  V30 48 H -4.839884 -4.390193 -1.569498 0
M  V30 49 H -3.598550 -5.508997 -0.818199 0
M  V30 50 H -3.109121 -6.628817 -2.751535 0
M  V30 51 H -4.913880 -6.349943 -2.968876 0
M  V30 52 H -4.517153 -4.686895 -4.476160 0
M  V30 53 H -2.740686 -3.406030 -4.377830 0
M  V30 54 H -1.795423 -4.786349 -5.052295 0
M  V30 55 H -0.923231 -3.822046 -2.893194 0
M  V30 56 H -1.424938 -5.534370 -2.609842 0
M  V30 57 H -4.496167 -3.065293 -0.070993 0
M  V30 58 H 2.356061 -1.327180 1.664733 0
M  V30 59 H 0.825316 -0.521469 1.374803 0
M  V30 60 H 0.811447 -2.591766 2.937578 0
M  V30 61 H 0.070019 -1.119637 3.653802 0
M  V30 END ATOM
M  V30 BEGIN BOND
M  V30 1 1 1 2
M  V30 2 1 2 3
M  V30 3 1 3 4
M  V30 4 1 4 5
M  V30 5 1 5 6
M  V30 6 1 6 7
M  V30 7 2 7 8
M  V30 8 1 8 9
M  V30 9 2 9 10
M  V30 10 1 10 11
M  V30 11 2 11 12
M  V30 12 1 12 13
M  V30 13 2 13 14
M  V30 14 1 14 15
M  V30 15 2 15 16
M  V30 16 1 16 17
M  V30 17 1 17 18
M  V30 18 2 18 19
M  V30 19 1 19 20
M  V30 20 2 20 21
M  V30 21 1 21 22
M  V30 22 1 22 23
M  V30 23 1 23 24
M  V30 24 1 24 25
M  V30 25 1 25 26
M  V30 26 1 26 27
M  V30 27 1 21 28
M  V30 28 2 28 29
M  V30 29 1 16 30
M  V30 30 2 30 31
M  V30 31 1 5 32
M  V30 32 1 32 33
M  V30 33 1 33 2
M  V30 34 1 31 6
M  V30 35 1 12 7
M  V30 36 1 31 13
M  V30 37 1 29 18
M  V30 38 1 27 22
M  V30 39 1 1 34
M  V30 40 1 2 35
M  V30 41 1 3 36
M  V30 42 1 3 37
M  V30 43 1 4 38
M  V30 44 1 4 39
M  V30 45 1 5 40
M  V30 46 1 8 41
M  V30 47 1 10 42
M  V30 48 1 11 43
M  V30 49 1 14 44
M  V30 50 1 17 45
M  V30 51 1 19 46
M  V30 52 1 20 47
M  V30 53 1 23 48
M  V30 54 1 23 49
M  V30 55 1 24 50
M  V30 56 1 24 51
M  V30 57 1 25 52
M  V30 58 1 26 53
M  V30 59 1 26 54
M  V30 60 1 27 55
M  V30 61 1 27 56
M  V30 62 1 28 57
M  V30 63 1 32 58
M  V30 64 1 32 59
M  V30 65 1 33 60
M  V30 66 1 33 61
M  V30 END BOND
M  V30 END CTAB
M  END
>  <Dataset>  (196) 
ChEMBL_Kinases

>  <Ligand_Instance>  (196) 
nan

>  <PDB_ID>  (196) 
nan

>  <Standardized_SMILES>  (196) 
OC1CCC(n2c3cnccc3c3cnc(Nc4ccc(N5CCNCC5)cn4)nc32)CC1

>  <Name>  (196) 
nan

>  <Pocket>  (196) 
nan

>  <ATP_Site>  (196) 
nan

>  <Peripheral>  (196) 
nan

>  <Num_H_Atoms_ProtBoundConf>  (196) 
nan

>  <Num_Resolved_Atoms>  (196) 
nan

>  <Num_Not_Resolved_Atoms>  (196) 
nan

$$$$
CHEMBL3971170
     RDKit          3D

  0  0  0  0  0  0  0  0  0  0999 V3000
M  V30 BEGIN CTAB
M  V30 COUNTS 37 40 0 0 0
M  V30 BEGIN ATOM
M  V30 1 C 3.749936 -3.899597 4.191892 0
M  V30 2 O 4.105235 -3.429658 2.895565 0
M  V30 3 C 3.210995 -3.191610 1.876530 0
M  V30 4 N 2.523560 -4.275987 1.717831 0
M  V30 5 C 2.981421 -1.957759 1.036851 0
M  V30 6 N 3.454220 -1.238122 0.296561 0
M  V30 7 C 2.935869 -0.183889 -0.289358 0
M  V30 8 C 3.554136 0.665831 -1.189268 0
M  V30 9 C 2.848231 1.730190 -1.706486 0
M  V30 10 C 1.539861 2.057320 -1.415647 0
M  V30 11 N 0.837307 3.068782 -1.894344 0
M  V30 12 C -0.451938 3.246027 -1.497972 0
M  V30 13 N -1.015121 2.393816 -0.619153 0
M  V30 14 C -0.360507 1.342835 -0.090853 0
M  V30 15 N -1.046585 0.501221 0.831796 0
M  V30 16 C -2.266800 -0.221904 0.719358 0
M  V30 17 C -2.475138 -1.578642 0.823572 0
M  V30 18 C -3.720104 -2.139957 0.693019 0
M  V30 19 C -4.817601 -1.348573 0.449495 0
M  V30 20 Cl -6.351754 -2.187043 0.303249 0
M  V30 21 C -4.622381 0.011406 0.342980 0
M  V30 22 C -3.383244 0.582180 0.471779 0
M  V30 23 F -3.424894 1.932860 0.331457 0
M  V30 24 C 0.945735 1.181292 -0.505796 0
M  V30 25 C 1.641108 0.110225 0.020765 0
M  V30 26 S 1.235744 -1.156869 1.148545 0
M  V30 27 H 4.646712 -4.023144 4.834295 0
M  V30 28 H 3.033729 -3.194424 4.681313 0
M  V30 29 H 3.267331 -4.904187 4.116897 0
M  V30 30 H 1.764544 -4.408325 1.017622 0
M  V30 31 H 4.589160 0.600036 -1.565591 0
M  V30 32 H 3.310146 2.428328 -2.427083 0
M  V30 33 H -0.980008 4.094713 -1.924862 0
M  V30 34 H -0.786493 0.238294 1.807449 0
M  V30 35 H -1.585620 -2.150660 1.014029 0
M  V30 36 H -3.730481 -3.206497 0.798068 0
M  V30 37 H -5.558662 0.555066 0.148467 0
M  V30 END ATOM
M  V30 BEGIN BOND
M  V30 1 1 1 2
M  V30 2 1 2 3
M  V30 3 2 3 4 CFG=2
M  V30 4 1 3 5
M  V30 5 2 5 6
M  V30 6 1 6 7
M  V30 7 2 7 8
M  V30 8 1 8 9
M  V30 9 2 9 10
M  V30 10 1 10 11
M  V30 11 2 11 12
M  V30 12 1 12 13
M  V30 13 2 13 14
M  V30 14 1 14 15
M  V30 15 1 15 16
M  V30 16 2 16 17
M  V30 17 1 17 18
M  V30 18 2 18 19
M  V30 19 1 19 20
M  V30 20 1 19 21
M  V30 21 2 21 22
M  V30 22 1 22 23
M  V30 23 1 14 24
M  V30 24 2 24 25
M  V30 25 1 25 26
M  V30 26 1 26 5
M  V30 27 1 25 7
M  V30 28 1 24 10
M  V30 29 1 22 16
M  V30 30 1 1 27
M  V30 31 1 1 28
M  V30 32 1 1 29
M  V30 33 1 4 30
M  V30 34 1 8 31
M  V30 35 1 9 32
M  V30 36 1 12 33
M  V30 37 1 15 34
M  V30 38 1 17 35
M  V30 39 1 18 36
M  V30 40 1 21 37
M  V30 END BOND
M  V30 END CTAB
M  END
>  <Dataset>  (197) 
ChEMBL_Kinases

>  <Ligand_Instance>  (197) 
nan

>  <PDB_ID>  (197) 
nan

>  <Standardized_SMILES>  (197) 
COC(=N)c1nc2ccc3ncnc(Nc4ccc(Cl)cc4F)c3c2s1

>  <Name>  (197) 
nan

>  <Pocket>  (197) 
nan

>  <ATP_Site>  (197) 
nan

>  <Peripheral>  (197) 
nan

>  <Num_H_Atoms_ProtBoundConf>  (197) 
nan

>  <Num_Resolved_Atoms>  (197) 
nan

>  <Num_Not_Resolved_Atoms>  (197) 
nan

$$$$
CHEMBL3970651
     RDKit          3D

  0  0  0  0  0  0  0  0  0  0999 V3000
M  V30 BEGIN CTAB
M  V30 COUNTS 52 56 0 0 0
M  V30 BEGIN ATOM
M  V30 1 N 3.160433 -2.227585 1.951593 0
M  V30 2 C 2.842139 -1.595927 3.215647 0 CFG=1
M  V30 3 C 4.025695 -0.868342 3.793374 0
M  V30 4 C 3.812225 0.606164 3.978979 0
M  V30 5 C 3.316731 1.295117 2.727191 0
M  V30 6 N 2.290943 0.475505 2.110898 0
M  V30 7 C 1.874833 0.705037 0.770155 0
M  V30 8 C 2.743810 0.652009 -0.299168 0
M  V30 9 C 2.383248 0.867178 -1.617028 0
M  V30 10 N 1.079527 1.152720 -1.891799 0
M  V30 11 C 0.215018 1.208295 -0.856535 0
M  V30 12 C 0.563530 0.995016 0.461400 0
M  V30 13 N -0.434665 1.068281 1.446724 0
M  V30 14 C -1.794865 1.360598 1.174551 0
M  V30 15 N -2.543925 2.437002 1.549858 0
M  V30 16 C -3.795809 2.313785 1.057284 0
M  V30 17 C -3.815856 1.125569 0.358206 0
M  V30 18 C -4.780547 0.465156 -0.361207 0
M  V30 19 C -4.535979 -0.755630 -1.001631 0
M  V30 20 C -3.272109 -1.291341 -0.888806 0
M  V30 21 C -2.892326 -2.542224 -1.523197 0
M  V30 22 C -3.732986 -3.312635 -2.287181 0
M  V30 23 C -3.339420 -4.489162 -2.884033 0
M  V30 24 C -2.032907 -4.961980 -2.734409 0
M  V30 25 Cl -1.511633 -6.451943 -3.488255 0
M  V30 26 C -1.174513 -4.200685 -1.970126 0
M  V30 27 C -1.610948 -3.030164 -1.390743 0
M  V30 28 Cl -0.378872 -2.213176 -0.456343 0
M  V30 29 N -2.370793 -0.608181 -0.175763 0
M  V30 30 N -2.605653 0.550509 0.430466 0
M  V30 31 C 1.730782 -0.577035 2.944364 0
M  V30 32 H 3.267913 -3.254165 2.022303 0
M  V30 33 H 2.532861 -1.900800 1.213172 0
M  V30 34 H 2.420511 -2.349979 3.928954 0
M  V30 35 H 4.207122 -1.287841 4.820732 0
M  V30 36 H 4.922121 -1.124058 3.189164 0
M  V30 37 H 4.812982 1.028286 4.250065 0
M  V30 38 H 3.111088 0.742247 4.808162 0
M  V30 39 H 2.937254 2.294103 3.056608 0
M  V30 40 H 4.169497 1.518030 2.056026 0
M  V30 41 H 3.791308 0.423394 -0.079836 0
M  V30 42 H 3.179474 0.791940 -2.374012 0
M  V30 43 H -0.786872 1.444560 -1.216163 0
M  V30 44 H -0.282339 0.922388 2.476615 0
M  V30 45 H -4.653040 2.964237 1.145819 0
M  V30 46 H -5.789878 0.902176 -0.445628 0
M  V30 47 H -5.301829 -1.246232 -1.555799 0
M  V30 48 H -4.755552 -3.000426 -2.435307 0
M  V30 49 H -4.017874 -5.080855 -3.481470 0
M  V30 50 H -0.162860 -4.602346 -1.876394 0
M  V30 51 H 1.414139 -0.100346 3.879387 0
M  V30 52 H 0.933205 -1.132786 2.456822 0
M  V30 END ATOM
M  V30 BEGIN BOND
M  V30 1 1 1 2
M  V30 2 1 2 3
M  V30 3 1 3 4
M  V30 4 1 4 5
M  V30 5 1 5 6
M  V30 6 1 6 7
M  V30 7 2 7 8
M  V30 8 1 8 9
M  V30 9 2 9 10
M  V30 10 1 10 11
M  V30 11 2 11 12
M  V30 12 1 12 13
M  V30 13 1 13 14
M  V30 14 2 14 15
M  V30 15 1 15 16
M  V30 16 2 16 17
M  V30 17 1 17 18
M  V30 18 2 18 19
M  V30 19 1 19 20
M  V30 20 1 20 21
M  V30 21 2 21 22
M  V30 22 1 22 23
M  V30 23 2 23 24
M  V30 24 1 24 25
M  V30 25 1 24 26
M  V30 26 2 26 27
M  V30 27 1 27 28
M  V30 28 2 20 29
M  V30 29 1 29 30
M  V30 30 1 6 31
M  V30 31 1 31 2
M  V30 32 1 12 7
M  V30 33 1 30 14
M  V30 34 1 30 17
M  V30 35 1 27 21
M  V30 36 1 1 32
M  V30 37 1 1 33
M  V30 38 1 2 34 CFG=1
M  V30 39 1 3 35
M  V30 40 1 3 36
M  V30 41 1 4 37
M  V30 42 1 4 38
M  V30 43 1 5 39
M  V30 44 1 5 40
M  V30 45 1 8 41
M  V30 46 1 9 42
M  V30 47 1 11 43
M  V30 48 1 13 44
M  V30 49 1 16 45
M  V30 50 1 18 46
M  V30 51 1 19 47
M  V30 52 1 22 48
M  V30 53 1 23 49
M  V30 54 1 26 50
M  V30 55 1 31 51
M  V30 56 1 31 52
M  V30 END BOND
M  V30 END CTAB
M  END
>  <Dataset>  (198) 
ChEMBL_Kinases

>  <Ligand_Instance>  (198) 
nan

>  <PDB_ID>  (198) 
nan

>  <Standardized_SMILES>  (198) 
N[C@H]1CCCN(c2ccncc2Nc2ncc3ccc(-c4ccc(Cl)cc4Cl)nn23)C1

>  <Name>  (198) 
nan

>  <Pocket>  (198) 
nan

>  <ATP_Site>  (198) 
nan

>  <Peripheral>  (198) 
nan

>  <Num_H_Atoms_ProtBoundConf>  (198) 
nan

>  <Num_Resolved_Atoms>  (198) 
nan

>  <Num_Not_Resolved_Atoms>  (198) 
nan

$$$$
CHEMBL3963605
     RDKit          3D

  0  0  0  0  0  0  0  0  0  0999 V3000
M  V30 BEGIN CTAB
M  V30 COUNTS 52 55 0 0 0
M  V30 BEGIN ATOM
M  V30 1 N -0.282184 -0.309667 4.574669 0
M  V30 2 C 0.816909 -0.350901 3.701448 0
M  V30 3 N 1.926461 -0.873151 4.217216 0
M  V30 4 C 3.053277 -0.973591 3.488399 0
M  V30 5 C 2.990956 -0.509046 2.191750 0
M  V30 6 C 4.136717 -0.556256 1.291398 0
M  V30 7 C 4.005488 -0.074445 0.007196 0
M  V30 8 C 5.029734 -0.074071 -0.920740 0
M  V30 9 C 6.262399 -0.576720 -0.572548 0
M  V30 10 C 6.422521 -1.063172 0.699039 0
M  V30 11 C 5.381244 -1.053592 1.613345 0
M  V30 12 N 1.852944 0.013986 1.699401 0
M  V30 13 C 0.726377 0.114462 2.427864 0
M  V30 14 C -0.493858 0.687212 1.867576 0
M  V30 15 O -1.531233 0.770123 2.572969 0
M  V30 16 N -0.479145 1.143498 0.519310 0
M  V30 17 C -1.724377 1.695981 0.041207 0
M  V30 18 C -2.037138 3.018795 0.149384 0
M  V30 19 N -3.220361 3.468402 -0.319398 0
M  V30 20 C -4.086656 2.612370 -0.891090 0
M  V30 21 C -3.864152 1.256978 -1.047948 0
M  V30 22 C -2.634404 0.817720 -0.555384 0
M  V30 23 N -2.369808 -0.592228 -0.702682 0
M  V30 24 C -1.346073 -1.396304 -1.377662 0
M  V30 25 C -1.094741 -2.595203 -0.469009 0
M  V30 26 C -2.251517 -3.539352 -0.562270 0
M  V30 27 N -2.524876 -4.269371 0.653647 0
M  V30 28 C -3.497589 -2.688308 -0.836226 0
M  V30 29 C -3.367285 -1.413464 -0.008609 0
M  V30 30 H -0.241827 -0.366063 5.615612 0
M  V30 31 H -1.295865 -0.235038 4.665147 0
M  V30 32 H 3.961382 -1.394218 3.890781 0
M  V30 33 H 3.073210 0.339575 -0.355246 0
M  V30 34 H 4.898600 0.314654 -1.933754 0
M  V30 35 H 7.060419 -0.576246 -1.295667 0
M  V30 36 H 7.384198 -1.467092 1.005370 0
M  V30 37 H 5.532758 -1.439932 2.601560 0
M  V30 38 H 0.384490 1.080932 -0.087024 0
M  V30 39 H -1.267085 3.619242 0.626545 0
M  V30 40 H -5.016054 3.048042 -1.243329 0
M  V30 41 H -4.568397 0.585321 -1.508056 0
M  V30 42 H -1.666086 -1.752279 -2.359288 0
M  V30 43 H -0.378220 -0.865168 -1.458438 0
M  V30 44 H -0.118420 -3.034636 -0.740384 0
M  V30 45 H -0.988053 -2.241299 0.598483 0
M  V30 46 H -2.085345 -4.211282 -1.441046 0
M  V30 47 H -2.299440 -5.277215 0.500752 0
M  V30 48 H -3.561322 -4.271733 0.892388 0
M  V30 49 H -3.515288 -2.495640 -1.923896 0
M  V30 50 H -4.418484 -3.252433 -0.582564 0
M  V30 51 H -2.965245 -1.748745 0.987141 0
M  V30 52 H -4.345217 -0.945973 0.076349 0
M  V30 END ATOM
M  V30 BEGIN BOND
M  V30 1 1 1 2
M  V30 2 2 2 3
M  V30 3 1 3 4
M  V30 4 2 4 5
M  V30 5 1 5 6
M  V30 6 2 6 7
M  V30 7 1 7 8
M  V30 8 2 8 9
M  V30 9 1 9 10
M  V30 10 2 10 11
M  V30 11 1 5 12
M  V30 12 2 12 13
M  V30 13 1 13 14
M  V30 14 2 14 15
M  V30 15 1 14 16
M  V30 16 1 16 17
M  V30 17 2 17 18
M  V30 18 1 18 19
M  V30 19 2 19 20
M  V30 20 1 20 21
M  V30 21 2 21 22
M  V30 22 1 22 23
M  V30 23 1 23 24
M  V30 24 1 24 25
M  V30 25 1 25 26
M  V30 26 1 26 27
M  V30 27 1 26 28
M  V30 28 1 28 29
M  V30 29 1 13 2
M  V30 30 1 22 17
M  V30 31 1 29 23
M  V30 32 1 11 6
M  V30 33 1 1 30
M  V30 34 1 1 31
M  V30 35 1 4 32
M  V30 36 1 7 33
M  V30 37 1 8 34
M  V30 38 1 9 35
M  V30 39 1 10 36
M  V30 40 1 11 37
M  V30 41 1 16 38
M  V30 42 1 18 39
M  V30 43 1 20 40
M  V30 44 1 21 41
M  V30 45 1 24 42
M  V30 46 1 24 43
M  V30 47 1 25 44
M  V30 48 1 25 45
M  V30 49 1 26 46
M  V30 50 1 27 47
M  V30 51 1 27 48
M  V30 52 1 28 49
M  V30 53 1 28 50
M  V30 54 1 29 51
M  V30 55 1 29 52
M  V30 END BOND
M  V30 END CTAB
M  END
>  <Dataset>  (199) 
ChEMBL_Kinases

>  <Ligand_Instance>  (199) 
nan

>  <PDB_ID>  (199) 
nan

>  <Standardized_SMILES>  (199) 
Nc1ncc(-c2ccccc2)nc1C(=O)Nc1cnccc1N1CCC(N)CC1

>  <Name>  (199) 
nan

>  <Pocket>  (199) 
nan

>  <ATP_Site>  (199) 
nan

>  <Peripheral>  (199) 
nan

>  <Num_H_Atoms_ProtBoundConf>  (199) 
nan

>  <Num_Resolved_Atoms>  (199) 
nan

>  <Num_Not_Resolved_Atoms>  (199) 
nan

$$$$
CHEMBL3651154
     RDKit          3D

  0  0  0  0  0  0  0  0  0  0999 V3000
M  V30 BEGIN CTAB
M  V30 COUNTS 44 47 0 0 0
M  V30 BEGIN ATOM
M  V30 1 C -2.734052 -3.509490 0.017282 0
M  V30 2 Si -1.326912 -2.286715 -0.100802 0 VAL=4
M  V30 3 C 0.240676 -3.276693 0.211407 0
M  V30 4 C -1.306695 -1.484877 -1.772017 0
M  V30 5 C -1.553479 -1.046401 1.253362 0
M  V30 6 C -0.726088 -0.069048 1.574732 0
M  V30 7 C 0.571999 0.304672 0.969900 0
M  V30 8 N 0.829847 0.025915 -0.342843 0
M  V30 9 C 2.032555 0.377254 -0.886742 0
M  V30 10 C 2.329488 0.112670 -2.207885 0
M  V30 11 C 3.565708 0.487648 -2.720187 0
M  V30 12 C 4.509278 1.125556 -1.923092 0
M  V30 13 C 4.180140 1.375929 -0.603602 0
M  V30 14 C 2.964108 1.018302 -0.061739 0
M  V30 15 C 2.705701 1.306160 1.282578 0
M  V30 16 C 1.500081 0.945778 1.800132 0
M  V30 17 C 1.227784 1.245672 3.206560 0
M  V30 18 O 2.294801 0.748604 3.990478 0
M  V30 19 C -0.080766 0.798641 3.735130 0
M  V30 20 C -1.175724 0.757274 2.697713 0
M  V30 21 C -2.431697 0.141370 3.184803 0
M  V30 22 C -2.668665 -0.934634 2.186851 0
M  V30 23 O -3.684705 -1.677623 2.118352 0
M  V30 24 H -3.676928 -3.003852 -0.213394 0
M  V30 25 H -2.559364 -4.403849 -0.612440 0
M  V30 26 H -2.736161 -3.843478 1.096219 0
M  V30 27 H 0.175014 -4.239469 -0.315741 0
M  V30 28 H 1.152791 -2.739041 -0.042951 0
M  V30 29 H 0.247481 -3.491122 1.294656 0
M  V30 30 H -0.308425 -1.698069 -2.242408 0
M  V30 31 H -2.022592 -2.041612 -2.440650 0
M  V30 32 H -1.585248 -0.426961 -1.772464 0
M  V30 33 H 1.606704 -0.385340 -2.850129 0
M  V30 34 H 3.731510 0.246291 -3.774167 0
M  V30 35 H 5.457772 1.395090 -2.377510 0
M  V30 36 H 4.911133 1.869980 0.013428 0
M  V30 37 H 3.483387 1.801666 1.837395 0
M  V30 38 H 1.320441 2.367173 3.305829 0
M  V30 39 H 2.284248 -0.247231 4.020299 0
M  V30 40 H -0.384187 1.437696 4.605714 0
M  V30 41 H 0.018088 -0.232119 4.139835 0
M  V30 42 H -1.312842 1.816812 2.353375 0
M  V30 43 H -2.405882 -0.225987 4.221342 0
M  V30 44 H -3.262437 0.886638 3.020979 0
M  V30 END ATOM
M  V30 BEGIN BOND
M  V30 1 1 1 2
M  V30 2 1 2 3
M  V30 3 1 2 4
M  V30 4 1 2 5
M  V30 5 2 5 6
M  V30 6 1 6 7
M  V30 7 2 7 8
M  V30 8 1 8 9
M  V30 9 2 9 10
M  V30 10 1 10 11
M  V30 11 2 11 12
M  V30 12 1 12 13
M  V30 13 2 13 14
M  V30 14 1 14 15
M  V30 15 2 15 16
M  V30 16 1 16 17
M  V30 17 1 17 18
M  V30 18 1 17 19
M  V30 19 1 19 20
M  V30 20 1 20 21
M  V30 21 1 21 22
M  V30 22 2 22 23
M  V30 23 1 22 5
M  V30 24 1 20 6
M  V30 25 1 16 7
M  V30 26 1 14 9
M  V30 27 1 1 24
M  V30 28 1 1 25
M  V30 29 1 1 26
M  V30 30 1 3 27
M  V30 31 1 3 28
M  V30 32 1 3 29
M  V30 33 1 4 30
M  V30 34 1 4 31
M  V30 35 1 4 32
M  V30 36 1 10 33
M  V30 37 1 11 34
M  V30 38 1 12 35
M  V30 39 1 13 36
M  V30 40 1 15 37
M  V30 41 1 17 38
M  V30 42 1 18 39
M  V30 43 1 19 40
M  V30 44 1 19 41
M  V30 45 1 20 42
M  V30 46 1 21 43
M  V30 47 1 21 44
M  V30 END BOND
M  V30 END CTAB
M  END
>  <Dataset>  (200) 
ChEMBL_Kinases

>  <Ligand_Instance>  (200) 
nan

>  <PDB_ID>  (200) 
nan

>  <Standardized_SMILES>  (200) 
C[Si](C)(C)C1=C2c3nc4ccccc4cc3C(O)CC2CC1=O

>  <Name>  (200) 
nan

>  <Pocket>  (200) 
nan

>  <ATP_Site>  (200) 
nan

>  <Peripheral>  (200) 
nan

>  <Num_H_Atoms_ProtBoundConf>  (200) 
nan

>  <Num_Resolved_Atoms>  (200) 
nan

>  <Num_Not_Resolved_Atoms>  (200) 
nan

$$$$
CHEMBL3651156
     RDKit          3D

  0  0  0  0  0  0  0  0  0  0999 V3000
M  V30 BEGIN CTAB
M  V30 COUNTS 48 51 0 0 0
M  V30 BEGIN ATOM
M  V30 1 C 2.420044 -6.664640 -1.069312 0
M  V30 2 O 2.575164 -5.308711 -1.407047 0
M  V30 3 C 1.966762 -4.264000 -0.726619 0
M  V30 4 C 1.147025 -4.504239 0.356976 0
M  V30 5 C 0.565615 -3.405763 0.997084 0
M  V30 6 C 0.828204 -2.134316 0.529058 0
M  V30 7 N 0.255591 -1.068334 1.161301 0
M  V30 8 C 0.551738 0.140241 0.656337 0
M  V30 9 C 1.374632 0.438916 -0.437729 0
M  V30 10 C 1.939001 -0.658057 -1.055915 0
M  V30 11 C 1.655010 -1.926011 -0.560439 0
M  V30 12 C 2.245790 -3.000640 -1.215069 0
M  V30 13 C 1.570329 1.853317 -0.843157 0
M  V30 14 O 2.761801 1.957191 -1.582649 0
M  V30 15 C 1.562438 2.844502 0.249662 0
M  V30 16 C 0.686949 2.590259 1.415669 0
M  V30 17 C -0.345539 3.651424 1.698307 0
M  V30 18 C -1.377390 2.850157 2.439889 0
M  V30 19 O -2.211727 3.192526 3.318996 0
M  V30 20 C -1.239328 1.474206 1.922087 0
M  V30 21 Si -2.538701 0.150729 2.089582 0 VAL=4
M  V30 22 C -2.124380 -0.919753 3.572343 0
M  V30 23 C -4.181889 0.953335 2.466338 0
M  V30 24 C -2.716916 -0.844357 0.542323 0
M  V30 25 C -0.048310 1.308446 1.319144 0
M  V30 26 H 1.359956 -6.982476 -0.951355 0
M  V30 27 H 2.835020 -7.259258 -1.928489 0
M  V30 28 H 3.042775 -6.935812 -0.191553 0
M  V30 29 H 0.976950 -5.522920 0.679884 0
M  V30 30 H -0.070148 -3.585649 1.836847 0
M  V30 31 H 2.580821 -0.469301 -1.904485 0
M  V30 32 H 2.893520 -2.844172 -2.067915 0
M  V30 33 H 0.738785 2.108675 -1.561729 0
M  V30 34 H 2.746731 2.872692 -1.966563 0
M  V30 35 H 2.626053 3.052407 0.547215 0
M  V30 36 H 1.231750 3.829930 -0.193405 0
M  V30 37 H 1.352701 2.536913 2.328444 0
M  V30 38 H -0.751460 4.133320 0.798521 0
M  V30 39 H 0.042813 4.402847 2.416592 0
M  V30 40 H -2.771214 -1.810702 3.534347 0
M  V30 41 H -1.052723 -1.174265 3.634289 0
M  V30 42 H -2.441809 -0.325680 4.473359 0
M  V30 43 H -4.183455 1.403210 3.492302 0
M  V30 44 H -4.388065 1.719407 1.675137 0
M  V30 45 H -4.986966 0.214856 2.388632 0
M  V30 46 H -3.784697 -0.915444 0.189263 0
M  V30 47 H -2.418105 -1.916993 0.728421 0
M  V30 48 H -2.157124 -0.405230 -0.300191 0
M  V30 END ATOM
M  V30 BEGIN BOND
M  V30 1 1 1 2
M  V30 2 1 2 3
M  V30 3 2 3 4
M  V30 4 1 4 5
M  V30 5 2 5 6
M  V30 6 1 6 7
M  V30 7 2 7 8
M  V30 8 1 8 9
M  V30 9 2 9 10
M  V30 10 1 10 11
M  V30 11 2 11 12
M  V30 12 1 9 13
M  V30 13 1 13 14
M  V30 14 1 13 15
M  V30 15 1 15 16
M  V30 16 1 16 17
M  V30 17 1 17 18
M  V30 18 2 18 19
M  V30 19 1 18 20
M  V30 20 1 20 21
M  V30 21 1 21 22
M  V30 22 1 21 23
M  V30 23 1 21 24
M  V30 24 2 20 25
M  V30 25 1 12 3
M  V30 26 1 25 16
M  V30 27 1 11 6
M  V30 28 1 25 8
M  V30 29 1 1 26
M  V30 30 1 1 27
M  V30 31 1 1 28
M  V30 32 1 4 29
M  V30 33 1 5 30
M  V30 34 1 10 31
M  V30 35 1 12 32
M  V30 36 1 13 33
M  V30 37 1 14 34
M  V30 38 1 15 35
M  V30 39 1 15 36
M  V30 40 1 16 37
M  V30 41 1 17 38
M  V30 42 1 17 39
M  V30 43 1 22 40
M  V30 44 1 22 41
M  V30 45 1 22 42
M  V30 46 1 23 43
M  V30 47 1 23 44
M  V30 48 1 23 45
M  V30 49 1 24 46
M  V30 50 1 24 47
M  V30 51 1 24 48
M  V30 END BOND
M  V30 END CTAB
M  END
>  <Dataset>  (201) 
ChEMBL_Kinases

>  <Ligand_Instance>  (201) 
nan

>  <PDB_ID>  (201) 
nan

>  <Standardized_SMILES>  (201) 
COc1ccc2nc3c(cc2c1)C(O)CC1CC(=O)C([Si](C)(C)C)=C31

>  <Name>  (201) 
nan

>  <Pocket>  (201) 
nan

>  <ATP_Site>  (201) 
nan

>  <Peripheral>  (201) 
nan

>  <Num_H_Atoms_ProtBoundConf>  (201) 
nan

>  <Num_Resolved_Atoms>  (201) 
nan

>  <Num_Not_Resolved_Atoms>  (201) 
nan

$$$$
CHEMBL3651157
     RDKit          3D

  0  0  0  0  0  0  0  0  0  0999 V3000
M  V30 BEGIN CTAB
M  V30 COUNTS 48 51 0 0 0
M  V30 BEGIN ATOM
M  V30 1 C 2.652345 -6.337348 1.903239 0
M  V30 2 O 2.538784 -4.956372 1.724239 0
M  V30 3 C 1.395520 -4.308062 1.320088 0
M  V30 4 C 0.268133 -5.061714 1.068450 0
M  V30 5 C -0.865145 -4.385487 0.664269 0
M  V30 6 C -0.841002 -3.011764 0.526472 0
M  V30 7 C -1.980280 -2.320802 0.119073 0
M  V30 8 C -1.949271 -0.927733 -0.018673 0
M  V30 9 C -0.779370 -0.256351 0.254113 0
M  V30 10 N 0.328919 -0.909262 0.648406 0
M  V30 11 C 0.269078 -2.241647 0.771283 0
M  V30 12 C 1.409892 -2.937384 1.179749 0
M  V30 13 C -0.838875 1.210193 0.082157 0
M  V30 14 C 0.067898 2.143607 0.355065 0
M  V30 15 Si 1.735141 1.833652 1.061031 0 VAL=4
M  V30 16 C 2.648842 3.485726 1.068524 0
M  V30 17 C 1.555124 1.332264 2.849105 0
M  V30 18 C 2.744893 0.654758 0.069028 0
M  V30 19 C -0.534071 3.441671 -0.018983 0
M  V30 20 O 0.160731 4.445724 -0.344474 0
M  V30 21 C -2.018569 3.204137 0.099149 0
M  V30 22 C -2.093091 1.817294 -0.487134 0
M  V30 23 C -3.314811 1.063710 -0.011689 0
M  V30 24 C -3.244110 -0.378848 -0.456986 0
M  V30 25 O -4.304249 -1.065598 0.156862 0
M  V30 26 H 2.190421 -6.896016 1.064486 0
M  V30 27 H 3.723779 -6.621917 1.915923 0
M  V30 28 H 2.240221 -6.700806 2.877466 0
M  V30 29 H 0.250935 -6.121470 1.175169 0
M  V30 30 H -1.778771 -4.938537 0.454263 0
M  V30 31 H -2.852008 -2.945077 -0.071105 0
M  V30 32 H 2.314037 -2.421091 1.390856 0
M  V30 33 H 3.601387 3.412073 1.632574 0
M  V30 34 H 1.997516 4.265533 1.503363 0
M  V30 35 H 2.921893 3.703290 0.002933 0
M  V30 36 H 2.561402 1.210300 3.318401 0
M  V30 37 H 0.874945 0.495414 3.006371 0
M  V30 38 H 1.097618 2.230064 3.357879 0
M  V30 39 H 3.736467 1.088584 -0.254710 0
M  V30 40 H 2.266587 0.375865 -0.910105 0
M  V30 41 H 3.053989 -0.267760 0.634621 0
M  V30 42 H -2.224470 3.169239 1.184094 0
M  V30 43 H -2.607101 3.956413 -0.434590 0
M  V30 44 H -2.072636 1.867501 -1.580944 0
M  V30 45 H -4.192337 1.577682 -0.427800 0
M  V30 46 H -3.343109 1.052845 1.098909 0
M  V30 47 H -3.302355 -0.469094 -1.561085 0
M  V30 48 H -4.726841 -1.724608 -0.464603 0
M  V30 END ATOM
M  V30 BEGIN BOND
M  V30 1 1 1 2
M  V30 2 1 2 3
M  V30 3 2 3 4
M  V30 4 1 4 5
M  V30 5 2 5 6
M  V30 6 1 6 7
M  V30 7 2 7 8
M  V30 8 1 8 9
M  V30 9 2 9 10
M  V30 10 1 10 11
M  V30 11 2 11 12
M  V30 12 1 9 13
M  V30 13 2 13 14
M  V30 14 1 14 15
M  V30 15 1 15 16
M  V30 16 1 15 17
M  V30 17 1 15 18
M  V30 18 1 14 19
M  V30 19 2 19 20
M  V30 20 1 19 21
M  V30 21 1 21 22
M  V30 22 1 22 23
M  V30 23 1 23 24
M  V30 24 1 24 25
M  V30 25 1 12 3
M  V30 26 1 22 13
M  V30 27 1 11 6
M  V30 28 1 24 8
M  V30 29 1 1 26
M  V30 30 1 1 27
M  V30 31 1 1 28
M  V30 32 1 4 29
M  V30 33 1 5 30
M  V30 34 1 7 31
M  V30 35 1 12 32
M  V30 36 1 16 33
M  V30 37 1 16 34
M  V30 38 1 16 35
M  V30 39 1 17 36
M  V30 40 1 17 37
M  V30 41 1 17 38
M  V30 42 1 18 39
M  V30 43 1 18 40
M  V30 44 1 18 41
M  V30 45 1 21 42
M  V30 46 1 21 43
M  V30 47 1 22 44
M  V30 48 1 23 45
M  V30 49 1 23 46
M  V30 50 1 24 47
M  V30 51 1 25 48
M  V30 END BOND
M  V30 END CTAB
M  END
>  <Dataset>  (202) 
ChEMBL_Kinases

>  <Ligand_Instance>  (202) 
nan

>  <PDB_ID>  (202) 
nan

>  <Standardized_SMILES>  (202) 
COc1ccc2cc3c(nc2c1)C1=C([Si](C)(C)C)C(=O)CC1CC3O

>  <Name>  (202) 
nan

>  <Pocket>  (202) 
nan

>  <ATP_Site>  (202) 
nan

>  <Peripheral>  (202) 
nan

>  <Num_H_Atoms_ProtBoundConf>  (202) 
nan

>  <Num_Resolved_Atoms>  (202) 
nan

>  <Num_Not_Resolved_Atoms>  (202) 
nan

$$$$
CHEMBL3651158
     RDKit          3D

  0  0  0  0  0  0  0  0  0  0999 V3000
M  V30 BEGIN CTAB
M  V30 COUNTS 52 55 0 0 0
M  V30 BEGIN ATOM
M  V30 1 C 5.802000 -1.134633 -2.033629 0
M  V30 2 O 5.238090 -0.109259 -1.238597 0
M  V30 3 C 3.900990 -0.193594 -0.872466 0
M  V30 4 C 3.039241 -1.214849 -1.220342 0
M  V30 5 C 1.723064 -1.195120 -0.797893 0
M  V30 6 C 0.890270 -2.248432 -1.174084 0
M  V30 7 C -0.428130 -2.249534 -0.763489 0
M  V30 8 C -0.809707 -1.150624 0.018846 0
M  V30 9 N -0.049079 -0.107289 0.411635 0
M  V30 10 C 1.245161 -0.148003 -0.016540 0
M  V30 11 C 2.083498 0.877278 0.341072 0
M  V30 12 C 3.403522 0.843431 -0.091107 0
M  V30 13 O 4.244614 1.897466 0.283001 0
M  V30 14 C 3.698085 2.932080 1.078194 0
M  V30 15 C -2.207199 -1.136802 0.460241 0
M  V30 16 C -2.805114 -0.685391 1.575603 0
M  V30 17 Si -1.903213 0.122562 2.988211 0 VAL=4
M  V30 18 C -3.087523 0.335880 4.415639 0
M  V30 19 C -0.554907 -1.034536 3.555297 0
M  V30 20 C -1.217324 1.771324 2.483620 0
M  V30 21 C -4.252065 -0.920585 1.519660 0
M  V30 22 O -5.050544 -0.274832 2.246069 0
M  V30 23 C -4.421173 -2.002151 0.483868 0
M  V30 24 C -3.274184 -1.710320 -0.428781 0
M  V30 25 C -2.811699 -2.834990 -1.276917 0
M  V30 26 C -1.420030 -3.305476 -1.086449 0
M  V30 27 O -0.996499 -3.966601 -2.240674 0
M  V30 28 H 5.602857 -1.010718 -3.115335 0
M  V30 29 H 6.914866 -1.094649 -1.846077 0
M  V30 30 H 5.460688 -2.106126 -1.615981 0
M  V30 31 H 3.433635 -2.012611 -1.825077 0
M  V30 32 H 1.222559 -3.068264 -1.772729 0
M  V30 33 H 1.693125 1.676376 0.945363 0
M  V30 34 H 3.257253 2.537697 2.023569 0
M  V30 35 H 2.905551 3.462125 0.523864 0
M  V30 36 H 4.500331 3.632033 1.396251 0
M  V30 37 H -3.719182 -0.569225 4.552541 0
M  V30 38 H -3.671848 1.270117 4.271078 0
M  V30 39 H -2.477479 0.404547 5.361367 0
M  V30 40 H 0.269603 -0.449842 4.018836 0
M  V30 41 H -0.169832 -1.669069 2.731916 0
M  V30 42 H -0.980372 -1.722033 4.303051 0
M  V30 43 H -0.119805 1.715989 2.574845 0
M  V30 44 H -1.569675 2.110836 1.489190 0
M  V30 45 H -1.534427 2.566634 3.195479 0
M  V30 46 H -4.397122 -3.008121 0.907732 0
M  V30 47 H -5.374082 -1.760922 -0.032679 0
M  V30 48 H -3.532359 -0.853329 -1.118009 0
M  V30 49 H -3.037701 -2.660010 -2.369911 0
M  V30 50 H -3.482930 -3.710600 -1.030934 0
M  V30 51 H -1.397934 -4.039447 -0.236658 0
M  V30 52 H -0.411524 -4.694931 -1.967994 0
M  V30 END ATOM
M  V30 BEGIN BOND
M  V30 1 1 1 2
M  V30 2 1 2 3
M  V30 3 2 3 4
M  V30 4 1 4 5
M  V30 5 2 5 6
M  V30 6 1 6 7
M  V30 7 2 7 8
M  V30 8 1 8 9
M  V30 9 2 9 10
M  V30 10 1 10 11
M  V30 11 2 11 12
M  V30 12 1 12 13
M  V30 13 1 13 14
M  V30 14 1 8 15
M  V30 15 2 15 16
M  V30 16 1 16 17
M  V30 17 1 17 18
M  V30 18 1 17 19
M  V30 19 1 17 20
M  V30 20 1 16 21
M  V30 21 2 21 22
M  V30 22 1 21 23
M  V30 23 1 23 24
M  V30 24 1 24 25
M  V30 25 1 25 26
M  V30 26 1 26 27
M  V30 27 1 12 3
M  V30 28 1 24 15
M  V30 29 1 10 5
M  V30 30 1 26 7
M  V30 31 1 1 28
M  V30 32 1 1 29
M  V30 33 1 1 30
M  V30 34 1 4 31
M  V30 35 1 6 32
M  V30 36 1 11 33
M  V30 37 1 14 34
M  V30 38 1 14 35
M  V30 39 1 14 36
M  V30 40 1 18 37
M  V30 41 1 18 38
M  V30 42 1 18 39
M  V30 43 1 19 40
M  V30 44 1 19 41
M  V30 45 1 19 42
M  V30 46 1 20 43
M  V30 47 1 20 44
M  V30 48 1 20 45
M  V30 49 1 23 46
M  V30 50 1 23 47
M  V30 51 1 24 48
M  V30 52 1 25 49
M  V30 53 1 25 50
M  V30 54 1 26 51
M  V30 55 1 27 52
M  V30 END BOND
M  V30 END CTAB
M  END
>  <Dataset>  (203) 
ChEMBL_Kinases

>  <Ligand_Instance>  (203) 
nan

>  <PDB_ID>  (203) 
nan

>  <Standardized_SMILES>  (203) 
COc1cc2cc3c(nc2cc1OC)C1=C([Si](C)(C)C)C(=O)CC1CC3O

>  <Name>  (203) 
nan

>  <Pocket>  (203) 
nan

>  <ATP_Site>  (203) 
nan

>  <Peripheral>  (203) 
nan

>  <Num_H_Atoms_ProtBoundConf>  (203) 
nan

>  <Num_Resolved_Atoms>  (203) 
nan

>  <Num_Not_Resolved_Atoms>  (203) 
nan

$$$$
CHEMBL397008
     RDKit          3D

  0  0  0  0  0  0  0  0  0  0999 V3000
M  V30 BEGIN CTAB
M  V30 COUNTS 43 45 0 0 0
M  V30 BEGIN ATOM
M  V30 1 N 3.639691 1.081408 4.555035 0
M  V30 2 C 2.822119 0.055212 4.082149 0
M  V30 3 O 2.809939 -0.941325 4.833430 0
M  V30 4 C 2.060018 0.133830 2.841430 0
M  V30 5 C 2.138466 1.276048 2.077967 0
M  V30 6 C 1.398240 1.305145 0.908938 0
M  V30 7 C 1.441956 2.496711 0.053975 0
M  V30 8 C 0.288753 2.792499 -0.674366 0
M  V30 9 C 0.163621 3.876448 -1.525036 0
M  V30 10 C 1.255376 4.727053 -1.665100 0
M  V30 11 C 2.393188 4.444865 -0.953688 0
M  V30 12 C 2.486224 3.355042 -0.112776 0
M  V30 13 C 0.602325 0.233175 0.506803 0
M  V30 14 C 0.584530 -0.881030 1.342563 0
M  V30 15 C -0.236200 -2.045498 0.972515 0
M  V30 16 C 0.141117 -3.369815 1.020299 0
M  V30 17 C -0.746463 -4.345305 0.638581 0
M  V30 18 C -2.021865 -4.027830 0.203256 0
M  V30 19 S -3.113944 -5.318073 -0.272791 0
M  V30 20 N -2.872573 -5.580417 -1.961762 0
M  V30 21 O -4.547731 -4.870547 -0.044199 0
M  V30 22 O -2.849361 -6.583277 0.456316 0
M  V30 23 C -2.422705 -2.708152 0.146800 0
M  V30 24 C -1.525212 -1.735231 0.531882 0
M  V30 25 C 1.311000 -0.953247 2.523679 0
M  V30 26 N 1.303758 -2.072311 3.379983 0
M  V30 27 H 4.223803 1.842499 4.904756 0
M  V30 28 H 4.559968 1.490844 4.770456 0
M  V30 29 H 2.755107 2.110133 2.386665 0
M  V30 30 H -0.597558 2.154147 -0.598934 0
M  V30 31 H -0.759898 4.052231 -2.063411 0
M  V30 32 H 1.204900 5.592299 -2.322253 0
M  V30 33 H 3.269195 5.079062 -1.030628 0
M  V30 34 H 3.387244 3.118445 0.460378 0
M  V30 35 H 0.014076 0.215551 -0.390756 0
M  V30 36 H 1.148342 -3.496594 1.372256 0
M  V30 37 H -0.390603 -5.370720 0.698476 0
M  V30 38 H -3.064812 -6.565285 -2.231401 0
M  V30 39 H -3.391451 -4.943844 -2.573202 0
M  V30 40 H -3.413332 -2.481542 -0.192609 0
M  V30 41 H -1.893301 -0.707797 0.467845 0
M  V30 42 H 2.053315 -2.787541 3.546813 0
M  V30 43 H 0.365707 -2.026645 3.818459 0
M  V30 END ATOM
M  V30 BEGIN BOND
M  V30 1 1 1 2
M  V30 2 2 2 3
M  V30 3 1 2 4
M  V30 4 2 4 5
M  V30 5 1 5 6
M  V30 6 1 6 7
M  V30 7 2 7 8
M  V30 8 1 8 9
M  V30 9 2 9 10
M  V30 10 1 10 11
M  V30 11 2 11 12
M  V30 12 2 6 13
M  V30 13 1 13 14
M  V30 14 1 14 15
M  V30 15 2 15 16
M  V30 16 1 16 17
M  V30 17 2 17 18
M  V30 18 1 18 19
M  V30 19 1 19 20
M  V30 20 2 19 21
M  V30 21 2 19 22
M  V30 22 1 18 23
M  V30 23 2 23 24
M  V30 24 2 14 25
M  V30 25 1 25 26
M  V30 26 1 25 4
M  V30 27 1 12 7
M  V30 28 1 24 15
M  V30 29 1 1 27
M  V30 30 1 1 28
M  V30 31 1 5 29
M  V30 32 1 8 30
M  V30 33 1 9 31
M  V30 34 1 10 32
M  V30 35 1 11 33
M  V30 36 1 12 34
M  V30 37 1 13 35
M  V30 38 1 16 36
M  V30 39 1 17 37
M  V30 40 1 20 38
M  V30 41 1 20 39
M  V30 42 1 23 40
M  V30 43 1 24 41
M  V30 44 1 26 42
M  V30 45 1 26 43
M  V30 END BOND
M  V30 END CTAB
M  END
>  <Dataset>  (204) 
ChEMBL_Kinases

>  <Ligand_Instance>  (204) 
nan

>  <PDB_ID>  (204) 
nan

>  <Standardized_SMILES>  (204) 
NC(=O)c1cc(-c2ccccc2)cc(-c2ccc(S(N)(=O)=O)cc2)c1N

>  <Name>  (204) 
nan

>  <Pocket>  (204) 
nan

>  <ATP_Site>  (204) 
nan

>  <Peripheral>  (204) 
nan

>  <Num_H_Atoms_ProtBoundConf>  (204) 
nan

>  <Num_Resolved_Atoms>  (204) 
nan

>  <Num_Not_Resolved_Atoms>  (204) 
nan

$$$$
CHEMBL3652644
     RDKit          3D

  0  0  0  0  0  0  0  0  0  0999 V3000
M  V30 BEGIN CTAB
M  V30 COUNTS 49 52 0 0 0
M  V30 BEGIN ATOM
M  V30 1 C -4.529161 -2.921157 0.538563 0
M  V30 2 N -3.803194 -1.720839 0.275760 0
M  V30 3 N -4.312678 -0.603483 -0.216233 0
M  V30 4 C -3.384415 0.332304 -0.347463 0
M  V30 5 C -2.224710 -0.254155 0.095681 0
M  V30 6 N -0.939341 0.355003 0.151244 0
M  V30 7 C -0.583576 1.041217 1.341071 0
M  V30 8 O -1.470357 1.024084 2.217381 0
M  V30 9 C 0.707569 1.726211 1.562746 0
M  V30 10 N 1.657473 1.744737 0.623647 0
M  V30 11 C 2.710498 2.285418 0.763463 0
M  V30 12 C 3.925421 2.454343 -0.107853 0
M  V30 13 C 5.015720 3.154912 0.356174 0
M  V30 14 F 5.039785 3.708300 1.587168 0
M  V30 15 C 6.097870 3.260983 -0.520704 0
M  V30 16 C 6.030774 2.677337 -1.776079 0
M  V30 17 C 4.913178 1.979512 -2.205674 0
M  V30 18 C 3.835459 1.872460 -1.335653 0
M  V30 19 F 2.717731 1.186361 -1.738538 0
M  V30 20 S 2.701069 3.010114 2.418525 0
M  V30 21 C 0.957601 2.364135 2.752828 0
M  V30 22 N 0.121737 2.483803 3.888008 0
M  V30 23 C -2.464469 -1.575517 0.503044 0
M  V30 24 C -1.473262 -2.564132 1.048594 0
M  V30 25 C -0.856839 -3.401103 -0.011051 0
M  V30 26 C -0.623486 -4.832709 0.336985 0
M  V30 27 N -1.630156 -5.425171 1.151228 0
M  V30 28 C -2.121890 -4.703616 2.245023 0
M  V30 29 C -1.902755 -3.237328 2.298219 0
M  V30 30 H -4.901649 -3.073055 1.545114 0
M  V30 31 H -3.989771 -3.841524 0.210604 0
M  V30 32 H -5.444617 -2.916473 -0.113738 0
M  V30 33 H -3.472746 1.339245 -0.713979 0
M  V30 34 H -0.223715 0.335353 -0.632080 0
M  V30 35 H 6.990474 3.796478 -0.227368 0
M  V30 36 H 6.845700 2.732677 -2.492154 0
M  V30 37 H 4.831038 1.514398 -3.176212 0
M  V30 38 H -0.483326 3.336811 3.974509 0
M  V30 39 H -0.004130 1.840441 4.693664 0
M  V30 40 H -0.609787 -1.902620 1.383178 0
M  V30 41 H -1.584792 -3.387375 -0.874829 0
M  V30 42 H 0.072929 -2.989044 -0.454171 0
M  V30 43 H 0.350386 -4.975126 0.855746 0
M  V30 44 H -0.555203 -5.449565 -0.584560 0
M  V30 45 H -2.296562 -6.054451 0.664689 0
M  V30 46 H -1.773877 -5.235169 3.180382 0
M  V30 47 H -3.242906 -4.853215 2.270181 0
M  V30 48 H -1.207870 -3.072532 3.180874 0
M  V30 49 H -2.818273 -2.674728 2.659648 0
M  V30 END ATOM
M  V30 BEGIN BOND
M  V30 1 1 1 2
M  V30 2 1 2 3
M  V30 3 2 3 4
M  V30 4 1 4 5
M  V30 5 1 5 6
M  V30 6 1 6 7
M  V30 7 2 7 8
M  V30 8 1 7 9
M  V30 9 1 9 10
M  V30 10 2 10 11
M  V30 11 1 11 12
M  V30 12 2 12 13
M  V30 13 1 13 14
M  V30 14 1 13 15
M  V30 15 2 15 16
M  V30 16 1 16 17
M  V30 17 2 17 18
M  V30 18 1 18 19
M  V30 19 1 11 20
M  V30 20 1 20 21
M  V30 21 1 21 22
M  V30 22 2 5 23
M  V30 23 1 23 24
M  V30 24 1 24 25
M  V30 25 1 25 26
M  V30 26 1 26 27
M  V30 27 1 27 28
M  V30 28 1 28 29
M  V30 29 1 23 2
M  V30 30 1 29 24
M  V30 31 2 21 9
M  V30 32 1 18 12
M  V30 33 1 1 30
M  V30 34 1 1 31
M  V30 35 1 1 32
M  V30 36 1 4 33
M  V30 37 1 6 34
M  V30 38 1 15 35
M  V30 39 1 16 36
M  V30 40 1 17 37
M  V30 41 1 22 38
M  V30 42 1 22 39
M  V30 43 1 24 40
M  V30 44 1 25 41
M  V30 45 1 25 42
M  V30 46 1 26 43
M  V30 47 1 26 44
M  V30 48 1 27 45
M  V30 49 1 28 46
M  V30 50 1 28 47
M  V30 51 1 29 48
M  V30 52 1 29 49
M  V30 END BOND
M  V30 END CTAB
M  END
>  <Dataset>  (205) 
ChEMBL_Kinases

>  <Ligand_Instance>  (205) 
nan

>  <PDB_ID>  (205) 
nan

>  <Standardized_SMILES>  (205) 
Cn1ncc(NC(=O)c2nc(-c3c(F)cccc3F)sc2N)c1C1CCNCC1

>  <Name>  (205) 
nan

>  <Pocket>  (205) 
nan

>  <ATP_Site>  (205) 
nan

>  <Peripheral>  (205) 
nan

>  <Num_H_Atoms_ProtBoundConf>  (205) 
nan

>  <Num_Resolved_Atoms>  (205) 
nan

>  <Num_Not_Resolved_Atoms>  (205) 
nan

$$$$
CHEMBL3652643
     RDKit          3D

  0  0  0  0  0  0  0  0  0  0999 V3000
M  V30 BEGIN CTAB
M  V30 COUNTS 55 58 0 0 0
M  V30 BEGIN ATOM
M  V30 1 C 0.752468 -4.424444 4.623227 0
M  V30 2 N 1.167801 -3.174260 3.979602 0
M  V30 3 N 2.219713 -2.486257 4.463070 0
M  V30 4 C 2.415649 -1.374896 3.735832 0
M  V30 5 C 1.441805 -1.384100 2.765650 0
M  V30 6 N 1.409986 -0.323835 1.835269 0
M  V30 7 C 2.322836 0.765418 1.855993 0
M  V30 8 O 3.245452 0.870475 2.718495 0
M  V30 9 C 2.287049 1.875235 0.880842 0
M  V30 10 C 3.181395 2.909236 0.923318 0
M  V30 11 C 3.163617 3.953142 0.021378 0
M  V30 12 C 2.211894 3.979907 -0.978170 0
M  V30 13 F 2.256850 5.025786 -1.817291 0
M  V30 14 C 1.308746 2.923481 -1.010730 0
M  V30 15 C 0.323047 2.992769 -2.081558 0
M  V30 16 C 0.399691 2.487326 -3.360407 0
M  V30 17 F 1.560680 1.841137 -3.630541 0
M  V30 18 C -0.613167 2.634954 -4.258376 0
M  V30 19 C -1.771977 3.315791 -3.890706 0
M  V30 20 C -1.879371 3.834030 -2.616157 0
M  V30 21 C -0.834292 3.678676 -1.697869 0
M  V30 22 F -1.060880 4.235779 -0.470462 0
M  V30 23 N 1.374224 1.933081 -0.104966 0
M  V30 24 C 0.653111 -2.498969 2.901247 0
M  V30 25 N -0.425229 -2.882128 2.088733 0
M  V30 26 C -0.947850 -4.229418 2.171985 0
M  V30 27 C -1.626074 -4.753450 0.955781 0
M  V30 28 C -1.323365 -4.084706 -0.334813 0
M  V30 29 C -2.387271 -3.015327 -0.535994 0 CFG=1
M  V30 30 N -3.633651 -3.540676 -0.960649 0
M  V30 31 C -2.466267 -2.292794 0.805535 0
M  V30 32 C -1.028633 -1.936370 1.206452 0
M  V30 33 H 1.123994 -4.361954 5.701367 0
M  V30 34 H 1.291997 -5.308118 4.241647 0
M  V30 35 H -0.322076 -4.517339 4.747431 0
M  V30 36 H 3.260251 -0.833221 4.133073 0
M  V30 37 H 0.807703 -0.133207 1.042389 0
M  V30 38 H 3.939043 2.911950 1.698612 0
M  V30 39 H 3.904061 4.726128 0.127530 0
M  V30 40 H -0.519089 2.226993 -5.248826 0
M  V30 41 H -2.593542 3.445248 -4.592844 0
M  V30 42 H -2.796408 4.367985 -2.339867 0
M  V30 43 H -0.155819 -4.959984 2.431813 0
M  V30 44 H -1.761780 -4.162200 2.954067 0
M  V30 45 H -2.755623 -4.791107 1.043814 0
M  V30 46 H -1.380490 -5.852855 0.807038 0
M  V30 47 H -0.317000 -3.695566 -0.463320 0
M  V30 48 H -1.478424 -4.818465 -1.177508 0
M  V30 49 H -2.002809 -2.288384 -1.255431 0
M  V30 50 H -3.871145 -3.172569 -1.899500 0
M  V30 51 H -4.402099 -3.547005 -0.284089 0
M  V30 52 H -3.029967 -1.353518 0.624485 0
M  V30 53 H -2.998501 -2.850291 1.572629 0
M  V30 54 H -1.178655 -1.004806 1.802975 0
M  V30 55 H -0.516525 -1.823242 0.256042 0
M  V30 END ATOM
M  V30 BEGIN BOND
M  V30 1 1 1 2
M  V30 2 1 2 3
M  V30 3 2 3 4
M  V30 4 1 4 5
M  V30 5 1 5 6
M  V30 6 1 6 7
M  V30 7 2 7 8
M  V30 8 1 7 9
M  V30 9 2 9 10
M  V30 10 1 10 11
M  V30 11 2 11 12
M  V30 12 1 12 13
M  V30 13 1 12 14
M  V30 14 1 14 15
M  V30 15 2 15 16
M  V30 16 1 16 17
M  V30 17 1 16 18
M  V30 18 2 18 19
M  V30 19 1 19 20
M  V30 20 2 20 21
M  V30 21 1 21 22
M  V30 22 2 14 23
M  V30 23 2 5 24
M  V30 24 1 24 25
M  V30 25 1 25 26
M  V30 26 1 26 27
M  V30 27 1 27 28
M  V30 28 1 28 29
M  V30 29 1 29 30
M  V30 30 1 29 31
M  V30 31 1 31 32
M  V30 32 1 24 2
M  V30 33 1 32 25
M  V30 34 1 23 9
M  V30 35 1 21 15
M  V30 36 1 1 33
M  V30 37 1 1 34
M  V30 38 1 1 35
M  V30 39 1 4 36
M  V30 40 1 6 37
M  V30 41 1 10 38
M  V30 42 1 11 39
M  V30 43 1 18 40
M  V30 44 1 19 41
M  V30 45 1 20 42
M  V30 46 1 26 43
M  V30 47 1 26 44
M  V30 48 1 27 45
M  V30 49 1 27 46
M  V30 50 1 28 47
M  V30 51 1 28 48
M  V30 52 1 29 49 CFG=3
M  V30 53 1 30 50
M  V30 54 1 30 51
M  V30 55 1 31 52
M  V30 56 1 31 53
M  V30 57 1 32 54
M  V30 58 1 32 55
M  V30 END BOND
M  V30 END CTAB
M  END
>  <Dataset>  (206) 
ChEMBL_Kinases

>  <Ligand_Instance>  (206) 
nan

>  <PDB_ID>  (206) 
nan

>  <Standardized_SMILES>  (206) 
Cn1ncc(NC(=O)c2ccc(F)c(-c3c(F)cccc3F)n2)c1N1CCC[C@@H](N)CC1

>  <Name>  (206) 
nan

>  <Pocket>  (206) 
nan

>  <ATP_Site>  (206) 
nan

>  <Peripheral>  (206) 
nan

>  <Num_H_Atoms_ProtBoundConf>  (206) 
nan

>  <Num_Resolved_Atoms>  (206) 
nan

>  <Num_Not_Resolved_Atoms>  (206) 
nan

$$$$
CHEMBL3965757
     RDKit          3D

  0  0  0  0  0  0  0  0  0  0999 V3000
M  V30 BEGIN CTAB
M  V30 COUNTS 55 59 0 0 0
M  V30 BEGIN ATOM
M  V30 1 C 1.729395 2.497288 3.404432 0
M  V30 2 C 1.808961 1.207465 2.639704 0 CFG=2
M  V30 3 C 3.130079 0.559505 3.011447 0
M  V30 4 C 3.159961 -0.896934 2.532215 0
M  V30 5 C 2.191689 -0.947324 1.344213 0 CFG=2
M  V30 6 N 2.492105 -2.099715 0.504061 0
M  V30 7 C 2.382514 0.330230 0.568345 0
M  V30 8 N 1.676126 1.406169 1.229132 0
M  V30 9 C 0.966417 2.476423 0.577512 0
M  V30 10 C 1.465775 3.753848 0.719048 0
M  V30 11 C 0.890443 4.863548 0.135994 0
M  V30 12 N -0.229837 4.636131 -0.610943 0
M  V30 13 C -0.694568 3.385061 -0.732450 0
M  V30 14 C -0.163311 2.244083 -0.174848 0
M  V30 15 N -0.708170 0.946386 -0.333070 0
M  V30 16 C -1.853330 0.577931 -1.091324 0
M  V30 17 N -2.678057 1.341291 -1.823465 0
M  V30 18 C -3.629315 0.617610 -2.377891 0
M  V30 19 C -3.398342 -0.679594 -1.976962 0
M  V30 20 C -4.095972 -1.832793 -2.271035 0
M  V30 21 C -3.671798 -3.037421 -1.747701 0
M  V30 22 C -2.546707 -3.009838 -0.942211 0
M  V30 23 C -2.091711 -4.291789 -0.382802 0
M  V30 24 C -2.632298 -4.613342 0.835371 0
M  V30 25 F -3.524983 -3.806581 1.481739 0
M  V30 26 C -2.306664 -5.783593 1.493596 0
M  V30 27 C -1.398767 -6.620266 0.852776 0
M  V30 28 C -0.839449 -6.320905 -0.373572 0
M  V30 29 C -1.192185 -5.140295 -0.997757 0
M  V30 30 F -0.694168 -4.764407 -2.201213 0
M  V30 31 N -1.896113 -1.854402 -0.682415 0
M  V30 32 N -2.310605 -0.683777 -1.192622 0
M  V30 33 H 0.948219 3.191928 3.061495 0
M  V30 34 H 1.424656 2.212943 4.456480 0
M  V30 35 H 2.728022 2.980381 3.427119 0
M  V30 36 H 0.951105 0.592998 2.967095 0
M  V30 37 H 3.189079 0.519359 4.117851 0
M  V30 38 H 3.987050 1.141115 2.618679 0
M  V30 39 H 4.162551 -1.116589 2.148755 0
M  V30 40 H 2.805970 -1.569076 3.338960 0
M  V30 41 H 1.180086 -1.044452 1.789664 0
M  V30 42 H 3.517600 -2.276610 0.444873 0
M  V30 43 H 1.912960 -2.932237 0.713451 0
M  V30 44 H 3.466400 0.578146 0.645036 0
M  V30 45 H 2.084841 0.217916 -0.514154 0
M  V30 46 H 2.348542 3.991127 1.294764 0
M  V30 47 H 1.267308 5.871034 0.235869 0
M  V30 48 H -1.578712 3.341595 -1.343906 0
M  V30 49 H -0.192614 0.181683 0.181243 0
M  V30 50 H -4.415450 1.042067 -3.020952 0
M  V30 51 H -4.965550 -1.804788 -2.902532 0
M  V30 52 H -4.192711 -3.956484 -1.956803 0
M  V30 53 H -2.733502 -6.031395 2.449246 0
M  V30 54 H -1.153639 -7.539962 1.387792 0
M  V30 55 H -0.134240 -6.991629 -0.850084 0
M  V30 END ATOM
M  V30 BEGIN BOND
M  V30 1 1 1 2
M  V30 2 1 2 3
M  V30 3 1 3 4
M  V30 4 1 4 5
M  V30 5 1 5 6
M  V30 6 1 5 7
M  V30 7 1 7 8
M  V30 8 1 8 9
M  V30 9 2 9 10
M  V30 10 1 10 11
M  V30 11 2 11 12
M  V30 12 1 12 13
M  V30 13 2 13 14
M  V30 14 1 14 15
M  V30 15 1 15 16
M  V30 16 2 16 17
M  V30 17 1 17 18
M  V30 18 2 18 19
M  V30 19 1 19 20
M  V30 20 2 20 21
M  V30 21 1 21 22
M  V30 22 1 22 23
M  V30 23 2 23 24
M  V30 24 1 24 25
M  V30 25 1 24 26
M  V30 26 2 26 27
M  V30 27 1 27 28
M  V30 28 2 28 29
M  V30 29 1 29 30
M  V30 30 2 22 31
M  V30 31 1 31 32
M  V30 32 1 8 2
M  V30 33 1 14 9
M  V30 34 1 32 16
M  V30 35 1 32 19
M  V30 36 1 29 23
M  V30 37 1 1 33
M  V30 38 1 1 34
M  V30 39 1 1 35
M  V30 40 1 2 36 CFG=1
M  V30 41 1 3 37
M  V30 42 1 3 38
M  V30 43 1 4 39
M  V30 44 1 4 40
M  V30 45 1 5 41 CFG=1
M  V30 46 1 6 42
M  V30 47 1 6 43
M  V30 48 1 7 44
M  V30 49 1 7 45
M  V30 50 1 10 46
M  V30 51 1 11 47
M  V30 52 1 13 48
M  V30 53 1 15 49
M  V30 54 1 18 50
M  V30 55 1 20 51
M  V30 56 1 21 52
M  V30 57 1 26 53
M  V30 58 1 27 54
M  V30 59 1 28 55
M  V30 END BOND
M  V30 END CTAB
M  END
>  <Dataset>  (207) 
ChEMBL_Kinases

>  <Ligand_Instance>  (207) 
nan

>  <PDB_ID>  (207) 
nan

>  <Standardized_SMILES>  (207) 
C[C@@H]1CC[C@H](N)CN1c1ccncc1Nc1ncc2ccc(-c3c(F)cccc3F)nn12

>  <Name>  (207) 
nan

>  <Pocket>  (207) 
nan

>  <ATP_Site>  (207) 
nan

>  <Peripheral>  (207) 
nan

>  <Num_H_Atoms_ProtBoundConf>  (207) 
nan

>  <Num_Resolved_Atoms>  (207) 
nan

>  <Num_Not_Resolved_Atoms>  (207) 
nan

$$$$
CHEMBL3652642
     RDKit          3D

  0  0  0  0  0  0  0  0  0  0999 V3000
M  V30 BEGIN CTAB
M  V30 COUNTS 52 55 0 0 0
M  V30 BEGIN ATOM
M  V30 1 C -0.243223 -1.072014 3.495208 0
M  V30 2 N 0.179747 -1.958056 2.429770 0
M  V30 3 C 0.309091 -3.271858 2.957373 0
M  V30 4 C 1.025692 -4.225947 2.046987 0
M  V30 5 C 1.117264 -3.659172 0.679179 0
M  V30 6 C -0.003790 -3.647162 -0.209676 0
M  V30 7 C -0.916821 -2.730285 -0.715158 0
M  V30 8 N -0.900642 -1.337136 -0.424445 0
M  V30 9 C -0.122729 -0.603392 -1.363190 0
M  V30 10 O 0.388653 -1.320850 -2.249853 0
M  V30 11 C 0.074489 0.844859 -1.317427 0
M  V30 12 N -0.481551 1.594374 -0.367958 0
M  V30 13 C -0.335479 2.794264 -0.307541 0
M  V30 14 C -0.851355 3.846514 0.651630 0
M  V30 15 C -0.514095 5.150025 0.461320 0
M  V30 16 F 0.272954 5.568259 -0.557430 0
M  V30 17 C -1.039705 6.046015 1.400759 0
M  V30 18 C -1.838569 5.596965 2.431277 0
M  V30 19 C -2.156223 4.261573 2.586992 0
M  V30 20 C -1.645317 3.353276 1.665482 0
M  V30 21 F -1.925354 2.012458 1.766151 0
M  V30 22 S 0.712792 3.287803 -1.674280 0
M  V30 23 C 0.859284 1.491973 -2.278982 0
M  V30 24 N 1.547953 0.869870 -3.386547 0
M  V30 25 C -1.854544 -3.299169 -1.557580 0
M  V30 26 N -1.494731 -4.581575 -1.556280 0
M  V30 27 N -0.437908 -4.795530 -0.790268 0
M  V30 28 C 0.026839 -6.144422 -0.722411 0
M  V30 29 C 1.898436 -2.373298 0.808418 0
M  V30 30 C 1.328064 -1.438023 1.781187 0
M  V30 31 H -1.027936 -1.602939 4.093562 0
M  V30 32 H 0.632314 -0.773156 4.112286 0
M  V30 33 H -0.748352 -0.206291 3.006310 0
M  V30 34 H 0.736432 -3.184488 3.975819 0
M  V30 35 H -0.724036 -3.690807 3.096552 0
M  V30 36 H 0.703307 -5.280221 2.103920 0
M  V30 37 H 2.062331 -4.264182 2.458398 0
M  V30 38 H 1.905985 -4.323592 0.171041 0
M  V30 39 H -1.367718 -0.788062 0.361744 0
M  V30 40 H -0.801514 7.090930 1.294337 0
M  V30 41 H -2.254476 6.276657 3.168588 0
M  V30 42 H -2.777080 3.859248 3.376798 0
M  V30 43 H 2.540298 0.557837 -3.183813 0
M  V30 44 H 1.134264 0.721203 -4.329011 0
M  V30 45 H -2.656026 -2.777582 -2.061585 0
M  V30 46 H -0.419091 -6.822644 -0.019302 0
M  V30 47 H 0.030020 -6.676757 -1.704705 0
M  V30 48 H 1.113216 -6.088236 -0.468905 0
M  V30 49 H 2.148030 -1.936048 -0.184349 0
M  V30 50 H 2.929759 -2.659811 1.197578 0
M  V30 51 H 1.120284 -0.444447 1.278553 0
M  V30 52 H 2.105106 -1.143495 2.557166 0
M  V30 END ATOM
M  V30 BEGIN BOND
M  V30 1 1 1 2
M  V30 2 1 2 3
M  V30 3 1 3 4
M  V30 4 1 4 5
M  V30 5 1 5 6
M  V30 6 2 6 7
M  V30 7 1 7 8
M  V30 8 1 8 9
M  V30 9 2 9 10
M  V30 10 1 9 11
M  V30 11 1 11 12
M  V30 12 2 12 13
M  V30 13 1 13 14
M  V30 14 2 14 15
M  V30 15 1 15 16
M  V30 16 1 15 17
M  V30 17 2 17 18
M  V30 18 1 18 19
M  V30 19 2 19 20
M  V30 20 1 20 21
M  V30 21 1 13 22
M  V30 22 1 22 23
M  V30 23 1 23 24
M  V30 24 1 7 25
M  V30 25 2 25 26
M  V30 26 1 26 27
M  V30 27 1 27 28
M  V30 28 1 5 29
M  V30 29 1 29 30
M  V30 30 1 30 2
M  V30 31 1 27 6
M  V30 32 2 23 11
M  V30 33 1 20 14
M  V30 34 1 1 31
M  V30 35 1 1 32
M  V30 36 1 1 33
M  V30 37 1 3 34
M  V30 38 1 3 35
M  V30 39 1 4 36
M  V30 40 1 4 37
M  V30 41 1 5 38
M  V30 42 1 8 39
M  V30 43 1 17 40
M  V30 44 1 18 41
M  V30 45 1 19 42
M  V30 46 1 24 43
M  V30 47 1 24 44
M  V30 48 1 25 45
M  V30 49 1 28 46
M  V30 50 1 28 47
M  V30 51 1 28 48
M  V30 52 1 29 49
M  V30 53 1 29 50
M  V30 54 1 30 51
M  V30 55 1 30 52
M  V30 END BOND
M  V30 END CTAB
M  END
>  <Dataset>  (208) 
ChEMBL_Kinases

>  <Ligand_Instance>  (208) 
nan

>  <PDB_ID>  (208) 
nan

>  <Standardized_SMILES>  (208) 
CN1CCC(c2c(NC(=O)c3nc(-c4c(F)cccc4F)sc3N)cnn2C)CC1

>  <Name>  (208) 
nan

>  <Pocket>  (208) 
nan

>  <ATP_Site>  (208) 
nan

>  <Peripheral>  (208) 
nan

>  <Num_H_Atoms_ProtBoundConf>  (208) 
nan

>  <Num_Resolved_Atoms>  (208) 
nan

>  <Num_Not_Resolved_Atoms>  (208) 
nan

$$$$
CHEMBL3970483
     RDKit          3D

  0  0  0  0  0  0  0  0  0  0999 V3000
M  V30 BEGIN CTAB
M  V30 COUNTS 41 44 0 0 0
M  V30 BEGIN ATOM
M  V30 1 C 3.785040 -5.856885 3.107056 0
M  V30 2 C 4.041318 -4.813502 2.076054 0
M  V30 3 C 5.222629 -4.841876 1.364107 0
M  V30 4 C 5.505917 -3.884954 0.388071 0
M  V30 5 C 4.521798 -2.920930 0.195417 0
M  V30 6 C 3.346758 -2.856562 0.873347 0
M  V30 7 C 2.310944 -1.857724 0.684086 0
M  V30 8 C 2.249272 -0.848008 -0.121149 0
M  V30 9 C 1.343956 0.224048 -0.452910 0
M  V30 10 N 1.667664 1.136754 -1.415158 0
M  V30 11 N 0.704803 2.009465 -1.544553 0
M  V30 12 C -0.319673 1.771635 -0.709632 0
M  V30 13 C -1.537010 2.367844 -0.450443 0
M  V30 14 C -2.356820 1.822141 0.513970 0
M  V30 15 C -3.634962 2.476094 0.763656 0
M  V30 16 C -4.750786 1.774914 1.170782 0
M  V30 17 C -5.965545 2.396818 1.408516 0
M  V30 18 N -6.095216 3.728919 1.246128 0
M  V30 19 C -5.020176 4.433963 0.849493 0
M  V30 20 C -3.780954 3.847417 0.599870 0
M  V30 21 C -1.928988 0.696478 1.186702 0
M  V30 22 C -0.711468 0.111982 0.917606 0
M  V30 23 C 0.109056 0.648912 -0.039860 0
M  V30 24 C 3.140402 -3.832970 1.817730 0
M  V30 25 H 4.199580 -5.572316 4.100496 0
M  V30 26 H 2.717512 -6.093118 3.233652 0
M  V30 27 H 4.308339 -6.807376 2.813972 0
M  V30 28 H 5.978714 -5.604884 1.530808 0
M  V30 29 H 6.415969 -3.901165 -0.165016 0
M  V30 30 H 4.747193 -2.191043 -0.554916 0
M  V30 31 H 1.422522 -1.911754 1.282794 0
M  V30 32 H 3.203897 -0.896476 -0.675460 0
M  V30 33 H 0.780012 2.785156 -2.238120 0
M  V30 34 H -1.794282 3.242500 -1.019971 0
M  V30 35 H -4.621949 0.700109 1.295237 0
M  V30 36 H -6.774621 1.755277 1.723512 0
M  V30 37 H -5.138423 5.512534 0.721554 0
M  V30 38 H -2.945285 4.457573 0.282394 0
M  V30 39 H -2.595848 0.310982 1.922420 0
M  V30 40 H -0.430068 -0.760224 1.470080 0
M  V30 41 H 2.231613 -3.855799 2.402761 0
M  V30 END ATOM
M  V30 BEGIN BOND
M  V30 1 1 1 2
M  V30 2 2 2 3
M  V30 3 1 3 4
M  V30 4 2 4 5
M  V30 5 1 5 6
M  V30 6 1 6 7
M  V30 7 2 7 8
M  V30 8 1 8 9
M  V30 9 2 9 10
M  V30 10 1 10 11
M  V30 11 1 11 12
M  V30 12 2 12 13
M  V30 13 1 13 14
M  V30 14 1 14 15
M  V30 15 2 15 16
M  V30 16 1 16 17
M  V30 17 2 17 18
M  V30 18 1 18 19
M  V30 19 2 19 20
M  V30 20 2 14 21
M  V30 21 1 21 22
M  V30 22 2 22 23
M  V30 23 2 6 24
M  V30 24 1 24 2
M  V30 25 1 23 9
M  V30 26 1 23 12
M  V30 27 1 20 15
M  V30 28 1 1 25
M  V30 29 1 1 26
M  V30 30 1 1 27
M  V30 31 1 3 28
M  V30 32 1 4 29
M  V30 33 1 5 30
M  V30 34 1 7 31
M  V30 35 1 8 32
M  V30 36 1 11 33
M  V30 37 1 13 34
M  V30 38 1 16 35
M  V30 39 1 17 36
M  V30 40 1 19 37
M  V30 41 1 20 38
M  V30 42 1 21 39
M  V30 43 1 22 40
M  V30 44 1 24 41
M  V30 END BOND
M  V30 END CTAB
M  END
>  <Dataset>  (209) 
ChEMBL_Kinases

>  <Ligand_Instance>  (209) 
nan

>  <PDB_ID>  (209) 
nan

>  <Standardized_SMILES>  (209) 
Cc1cccc(/C=C/c2n[nH]c3cc(-c4ccncc4)ccc23)c1

>  <Name>  (209) 
nan

>  <Pocket>  (209) 
nan

>  <ATP_Site>  (209) 
nan

>  <Peripheral>  (209) 
nan

>  <Num_H_Atoms_ProtBoundConf>  (209) 
nan

>  <Num_Resolved_Atoms>  (209) 
nan

>  <Num_Not_Resolved_Atoms>  (209) 
nan

$$$$
CHEMBL3940411
     RDKit          3D

  0  0  0  0  0  0  0  0  0  0999 V3000
M  V30 BEGIN CTAB
M  V30 COUNTS 46 49 0 0 0
M  V30 BEGIN ATOM
M  V30 1 C -1.404543 -4.824691 1.510387 0
M  V30 2 C -0.730839 -3.732324 0.731304 0
M  V30 3 N -0.252616 -4.027484 -0.482451 0
M  V30 4 C 0.349544 -3.048290 -1.176681 0
M  V30 5 C 0.819814 -3.424629 -2.423385 0
M  V30 6 C 1.447451 -2.454770 -3.178296 0
M  V30 7 C 1.569429 -1.177618 -2.652808 0
M  V30 8 C 1.087289 -0.840526 -1.404727 0
M  V30 9 C 1.273847 0.532373 -0.959407 0
M  V30 10 C 0.935338 1.210375 0.189119 0
M  V30 11 C 1.320655 2.511966 0.161778 0
M  V30 12 C 1.929990 2.664956 -1.057742 0
M  V30 13 N 1.886751 1.480259 -1.695867 0
M  V30 14 C 2.380686 4.079089 -1.157212 0
M  V30 15 N 1.985798 4.691144 0.072833 0
M  V30 16 C 1.318349 3.751007 0.931708 0
M  V30 17 O 0.851506 3.975955 2.077286 0
M  V30 18 C 0.456191 -1.787120 -0.627985 0
M  V30 19 N -0.025815 -1.509673 0.582983 0
M  V30 20 C -0.632715 -2.465238 1.302006 0
M  V30 21 N -1.183173 -2.256851 2.617409 0
M  V30 22 C -1.159382 -1.014336 3.333342 0
M  V30 23 C -1.826820 -1.149333 4.689097 0
M  V30 24 C 0.277771 -0.600832 3.565090 0
M  V30 25 C -1.926635 -0.005219 2.521430 0
M  V30 26 H -2.486390 -4.662446 1.595924 0
M  V30 27 H -1.219262 -5.802564 1.034617 0
M  V30 28 H -0.959791 -4.904058 2.530831 0
M  V30 29 H 0.706699 -4.431362 -2.801022 0
M  V30 30 H 1.817000 -2.737058 -4.149678 0
M  V30 31 H 2.078886 -0.504692 -3.336138 0
M  V30 32 H 0.419308 0.749472 1.017277 0
M  V30 33 H 2.304765 1.391265 -2.652186 0
M  V30 34 H 1.865520 4.615050 -1.982286 0
M  V30 35 H 3.492842 4.142650 -1.237821 0
M  V30 36 H 2.147291 5.681822 0.336611 0
M  V30 37 H -1.633313 -3.062587 3.090150 0
M  V30 38 H -2.871094 -1.476893 4.602124 0
M  V30 39 H -1.235784 -1.840502 5.322801 0
M  V30 40 H -1.768597 -0.138983 5.150442 0
M  V30 41 H 0.357979 0.513176 3.678459 0
M  V30 42 H 0.950728 -0.977079 2.774660 0
M  V30 43 H 0.586249 -1.064823 4.524133 0
M  V30 44 H -2.984838 0.102617 2.864906 0
M  V30 45 H -1.477030 1.013638 2.623232 0
M  V30 46 H -1.950746 -0.231302 1.431656 0
M  V30 END ATOM
M  V30 BEGIN BOND
M  V30 1 1 1 2
M  V30 2 2 2 3
M  V30 3 1 3 4
M  V30 4 2 4 5
M  V30 5 1 5 6
M  V30 6 2 6 7
M  V30 7 1 7 8
M  V30 8 1 8 9
M  V30 9 2 9 10
M  V30 10 1 10 11
M  V30 11 2 11 12
M  V30 12 1 12 13
M  V30 13 1 12 14
M  V30 14 1 14 15
M  V30 15 1 15 16
M  V30 16 2 16 17
M  V30 17 2 8 18
M  V30 18 1 18 19
M  V30 19 2 19 20
M  V30 20 1 20 21
M  V30 21 1 21 22
M  V30 22 1 22 23
M  V30 23 1 22 24
M  V30 24 1 22 25
M  V30 25 1 20 2
M  V30 26 1 18 4
M  V30 27 1 13 9
M  V30 28 1 16 11
M  V30 29 1 1 26
M  V30 30 1 1 27
M  V30 31 1 1 28
M  V30 32 1 5 29
M  V30 33 1 6 30
M  V30 34 1 7 31
M  V30 35 1 10 32
M  V30 36 1 13 33
M  V30 37 1 14 34
M  V30 38 1 14 35
M  V30 39 1 15 36
M  V30 40 1 21 37
M  V30 41 1 23 38
M  V30 42 1 23 39
M  V30 43 1 23 40
M  V30 44 1 24 41
M  V30 45 1 24 42
M  V30 46 1 24 43
M  V30 47 1 25 44
M  V30 48 1 25 45
M  V30 49 1 25 46
M  V30 END BOND
M  V30 END CTAB
M  END
>  <Dataset>  (210) 
ChEMBL_Kinases

>  <Ligand_Instance>  (210) 
nan

>  <PDB_ID>  (210) 
nan

>  <Standardized_SMILES>  (210) 
Cc1nc2cccc(-c3cc4c([nH]3)CNC4=O)c2nc1NC(C)(C)C

>  <Name>  (210) 
nan

>  <Pocket>  (210) 
nan

>  <ATP_Site>  (210) 
nan

>  <Peripheral>  (210) 
nan

>  <Num_H_Atoms_ProtBoundConf>  (210) 
nan

>  <Num_Resolved_Atoms>  (210) 
nan

>  <Num_Not_Resolved_Atoms>  (210) 
nan

$$$$
CHEMBL3940661
     RDKit          3D

  0  0  0  0  0  0  0  0  0  0999 V3000
M  V30 BEGIN CTAB
M  V30 COUNTS 41 43 0 0 0
M  V30 BEGIN ATOM
M  V30 1 C 0.655651 -5.504379 1.050463 0
M  V30 2 S 1.233103 -4.096895 1.978042 0
M  V30 3 N 0.107414 -3.601830 2.920932 0
M  V30 4 O 2.392760 -4.544727 2.834158 0
M  V30 5 C 1.822118 -2.847526 0.937753 0
M  V30 6 C 0.873947 -2.020323 0.359975 0
M  V30 7 C 1.225264 -0.968107 -0.505810 0
M  V30 8 C 2.579850 -0.730109 -0.807427 0
M  V30 9 N 2.760279 0.403736 -1.666512 0
M  V30 10 C 1.837862 1.503450 -1.471932 0
M  V30 11 N 1.694784 2.511715 -2.344907 0
M  V30 12 C 0.832044 3.536232 -2.104946 0
M  V30 13 C 0.071975 3.581939 -0.957730 0
M  V30 14 Br -1.183425 4.867125 -0.385796 0
M  V30 15 C 0.218494 2.550285 -0.060217 0
M  V30 16 N -0.378559 2.244047 1.193954 0
M  V30 17 C -1.311827 1.371940 1.807152 0
M  V30 18 C -1.983707 0.382990 1.129772 0
M  V30 19 C -2.885437 -0.461658 1.783445 0
M  V30 20 C -3.052829 -0.241214 3.129519 0
M  V30 21 C -2.370065 0.756055 3.789254 0
M  V30 22 C -1.481760 1.590855 3.154047 0
M  V30 23 N 1.085346 1.561051 -0.348289 0
M  V30 24 C 3.507930 -1.559948 -0.226871 0
M  V30 25 C 3.131958 -2.581049 0.616622 0
M  V30 26 H 0.310896 -5.185440 0.022421 0
M  V30 27 H 1.430493 -6.278030 0.901120 0
M  V30 28 H -0.235356 -5.961319 1.532352 0
M  V30 29 H 0.353941 -3.359797 3.890407 0
M  V30 30 H -0.193471 -2.198633 0.585729 0
M  V30 31 H 0.319114 -0.447441 -0.884424 0
M  V30 32 H 3.507701 0.460556 -2.394559 0
M  V30 33 H 0.655457 4.377356 -2.755321 0
M  V30 34 H 0.141808 2.986494 1.693581 0
M  V30 35 H -1.798698 0.266752 0.069185 0
M  V30 36 H -3.420923 -1.244600 1.270345 0
M  V30 37 H -3.747386 -0.888894 3.641229 0
M  V30 38 H -2.553560 0.870436 4.851378 0
M  V30 39 H -0.999334 2.341518 3.766381 0
M  V30 40 H 4.522409 -1.325709 -0.491814 0
M  V30 41 H 3.876574 -3.212954 1.052423 0
M  V30 END ATOM
M  V30 BEGIN BOND
M  V30 1 1 1 2
M  V30 2 2 2 3
M  V30 3 2 2 4
M  V30 4 1 2 5
M  V30 5 2 5 6
M  V30 6 1 6 7
M  V30 7 2 7 8
M  V30 8 1 8 9
M  V30 9 1 9 10
M  V30 10 2 10 11
M  V30 11 1 11 12
M  V30 12 2 12 13
M  V30 13 1 13 14
M  V30 14 1 13 15
M  V30 15 1 15 16
M  V30 16 1 16 17
M  V30 17 2 17 18
M  V30 18 1 18 19
M  V30 19 2 19 20
M  V30 20 1 20 21
M  V30 21 2 21 22
M  V30 22 2 15 23
M  V30 23 1 8 24
M  V30 24 2 24 25
M  V30 25 1 25 5
M  V30 26 1 23 10
M  V30 27 1 22 17
M  V30 28 1 1 26
M  V30 29 1 1 27
M  V30 30 1 1 28
M  V30 31 1 3 29
M  V30 32 1 6 30
M  V30 33 1 7 31
M  V30 34 1 9 32
M  V30 35 1 12 33
M  V30 36 1 16 34
M  V30 37 1 18 35
M  V30 38 1 19 36
M  V30 39 1 20 37
M  V30 40 1 21 38
M  V30 41 1 22 39
M  V30 42 1 24 40
M  V30 43 1 25 41
M  V30 END BOND
M  V30 END CTAB
M  END
>  <Dataset>  (211) 
ChEMBL_Kinases

>  <Ligand_Instance>  (211) 
nan

>  <PDB_ID>  (211) 
nan

>  <Standardized_SMILES>  (211) 
CS(=N)(=O)c1ccc(Nc2ncc(Br)c(Nc3ccccc3)n2)cc1

>  <Name>  (211) 
nan

>  <Pocket>  (211) 
nan

>  <ATP_Site>  (211) 
nan

>  <Peripheral>  (211) 
nan

>  <Num_H_Atoms_ProtBoundConf>  (211) 
nan

>  <Num_Resolved_Atoms>  (211) 
nan

>  <Num_Not_Resolved_Atoms>  (211) 
nan

$$$$
CHEMBL3941443
     RDKit          3D

  0  0  0  0  0  0  0  0  0  0999 V3000
M  V30 BEGIN CTAB
M  V30 COUNTS 51 55 0 0 0
M  V30 BEGIN ATOM
M  V30 1 N 2.143971 -1.997863 4.223034 0
M  V30 2 C 2.904000 -0.772665 3.920391 0 CFG=1
M  V30 3 C 4.273054 -1.122882 3.442820 0
M  V30 4 C 4.937178 0.194043 3.032009 0
M  V30 5 C 4.258260 0.728149 1.800828 0
M  V30 6 N 2.856905 0.321324 1.693210 0
M  V30 7 C 2.431588 0.193002 0.340909 0
M  V30 8 N 3.255714 -0.401703 -0.542805 0
M  V30 9 C 2.902718 -0.586539 -1.809867 0
M  V30 10 N 1.701164 -0.182922 -2.255476 0
M  V30 11 C 0.824542 0.420842 -1.427902 0
M  V30 12 C 1.199776 0.609015 -0.113226 0
M  V30 13 N 0.286483 1.259867 0.724629 0
M  V30 14 C -1.009086 1.773616 0.464645 0
M  V30 15 N -1.509965 3.041330 0.511526 0
M  V30 16 C -2.810290 2.997192 0.153319 0
M  V30 17 C -3.125749 1.678708 -0.121615 0
M  V30 18 C -4.362929 1.197243 -0.532596 0
M  V30 19 C -4.462093 -0.176014 -0.765492 0
M  V30 20 C -3.289987 -0.879023 -0.548447 0
M  V30 21 C -3.365176 -2.317459 -0.788069 0
M  V30 22 C -3.015593 -2.753233 -2.064022 0
M  V30 23 F -2.627594 -1.865363 -3.003610 0
M  V30 24 C -3.027400 -4.081607 -2.477886 0
M  V30 25 C -3.422044 -5.031675 -1.527304 0
M  V30 26 C -3.772382 -4.598578 -0.248201 0
M  V30 27 C -3.750753 -3.274047 0.132057 0
M  V30 28 F -4.088656 -2.849611 1.349332 0
M  V30 29 N -2.122754 -0.347134 -0.148747 0
M  V30 30 N -2.008673 0.932210 0.073092 0
M  V30 31 C 2.185332 0.107910 2.957340 0
M  V30 32 H 1.841709 -2.377014 3.278303 0
M  V30 33 H 1.258348 -1.724033 4.722252 0
M  V30 34 H 3.040359 -0.269583 4.922678 0
M  V30 35 H 4.256732 -1.833563 2.586740 0
M  V30 36 H 4.836463 -1.570899 4.265903 0
M  V30 37 H 6.019139 0.119807 2.934806 0
M  V30 38 H 4.719832 0.914931 3.855843 0
M  V30 39 H 4.227407 1.857539 1.802968 0
M  V30 40 H 4.863868 0.445879 0.923551 0
M  V30 41 H 3.550338 -1.061350 -2.522289 0
M  V30 42 H -0.126622 0.721765 -1.857338 0
M  V30 43 H 0.408483 1.505580 1.743506 0
M  V30 44 H -3.458082 3.849525 0.098369 0
M  V30 45 H -5.218910 1.841172 -0.669480 0
M  V30 46 H -5.378734 -0.647319 -1.084850 0
M  V30 47 H -2.737480 -4.341850 -3.496819 0
M  V30 48 H -3.423892 -6.058827 -1.863008 0
M  V30 49 H -4.071426 -5.366245 0.463849 0
M  V30 50 H 2.035533 1.081287 3.444998 0
M  V30 51 H 1.215076 -0.429642 2.730799 0
M  V30 END ATOM
M  V30 BEGIN BOND
M  V30 1 1 1 2
M  V30 2 1 2 3
M  V30 3 1 3 4
M  V30 4 1 4 5
M  V30 5 1 5 6
M  V30 6 1 6 7
M  V30 7 2 7 8
M  V30 8 1 8 9
M  V30 9 2 9 10
M  V30 10 1 10 11
M  V30 11 2 11 12
M  V30 12 1 12 13
M  V30 13 1 13 14
M  V30 14 2 14 15
M  V30 15 1 15 16
M  V30 16 2 16 17
M  V30 17 1 17 18
M  V30 18 2 18 19
M  V30 19 1 19 20
M  V30 20 1 20 21
M  V30 21 2 21 22
M  V30 22 1 22 23
M  V30 23 1 22 24
M  V30 24 2 24 25
M  V30 25 1 25 26
M  V30 26 2 26 27
M  V30 27 1 27 28
M  V30 28 2 20 29
M  V30 29 1 29 30
M  V30 30 1 6 31
M  V30 31 1 31 2
M  V30 32 1 12 7
M  V30 33 1 30 14
M  V30 34 1 30 17
M  V30 35 1 27 21
M  V30 36 1 1 32
M  V30 37 1 1 33
M  V30 38 1 2 34 CFG=1
M  V30 39 1 3 35
M  V30 40 1 3 36
M  V30 41 1 4 37
M  V30 42 1 4 38
M  V30 43 1 5 39
M  V30 44 1 5 40
M  V30 45 1 9 41
M  V30 46 1 11 42
M  V30 47 1 13 43
M  V30 48 1 16 44
M  V30 49 1 18 45
M  V30 50 1 19 46
M  V30 51 1 24 47
M  V30 52 1 25 48
M  V30 53 1 26 49
M  V30 54 1 31 50
M  V30 55 1 31 51
M  V30 END BOND
M  V30 END CTAB
M  END
>  <Dataset>  (212) 
ChEMBL_Kinases

>  <Ligand_Instance>  (212) 
nan

>  <PDB_ID>  (212) 
nan

>  <Standardized_SMILES>  (212) 
N[C@H]1CCCN(c2ncncc2Nc2ncc3ccc(-c4c(F)cccc4F)nn23)C1

>  <Name>  (212) 
nan

>  <Pocket>  (212) 
nan

>  <ATP_Site>  (212) 
nan

>  <Peripheral>  (212) 
nan

>  <Num_H_Atoms_ProtBoundConf>  (212) 
nan

>  <Num_Resolved_Atoms>  (212) 
nan

>  <Num_Not_Resolved_Atoms>  (212) 
nan

$$$$
CHEMBL3942643
     RDKit          3D

  0  0  0  0  0  0  0  0  0  0999 V3000
M  V30 BEGIN CTAB
M  V30 COUNTS 70 74 0 0 0
M  V30 BEGIN ATOM
M  V30 1 C 3.908866 -4.558608 4.086199 0
M  V30 2 C 2.956686 -3.599624 4.710138 0
M  V30 3 C 3.470051 -2.204976 4.767199 0
M  V30 4 O 4.564445 -1.986428 5.366036 0
M  V30 5 N 2.738481 -1.165067 4.159953 0
M  V30 6 C 1.473091 -1.195004 3.405631 0
M  V30 7 C 1.559883 -0.199832 2.239050 0
M  V30 8 N 2.939373 -0.147245 1.874501 0
M  V30 9 S 3.271995 0.237370 0.255894 0
M  V30 10 O 4.757440 0.175057 0.049704 0
M  V30 11 O 2.698415 -0.842231 -0.646234 0
M  V30 12 C 2.689180 1.824100 -0.203419 0
M  V30 13 C 3.531514 2.902973 -0.044765 0
M  V30 14 C 3.073045 4.127335 -0.401603 0
M  V30 15 C 1.810939 4.316039 -0.909703 0
M  V30 16 C 0.931475 3.274226 -1.088750 0
M  V30 17 N -0.367287 3.481817 -1.616849 0
M  V30 18 C -1.399152 2.546864 -1.883821 0
M  V30 19 N -2.564589 2.997233 -2.382152 0
M  V30 20 C -3.608909 2.208969 -2.673100 0
M  V30 21 C -3.482417 0.855173 -2.448444 0
M  V30 22 C -2.298694 0.371064 -1.938817 0
M  V30 23 N -1.303197 1.226038 -1.675237 0
M  V30 24 N -1.952847 -0.980316 -1.633790 0
M  V30 25 C -0.543893 -1.259750 -1.639479 0
M  V30 26 C -2.855589 -2.036315 -1.338573 0
M  V30 27 C -2.178588 -3.046820 -0.661369 0
M  V30 28 C -2.930731 -4.159530 -0.301792 0
M  V30 29 C -4.278938 -4.262098 -0.597960 0
M  V30 30 C -5.007597 -5.488726 -0.174399 0
M  V30 31 C -4.938430 -3.253095 -1.269892 0
M  V30 32 C -4.204169 -2.145138 -1.632107 0
M  V30 33 C -5.027875 -1.167552 -2.332597 0
M  V30 34 O -6.227207 -1.451743 -2.581719 0
M  V30 35 N -4.654909 0.123771 -2.796134 0
M  V30 36 C -5.505779 0.843398 -3.728646 0
M  V30 37 C 1.439489 2.049699 -0.712652 0
M  V30 38 C 3.724723 0.573126 2.826767 0
M  V30 39 C 3.189329 0.213565 4.200545 0
M  V30 40 H 4.912095 -4.109278 3.919075 0
M  V30 41 H 4.061993 -5.462170 4.701608 0
M  V30 42 H 3.529207 -4.920500 3.083544 0
M  V30 43 H 2.848225 -3.919617 5.784290 0
M  V30 44 H 1.978016 -3.669446 4.239447 0
M  V30 45 H 1.292775 -2.213770 2.982116 0
M  V30 46 H 0.680509 -0.904740 4.118321 0
M  V30 47 H 1.239962 0.776870 2.669474 0
M  V30 48 H 0.900824 -0.529489 1.437110 0
M  V30 49 H 4.534392 2.823182 0.348728 0
M  V30 50 H 3.716288 5.016837 -0.289845 0
M  V30 51 H 1.510507 5.324314 -1.172700 0
M  V30 52 H -0.577626 4.504463 -1.839783 0
M  V30 53 H -4.517010 2.616755 -3.071155 0
M  V30 54 H -0.050158 -1.198982 -0.662601 0
M  V30 55 H -0.007879 -0.506383 -2.286521 0
M  V30 56 H -0.314222 -2.228461 -2.173182 0
M  V30 57 H -1.126581 -2.925657 -0.446962 0
M  V30 58 H -2.457175 -4.953954 0.215860 0
M  V30 59 H -4.555756 -6.406409 -0.608387 0
M  V30 60 H -4.925415 -5.543939 0.934192 0
M  V30 61 H -6.082177 -5.345416 -0.410661 0
M  V30 62 H -5.990739 -3.317482 -1.507176 0
M  V30 63 H -4.946092 1.272641 -4.561449 0
M  V30 64 H -6.168368 0.059124 -4.204928 0
M  V30 65 H -6.214144 1.533229 -3.242446 0
M  V30 66 H 0.839732 1.158532 -0.805375 0
M  V30 67 H 3.552000 1.665155 2.691195 0
M  V30 68 H 4.806831 0.403691 2.737107 0
M  V30 69 H 2.380000 0.919910 4.487407 0
M  V30 70 H 4.034134 0.248945 4.924586 0
M  V30 END ATOM
M  V30 BEGIN BOND
M  V30 1 1 1 2
M  V30 2 1 2 3
M  V30 3 2 3 4
M  V30 4 1 3 5
M  V30 5 1 5 6
M  V30 6 1 6 7
M  V30 7 1 7 8
M  V30 8 1 8 9
M  V30 9 2 9 10
M  V30 10 2 9 11
M  V30 11 1 9 12
M  V30 12 2 12 13
M  V30 13 1 13 14
M  V30 14 2 14 15
M  V30 15 1 15 16
M  V30 16 1 16 17
M  V30 17 1 17 18
M  V30 18 2 18 19
M  V30 19 1 19 20
M  V30 20 2 20 21
M  V30 21 1 21 22
M  V30 22 2 22 23
M  V30 23 1 22 24
M  V30 24 1 24 25
M  V30 25 1 24 26
M  V30 26 2 26 27
M  V30 27 1 27 28
M  V30 28 2 28 29
M  V30 29 1 29 30
M  V30 30 1 29 31
M  V30 31 2 31 32
M  V30 32 1 32 33
M  V30 33 2 33 34
M  V30 34 1 33 35
M  V30 35 1 35 36
M  V30 36 2 16 37
M  V30 37 1 8 38
M  V30 38 1 38 39
M  V30 39 1 39 5
M  V30 40 1 37 12
M  V30 41 1 23 18
M  V30 42 1 32 26
M  V30 43 1 35 21
M  V30 44 1 1 40
M  V30 45 1 1 41
M  V30 46 1 1 42
M  V30 47 1 2 43
M  V30 48 1 2 44
M  V30 49 1 6 45
M  V30 50 1 6 46
M  V30 51 1 7 47
M  V30 52 1 7 48
M  V30 53 1 13 49
M  V30 54 1 14 50
M  V30 55 1 15 51
M  V30 56 1 17 52
M  V30 57 1 20 53
M  V30 58 1 25 54
M  V30 59 1 25 55
M  V30 60 1 25 56
M  V30 61 1 27 57
M  V30 62 1 28 58
M  V30 63 1 30 59
M  V30 64 1 30 60
M  V30 65 1 30 61
M  V30 66 1 31 62
M  V30 67 1 36 63
M  V30 68 1 36 64
M  V30 69 1 36 65
M  V30 70 1 37 66
M  V30 71 1 38 67
M  V30 72 1 38 68
M  V30 73 1 39 69
M  V30 74 1 39 70
M  V30 END BOND
M  V30 END CTAB
M  END
>  <Dataset>  (213) 
ChEMBL_Kinases

>  <Ligand_Instance>  (213) 
nan

>  <PDB_ID>  (213) 
nan

>  <Standardized_SMILES>  (213) 
CCC(=O)N1CCN(S(=O)(=O)c2cccc(Nc3ncc4c(n3)N(C)c3ccc(C)cc3C(=O)N4C)c2)CC1

>  <Name>  (213) 
nan

>  <Pocket>  (213) 
nan

>  <ATP_Site>  (213) 
nan

>  <Peripheral>  (213) 
nan

>  <Num_H_Atoms_ProtBoundConf>  (213) 
nan

>  <Num_Resolved_Atoms>  (213) 
nan

>  <Num_Not_Resolved_Atoms>  (213) 
nan

$$$$
CHEMBL399168
     RDKit          3D

  0  0  0  0  0  0  0  0  0  0999 V3000
M  V30 BEGIN CTAB
M  V30 COUNTS 31 33 0 0 0
M  V30 BEGIN ATOM
M  V30 1 C 1.004065 -2.139515 3.428423 0
M  V30 2 N 1.569462 -3.142215 2.563158 0
M  V30 3 C 0.918313 -3.416334 1.325801 0
M  V30 4 N 0.128097 -4.470103 1.019513 0
M  V30 5 C -0.450254 -4.594496 -0.189388 0
M  V30 6 C -0.293299 -3.679503 -1.199761 0
M  V30 7 C 0.508182 -2.626993 -0.859888 0
M  V30 8 C 0.854565 -1.420025 -1.704310 0
M  V30 9 C 2.250103 -1.092112 -1.660278 0
M  V30 10 N 3.393858 -0.838615 -1.636696 0
M  V30 11 C 0.175567 -0.222275 -0.959276 0
M  V30 12 N 0.563475 0.463260 -0.156327 0
M  V30 13 C 0.041964 1.465706 0.506290 0
M  V30 14 C 0.492414 2.312744 1.484631 0
M  V30 15 C -0.295466 3.293617 2.004725 0
M  V30 16 C -1.606651 3.538267 1.613103 0
M  V30 17 C -2.167057 2.744673 0.629267 0
M  V30 18 C -1.256625 1.730869 0.137062 0
M  V30 19 S -1.575938 0.425802 -1.192946 0
M  V30 20 N 1.118276 -2.460237 0.358539 0
M  V30 21 H 0.553214 -2.515118 4.354619 0
M  V30 22 H 0.228667 -1.520369 2.924691 0
M  V30 23 H 1.818693 -1.416336 3.672150 0
M  V30 24 H 2.420676 -3.583768 2.926740 0
M  V30 25 H -1.083041 -5.446947 -0.424911 0
M  V30 26 H -0.690101 -3.660602 -2.193509 0
M  V30 27 H 0.398266 -1.494047 -2.695234 0
M  V30 28 H 1.487435 2.258665 1.901741 0
M  V30 29 H 0.054997 3.980754 2.791176 0
M  V30 30 H -2.280847 4.272332 1.973987 0
M  V30 31 H -3.126372 2.728610 0.172371 0
M  V30 END ATOM
M  V30 BEGIN BOND
M  V30 1 1 1 2
M  V30 2 1 2 3
M  V30 3 2 3 4
M  V30 4 1 4 5
M  V30 5 2 5 6
M  V30 6 1 6 7
M  V30 7 1 7 8
M  V30 8 1 8 9
M  V30 9 3 9 10
M  V30 10 1 8 11
M  V30 11 2 11 12
M  V30 12 1 12 13
M  V30 13 2 13 14
M  V30 14 1 14 15
M  V30 15 2 15 16
M  V30 16 1 16 17
M  V30 17 2 17 18
M  V30 18 1 18 19
M  V30 19 2 7 20
M  V30 20 1 20 3
M  V30 21 1 19 11
M  V30 22 1 18 13
M  V30 23 1 1 21
M  V30 24 1 1 22
M  V30 25 1 1 23
M  V30 26 1 2 24
M  V30 27 1 5 25
M  V30 28 1 6 26
M  V30 29 1 8 27
M  V30 30 1 14 28
M  V30 31 1 15 29
M  V30 32 1 16 30
M  V30 33 1 17 31
M  V30 END BOND
M  V30 END CTAB
M  END
>  <Dataset>  (214) 
ChEMBL_Kinases

>  <Ligand_Instance>  (214) 
nan

>  <PDB_ID>  (214) 
nan

>  <Standardized_SMILES>  (214) 
CNc1nccc(C(C#N)c2nc3ccccc3s2)n1

>  <Name>  (214) 
nan

>  <Pocket>  (214) 
nan

>  <ATP_Site>  (214) 
nan

>  <Peripheral>  (214) 
nan

>  <Num_H_Atoms_ProtBoundConf>  (214) 
nan

>  <Num_Resolved_Atoms>  (214) 
nan

>  <Num_Not_Resolved_Atoms>  (214) 
nan

$$$$
CHEMBL3943641
     RDKit          3D

  0  0  0  0  0  0  0  0  0  0999 V3000
M  V30 BEGIN CTAB
M  V30 COUNTS 41 44 0 0 0
M  V30 BEGIN ATOM
M  V30 1 C -0.535177 -4.147754 -0.484226 0
M  V30 2 O 0.071670 -2.874993 -0.574900 0
M  V30 3 C 1.168979 -2.583029 0.227246 0
M  V30 4 C 1.795259 -3.376098 1.146453 0
M  V30 5 C 2.878593 -2.935131 1.864966 0
M  V30 6 C 3.358151 -1.670859 1.669067 0
M  V30 7 C 2.732119 -0.842684 0.733193 0
M  V30 8 C 1.628227 -1.286520 -0.001598 0
M  V30 9 C 1.167789 -0.247785 -0.896545 0
M  V30 10 C 1.654107 -0.218635 -2.208455 0
M  V30 11 N 1.064674 0.836731 -2.840750 0
M  V30 12 C 0.229653 1.489427 -2.019121 0
M  V30 13 N -0.605153 2.541279 -1.995014 0
M  V30 14 C -1.305467 2.908989 -0.922960 0
M  V30 15 N -1.222855 2.233856 0.241461 0
M  V30 16 C -0.394822 1.151783 0.295583 0
M  V30 17 N -0.404592 0.531930 1.574687 0
M  V30 18 C -0.765898 -0.728051 2.222889 0
M  V30 19 C -1.680725 -0.587801 3.382283 0
M  V30 20 O -1.403707 0.487426 4.210191 0
M  V30 21 C -1.115768 1.645421 3.532852 0
M  V30 22 C 0.103349 1.372313 2.673079 0
M  V30 23 C 0.309202 0.805759 -0.830899 0
M  V30 24 H -0.595770 -4.450524 0.579006 0
M  V30 25 H 0.067017 -4.923602 -1.010546 0
M  V30 26 H -1.556651 -4.134104 -0.918482 0
M  V30 27 H 1.357006 -4.365298 1.245574 0
M  V30 28 H 3.341399 -3.613134 2.588442 0
M  V30 29 H 4.210239 -1.370541 2.256568 0
M  V30 30 H 3.212683 0.134828 0.676007 0
M  V30 31 H 2.376152 -0.887631 -2.704957 0
M  V30 32 H 1.194325 1.161962 -3.837985 0
M  V30 33 H -1.917353 3.794724 -1.139674 0
M  V30 34 H -1.254620 -1.352837 1.445325 0
M  V30 35 H 0.204999 -1.177566 2.573170 0
M  V30 36 H -2.761977 -0.573180 3.084538 0
M  V30 37 H -1.564037 -1.500285 4.010501 0
M  V30 38 H -0.895398 2.435608 4.262021 0
M  V30 39 H -1.945963 1.986035 2.870849 0
M  V30 40 H 0.892119 0.875218 3.258193 0
M  V30 41 H 0.461058 2.358699 2.317048 0
M  V30 END ATOM
M  V30 BEGIN BOND
M  V30 1 1 1 2
M  V30 2 1 2 3
M  V30 3 2 3 4
M  V30 4 1 4 5
M  V30 5 2 5 6
M  V30 6 1 6 7
M  V30 7 2 7 8
M  V30 8 1 8 9
M  V30 9 2 9 10
M  V30 10 1 10 11
M  V30 11 1 11 12
M  V30 12 2 12 13
M  V30 13 1 13 14
M  V30 14 2 14 15
M  V30 15 1 15 16
M  V30 16 1 16 17
M  V30 17 1 17 18
M  V30 18 1 18 19
M  V30 19 1 19 20
M  V30 20 1 20 21
M  V30 21 1 21 22
M  V30 22 2 16 23
M  V30 23 1 8 3
M  V30 24 1 23 9
M  V30 25 1 23 12
M  V30 26 1 22 17
M  V30 27 1 1 24
M  V30 28 1 1 25
M  V30 29 1 1 26
M  V30 30 1 4 27
M  V30 31 1 5 28
M  V30 32 1 6 29
M  V30 33 1 7 30
M  V30 34 1 10 31
M  V30 35 1 11 32
M  V30 36 1 14 33
M  V30 37 1 18 34
M  V30 38 1 18 35
M  V30 39 1 19 36
M  V30 40 1 19 37
M  V30 41 1 21 38
M  V30 42 1 21 39
M  V30 43 1 22 40
M  V30 44 1 22 41
M  V30 END BOND
M  V30 END CTAB
M  END
>  <Dataset>  (215) 
ChEMBL_Kinases

>  <Ligand_Instance>  (215) 
nan

>  <PDB_ID>  (215) 
nan

>  <Standardized_SMILES>  (215) 
COc1ccccc1-c1c[nH]c2ncnc(N3CCOCC3)c12

>  <Name>  (215) 
nan

>  <Pocket>  (215) 
nan

>  <ATP_Site>  (215) 
nan

>  <Peripheral>  (215) 
nan

>  <Num_H_Atoms_ProtBoundConf>  (215) 
nan

>  <Num_Resolved_Atoms>  (215) 
nan

>  <Num_Not_Resolved_Atoms>  (215) 
nan

$$$$
CHEMBL3945429
     RDKit          3D

  0  0  0  0  0  0  0  0  0  0999 V3000
M  V30 BEGIN CTAB
M  V30 COUNTS 30 32 0 0 0
M  V30 BEGIN ATOM
M  V30 1 N -1.496363 -1.862884 4.542405 0
M  V30 2 C -0.963595 -3.036788 3.939926 0
M  V30 3 O -1.080792 -4.144302 4.557704 0
M  V30 4 C -0.297281 -2.973071 2.642150 0
M  V30 5 C -0.191540 -1.739588 2.001572 0
M  V30 6 C 0.446658 -1.731803 0.777455 0
M  V30 7 C 0.598346 -0.478333 0.041889 0
M  V30 8 C 0.147701 0.779844 0.457358 0
M  V30 9 N 0.453388 1.715201 -0.459902 0
M  V30 10 C 0.211463 3.051037 -0.471421 0
M  V30 11 C 0.648218 3.782784 -1.567166 0
M  V30 12 F 0.386504 5.126625 -1.543676 0
M  V30 13 C 1.308665 3.140194 -2.602823 0
M  V30 14 C 1.537588 1.784859 -2.559490 0
M  V30 15 C 1.093880 1.080276 -1.460087 0
M  V30 16 N 1.173433 -0.225840 -1.148354 0
M  V30 17 C 0.960065 -2.875640 0.201297 0
M  V30 18 C 0.839355 -4.100258 0.867378 0
M  V30 19 C 0.204857 -4.135779 2.094264 0
M  V30 20 O 0.054798 -5.334969 2.807464 0
M  V30 21 H -0.566677 -1.504422 4.907872 0
M  V30 22 H -2.456893 -1.422321 4.642146 0
M  V30 23 H -0.592539 -0.827326 2.444879 0
M  V30 24 H -0.375611 1.001737 1.380020 0
M  V30 25 H -0.313824 3.529582 0.363815 0
M  V30 26 H 1.614077 3.787827 -3.417355 0
M  V30 27 H 2.057274 1.309545 -3.385200 0
M  V30 28 H 1.467555 -2.909612 -0.757824 0
M  V30 29 H 1.214124 -5.039572 0.483897 0
M  V30 30 H -0.879958 -5.764146 2.802710 0
M  V30 END ATOM
M  V30 BEGIN BOND
M  V30 1 1 1 2
M  V30 2 2 2 3
M  V30 3 1 2 4
M  V30 4 2 4 5
M  V30 5 1 5 6
M  V30 6 1 6 7
M  V30 7 2 7 8
M  V30 8 1 8 9
M  V30 9 1 9 10
M  V30 10 2 10 11
M  V30 11 1 11 12
M  V30 12 1 11 13
M  V30 13 2 13 14
M  V30 14 1 14 15
M  V30 15 2 15 16
M  V30 16 2 6 17
M  V30 17 1 17 18
M  V30 18 2 18 19
M  V30 19 1 19 20
M  V30 20 1 19 4
M  V30 21 1 16 7
M  V30 22 1 15 9
M  V30 23 1 1 21
M  V30 24 1 1 22
M  V30 25 1 5 23
M  V30 26 1 8 24
M  V30 27 1 10 25
M  V30 28 1 13 26
M  V30 29 1 14 27
M  V30 30 1 17 28
M  V30 31 1 18 29
M  V30 32 1 20 30
M  V30 END BOND
M  V30 END CTAB
M  END
>  <Dataset>  (216) 
ChEMBL_Kinases

>  <Ligand_Instance>  (216) 
nan

>  <PDB_ID>  (216) 
nan

>  <Standardized_SMILES>  (216) 
NC(=O)c1cc(-c2cn3cc(F)ccc3n2)ccc1O

>  <Name>  (216) 
nan

>  <Pocket>  (216) 
nan

>  <ATP_Site>  (216) 
nan

>  <Peripheral>  (216) 
nan

>  <Num_H_Atoms_ProtBoundConf>  (216) 
nan

>  <Num_Resolved_Atoms>  (216) 
nan

>  <Num_Not_Resolved_Atoms>  (216) 
nan

$$$$
CHEMBL3989914
     RDKit          3D

  0  0  0  0  0  0  0  0  0  0999 V3000
M  V30 BEGIN CTAB
M  V30 COUNTS 70 74 0 0 0
M  V30 BEGIN ATOM
M  V30 1 C -1.581875 -3.274965 -2.135287 0
M  V30 2 O -0.735400 -3.508478 -3.220859 0
M  V30 3 C -0.670318 -4.892660 -3.380381 0
M  V30 4 C 0.190673 -5.352660 -4.512588 0
M  V30 5 N 1.551363 -4.981229 -4.452636 0
M  V30 6 C 2.342818 -5.571393 -3.416074 0
M  V30 7 C 2.521644 -4.625039 -2.293713 0
M  V30 8 C 3.558815 -3.767306 -2.718213 0
M  V30 9 C 4.089501 -2.718450 -1.962639 0
M  V30 10 C 3.515715 -2.545352 -0.693364 0
M  V30 11 C 3.963958 -1.479544 0.200614 0
M  V30 12 C 4.884557 -0.482059 0.104426 0
M  V30 13 C 5.009641 0.326210 1.193850 0
M  V30 14 N 5.886615 1.353355 1.256204 0
M  V30 15 C 5.988121 2.114719 2.345164 0
M  V30 16 C 5.236706 1.967799 3.517901 0
M  V30 17 C 4.350633 0.914175 3.421611 0
M  V30 18 O 3.550202 0.660781 4.506347 0
M  V30 19 C 2.164259 0.730206 4.525747 0
M  V30 20 C 1.492669 1.097923 3.384430 0
M  V30 21 C 0.126136 1.160664 3.459086 0
M  V30 22 C -0.651234 0.885927 4.588972 0
M  V30 23 N -2.055928 0.984556 4.671696 0
M  V30 24 C -3.088750 1.112817 3.725827 0
M  V30 25 S -4.598520 1.430756 4.295252 0
M  V30 26 N -2.940098 1.125240 2.309307 0
M  V30 27 C -4.124027 1.457825 1.591156 0
M  V30 28 O -5.288217 1.762153 1.998890 0
M  V30 29 C -4.305120 1.540642 0.095801 0
M  V30 30 C -5.498812 2.299118 -0.251300 0
M  V30 31 C -6.791157 1.864549 -0.479969 0
M  V30 32 C -7.754628 2.800862 -0.770422 0
M  V30 33 C -7.545660 4.163907 -0.851030 0
M  V30 34 F -8.550583 5.068289 -1.138790 0
M  V30 35 C -6.260560 4.644333 -0.629173 0
M  V30 36 C -5.291778 3.683071 -0.336601 0
M  V30 37 C 0.082925 0.520337 5.697971 0
M  V30 38 C 1.455953 0.446485 5.658884 0
M  V30 39 F 2.160999 0.087991 6.730244 0
M  V30 40 C 4.263114 0.144383 2.298505 0
M  V30 41 S 3.234685 -1.265278 1.927871 0
M  V30 42 N 2.537072 -3.350957 -0.282010 0
M  V30 43 C 2.056883 -4.341931 -1.032207 0
M  V30 44 H -1.152917 -3.752261 -1.210029 0
M  V30 45 H -1.721941 -2.180801 -1.934458 0
M  V30 46 H -2.576771 -3.771280 -2.267020 0
M  V30 47 H -1.732262 -5.252774 -3.490086 0
M  V30 48 H -0.297271 -5.322291 -2.432249 0
M  V30 49 H -0.309796 -5.011229 -5.457541 0
M  V30 50 H 0.138567 -6.475720 -4.577311 0
M  V30 51 H 1.985080 -5.194250 -5.381942 0
M  V30 52 H 3.286801 -6.033524 -3.749075 0
M  V30 53 H 1.720358 -6.469797 -3.067746 0
M  V30 54 H 4.126305 -3.740548 -3.671626 0
M  V30 55 H 4.865386 -2.004426 -2.171108 0
M  V30 56 H 5.400356 -0.473558 -0.849010 0
M  V30 57 H 6.729075 2.933093 2.327766 0
M  V30 58 H 5.328590 2.586554 4.388441 0
M  V30 59 H 2.007194 1.349478 2.458522 0
M  V30 60 H -0.349841 1.465635 2.560222 0
M  V30 61 H -2.401115 0.957792 5.681592 0
M  V30 62 H -2.268634 0.971948 1.529233 0
M  V30 63 H -4.471615 0.483641 -0.278410 0
M  V30 64 H -3.364570 1.858438 -0.354574 0
M  V30 65 H -6.934583 0.757760 -0.397291 0
M  V30 66 H -8.775878 2.446963 -0.959054 0
M  V30 67 H -6.030115 5.700492 -0.683523 0
M  V30 68 H -4.318631 4.125553 -0.176320 0
M  V30 69 H -0.367519 0.275827 6.631539 0
M  V30 70 H 1.284529 -5.056807 -0.798937 0
M  V30 END ATOM
M  V30 BEGIN BOND
M  V30 1 1 1 2
M  V30 2 1 2 3
M  V30 3 1 3 4
M  V30 4 1 4 5
M  V30 5 1 5 6
M  V30 6 1 6 7
M  V30 7 2 7 8
M  V30 8 1 8 9
M  V30 9 2 9 10
M  V30 10 1 10 11
M  V30 11 2 11 12
M  V30 12 1 12 13
M  V30 13 2 13 14
M  V30 14 1 14 15
M  V30 15 2 15 16
M  V30 16 1 16 17
M  V30 17 1 17 18
M  V30 18 1 18 19
M  V30 19 2 19 20
M  V30 20 1 20 21
M  V30 21 2 21 22
M  V30 22 1 22 23
M  V30 23 1 23 24
M  V30 24 2 24 25
M  V30 25 1 24 26
M  V30 26 1 26 27
M  V30 27 2 27 28
M  V30 28 1 27 29
M  V30 29 1 29 30
M  V30 30 2 30 31
M  V30 31 1 31 32
M  V30 32 2 32 33
M  V30 33 1 33 34
M  V30 34 1 33 35
M  V30 35 2 35 36
M  V30 36 1 22 37
M  V30 37 2 37 38
M  V30 38 1 38 39
M  V30 39 2 17 40
M  V30 40 1 40 41
M  V30 41 1 10 42
M  V30 42 2 42 43
M  V30 43 1 43 7
M  V30 44 1 41 11
M  V30 45 1 40 13
M  V30 46 1 38 19
M  V30 47 1 36 30
M  V30 48 1 1 44
M  V30 49 1 1 45
M  V30 50 1 1 46
M  V30 51 1 3 47
M  V30 52 1 3 48
M  V30 53 1 4 49
M  V30 54 1 4 50
M  V30 55 1 5 51
M  V30 56 1 6 52
M  V30 57 1 6 53
M  V30 58 1 8 54
M  V30 59 1 9 55
M  V30 60 1 12 56
M  V30 61 1 15 57
M  V30 62 1 16 58
M  V30 63 1 20 59
M  V30 64 1 21 60
M  V30 65 1 23 61
M  V30 66 1 26 62
M  V30 67 1 29 63
M  V30 68 1 29 64
M  V30 69 1 31 65
M  V30 70 1 32 66
M  V30 71 1 35 67
M  V30 72 1 36 68
M  V30 73 1 37 69
M  V30 74 1 43 70
M  V30 END BOND
M  V30 END CTAB
M  END
>  <Dataset>  (217) 
ChEMBL_Kinases

>  <Ligand_Instance>  (217) 
nan

>  <PDB_ID>  (217) 
nan

>  <Standardized_SMILES>  (217) 
COCCNCc1ccc(-c2cc3nccc(Oc4ccc(NC(=S)NC(=O)Cc5ccc(F)cc5)cc4F)c3s2)nc1

>  <Name>  (217) 
GLESATINIB

>  <Pocket>  (217) 
nan

>  <ATP_Site>  (217) 
nan

>  <Peripheral>  (217) 
nan

>  <Num_H_Atoms_ProtBoundConf>  (217) 
nan

>  <Num_Resolved_Atoms>  (217) 
nan

>  <Num_Not_Resolved_Atoms>  (217) 
nan

$$$$
CHEMBL3945754
     RDKit          3D

  0  0  0  0  0  0  0  0  0  0999 V3000
M  V30 BEGIN CTAB
M  V30 COUNTS 38 41 0 0 0
M  V30 BEGIN ATOM
M  V30 1 F 1.843603 -3.553215 3.834028 0
M  V30 2 C 3.103852 -3.577752 3.332823 0
M  V30 3 C 4.008703 -4.391334 3.965084 0
M  V30 4 C 5.306628 -4.461492 3.505191 0
M  V30 5 C 5.730457 -3.730026 2.415002 0
M  V30 6 C 4.769938 -2.921908 1.812892 0
M  V30 7 C 3.464936 -2.824942 2.242368 0
M  V30 8 C 2.451741 -1.982959 1.620817 0
M  V30 9 C 2.514408 -1.184033 0.599283 0
M  V30 10 C 1.645105 -0.303615 -0.130852 0
M  V30 11 N 2.120579 0.393070 -1.206108 0
M  V30 12 N 1.159907 1.128248 -1.714108 0
M  V30 13 C 0.001674 0.993672 -1.049425 0
M  V30 14 C -1.262134 1.528896 -1.176781 0
M  V30 15 C -2.217495 1.128490 -0.265677 0
M  V30 16 C -3.555457 1.694123 -0.399056 0
M  V30 17 C -4.413466 1.924489 0.657085 0
M  V30 18 C -5.674839 2.461488 0.500302 0
M  V30 19 N -6.084607 2.776198 -0.758996 0
M  V30 20 C -5.272004 2.563904 -1.809802 0
M  V30 21 C -4.019443 2.032234 -1.668078 0
M  V30 22 C -1.907510 0.213155 0.746641 0
M  V30 23 C -0.628637 -0.290467 0.827836 0
M  V30 24 C 0.336721 0.092862 -0.066112 0
M  V30 25 H 3.709220 -4.979499 4.824234 0
M  V30 26 H 6.059535 -5.098002 3.981082 0
M  V30 27 H 6.754055 -3.754445 2.013827 0
M  V30 28 H 5.106984 -2.357186 0.967075 0
M  V30 29 H 1.466220 -1.985660 2.039081 0
M  V30 30 H 3.566011 -1.274040 0.268075 0
M  V30 31 H 1.344286 1.732668 -2.549234 0
M  V30 32 H -1.454060 2.236348 -1.979569 0
M  V30 33 H -4.025518 1.651080 1.637763 0
M  V30 34 H -6.262610 2.597518 1.411523 0
M  V30 35 H -5.662547 2.838488 -2.791897 0
M  V30 36 H -3.431580 1.895467 -2.574257 0
M  V30 37 H -2.686371 -0.057994 1.420160 0
M  V30 38 H -0.431565 -0.974962 1.599960 0
M  V30 END ATOM
M  V30 BEGIN BOND
M  V30 1 1 1 2
M  V30 2 2 2 3
M  V30 3 1 3 4
M  V30 4 2 4 5
M  V30 5 1 5 6
M  V30 6 2 6 7
M  V30 7 1 7 8
M  V30 8 2 8 9
M  V30 9 1 9 10
M  V30 10 2 10 11
M  V30 11 1 11 12
M  V30 12 1 12 13
M  V30 13 2 13 14
M  V30 14 1 14 15
M  V30 15 1 15 16
M  V30 16 2 16 17
M  V30 17 1 17 18
M  V30 18 2 18 19
M  V30 19 1 19 20
M  V30 20 2 20 21
M  V30 21 2 15 22
M  V30 22 1 22 23
M  V30 23 2 23 24
M  V30 24 1 7 2
M  V30 25 1 24 10
M  V30 26 1 24 13
M  V30 27 1 21 16
M  V30 28 1 3 25
M  V30 29 1 4 26
M  V30 30 1 5 27
M  V30 31 1 6 28
M  V30 32 1 8 29
M  V30 33 1 9 30
M  V30 34 1 12 31
M  V30 35 1 14 32
M  V30 36 1 17 33
M  V30 37 1 18 34
M  V30 38 1 20 35
M  V30 39 1 21 36
M  V30 40 1 22 37
M  V30 41 1 23 38
M  V30 END BOND
M  V30 END CTAB
M  END
>  <Dataset>  (218) 
ChEMBL_Kinases

>  <Ligand_Instance>  (218) 
nan

>  <PDB_ID>  (218) 
nan

>  <Standardized_SMILES>  (218) 
Fc1ccccc1/C=C/c1n[nH]c2cc(-c3ccncc3)ccc12

>  <Name>  (218) 
nan

>  <Pocket>  (218) 
nan

>  <ATP_Site>  (218) 
nan

>  <Peripheral>  (218) 
nan

>  <Num_H_Atoms_ProtBoundConf>  (218) 
nan

>  <Num_Resolved_Atoms>  (218) 
nan

>  <Num_Not_Resolved_Atoms>  (218) 
nan

$$$$
CHEMBL3648101
     RDKit          3D

  0  0  0  0  0  0  0  0  0  0999 V3000
M  V30 BEGIN CTAB
M  V30 COUNTS 40 41 0 0 0
M  V30 BEGIN ATOM
M  V30 1 C -0.511714 -5.930386 2.270561 0
M  V30 2 C 0.529131 -4.877931 1.972489 0
M  V30 3 O 1.521693 -4.853757 2.942599 0
M  V30 4 C -0.131249 -3.506576 1.828279 0
M  V30 5 S -1.313288 -3.620705 0.458213 0
M  V30 6 C -2.145307 -2.064283 0.166266 0
M  V30 7 N -1.631524 -1.128809 -0.678677 0
M  V30 8 C -2.254867 0.057647 -0.904275 0
M  V30 9 N -1.455328 0.799875 -1.834909 0
M  V30 10 C -0.339713 1.463901 -1.221162 0
M  V30 11 C 0.594590 2.163390 -1.960923 0
M  V30 12 C 1.686377 2.805568 -1.423798 0
M  V30 13 C 1.890284 2.767856 -0.061632 0
M  V30 14 S 3.223590 3.490814 0.809050 0
M  V30 15 C 4.430137 2.208156 1.074956 0
M  V30 16 N 2.742039 3.976847 2.198051 0
M  V30 17 O 3.822506 4.657843 0.082037 0
M  V30 18 C 0.997483 2.090042 0.729060 0
M  V30 19 C -0.078107 1.465630 0.135245 0
M  V30 20 N -3.436142 0.366017 -0.288261 0
M  V30 21 C -3.983765 -0.548251 0.567169 0
M  V30 22 C -3.354358 -1.743465 0.794270 0
M  V30 23 Br -4.143834 -3.002580 1.988617 0
M  V30 24 H -1.305571 -5.456193 2.902421 0
M  V30 25 H -1.038716 -6.203220 1.311523 0
M  V30 26 H -0.101111 -6.814897 2.771689 0
M  V30 27 H 1.035295 -5.117580 0.996321 0
M  V30 28 H 1.113545 -4.967082 3.828908 0
M  V30 29 H -0.650074 -3.305550 2.781001 0
M  V30 30 H 0.637129 -2.721699 1.679100 0
M  V30 31 H -1.571008 0.918234 -2.846090 0
M  V30 32 H 0.497768 2.236887 -3.039390 0
M  V30 33 H 2.423105 3.353026 -1.989421 0
M  V30 34 H 4.525724 1.528685 0.200210 0
M  V30 35 H 5.399622 2.608369 1.410014 0
M  V30 36 H 3.989592 1.557731 1.888590 0
M  V30 37 H 3.217970 4.809644 2.571235 0
M  V30 38 H 1.077072 2.008535 1.813310 0
M  V30 39 H -0.791980 0.923469 0.766657 0
M  V30 40 H -4.913517 -0.243644 1.016521 0
M  V30 END ATOM
M  V30 BEGIN BOND
M  V30 1 1 1 2
M  V30 2 1 2 3
M  V30 3 1 2 4
M  V30 4 1 4 5
M  V30 5 1 5 6
M  V30 6 2 6 7
M  V30 7 1 7 8
M  V30 8 1 8 9
M  V30 9 1 9 10
M  V30 10 2 10 11
M  V30 11 1 11 12
M  V30 12 2 12 13
M  V30 13 1 13 14
M  V30 14 1 14 15
M  V30 15 2 14 16
M  V30 16 2 14 17
M  V30 17 1 13 18
M  V30 18 2 18 19
M  V30 19 2 8 20
M  V30 20 1 20 21
M  V30 21 2 21 22
M  V30 22 1 22 23
M  V30 23 1 22 6
M  V30 24 1 19 10
M  V30 25 1 1 24
M  V30 26 1 1 25
M  V30 27 1 1 26
M  V30 28 1 2 27
M  V30 29 1 3 28
M  V30 30 1 4 29
M  V30 31 1 4 30
M  V30 32 1 9 31
M  V30 33 1 11 32
M  V30 34 1 12 33
M  V30 35 1 15 34
M  V30 36 1 15 35
M  V30 37 1 15 36
M  V30 38 1 16 37
M  V30 39 1 18 38
M  V30 40 1 19 39
M  V30 41 1 21 40
M  V30 END BOND
M  V30 END CTAB
M  END
>  <Dataset>  (219) 
ChEMBL_Kinases

>  <Ligand_Instance>  (219) 
nan

>  <PDB_ID>  (219) 
nan

>  <Standardized_SMILES>  (219) 
CC(O)CSc1nc(Nc2ccc(S(C)(=N)=O)cc2)ncc1Br

>  <Name>  (219) 
nan

>  <Pocket>  (219) 
nan

>  <ATP_Site>  (219) 
nan

>  <Peripheral>  (219) 
nan

>  <Num_H_Atoms_ProtBoundConf>  (219) 
nan

>  <Num_Resolved_Atoms>  (219) 
nan

>  <Num_Not_Resolved_Atoms>  (219) 
nan

$$$$
CHEMBL3986282
     RDKit          3D

  0  0  0  0  0  0  0  0  0  0999 V3000
M  V30 BEGIN CTAB
M  V30 COUNTS 77 81 0 0 0
M  V30 BEGIN ATOM
M  V30 1 C 6.535335 0.358924 5.196727 0
M  V30 2 C 5.269625 0.135280 4.452009 0
M  V30 3 O 4.616134 -0.887961 4.789790 0
M  V30 4 C 4.470825 0.717175 3.406414 0
M  V30 5 C 3.489374 1.645123 3.676828 0
M  V30 6 C 3.199634 2.096648 5.068780 0
M  V30 7 C 2.807347 2.108613 2.580957 0
M  V30 8 C 1.814275 3.036804 2.778911 0
M  V30 9 N 1.113774 3.517946 1.722494 0
M  V30 10 C 1.359776 3.112580 0.465359 0
M  V30 11 N 0.749613 3.453329 -0.782678 0
M  V30 12 C -0.462703 2.696925 -1.000370 0
M  V30 13 C -0.939548 1.811474 -0.055784 0
M  V30 14 C -2.082107 1.042498 -0.168916 0
M  V30 15 C -2.813885 1.183575 -1.354764 0
M  V30 16 N -4.002758 0.378609 -1.397527 0
M  V30 17 C -4.652541 -0.300188 -2.491296 0
M  V30 18 C -4.562503 -1.778761 -2.288195 0
M  V30 19 N -4.417411 -2.105390 -0.889986 0
M  V30 20 C -3.869780 -3.382215 -0.491534 0
M  V30 21 O -3.700938 -3.705793 0.735674 0
M  V30 22 C -3.483159 -4.367812 -1.505737 0
M  V30 23 N -2.965092 -5.592136 -0.978772 0
M  V30 24 C -3.930016 -6.399344 -0.311254 0
M  V30 25 C -4.983537 -6.998551 -1.221590 0
M  V30 26 N -5.860451 -7.775395 -0.330742 0
M  V30 27 C -4.785332 -1.263836 0.233729 0
M  V30 28 C -4.746000 0.197618 -0.152038 0
M  V30 29 C -2.331246 2.066094 -2.289102 0
M  V30 30 N -1.213609 2.790889 -2.129619 0
M  V30 31 N 2.331340 2.205207 0.257204 0
M  V30 32 C 3.057760 1.695407 1.268686 0
M  V30 33 N 4.044514 0.772472 1.061704 0
M  V30 34 C 4.359379 0.324395 -0.250284 0
M  V30 35 C 3.260877 -0.262375 -1.055510 0
M  V30 36 C 3.853808 -0.269751 -2.473408 0
M  V30 37 C 5.008767 0.700885 -2.458296 0
M  V30 38 C 4.927763 1.417831 -1.128872 0
M  V30 39 C 4.742553 0.290342 2.128641 0
M  V30 40 O 5.654006 -0.569370 1.891800 0
M  V30 41 H 7.202155 -0.497755 4.895917 0
M  V30 42 H 7.072054 1.287764 4.863315 0
M  V30 43 H 6.395311 0.446298 6.276833 0
M  V30 44 H 2.101874 2.058252 5.292742 0
M  V30 45 H 3.660235 1.325464 5.745875 0
M  V30 46 H 3.658119 3.072114 5.294808 0
M  V30 47 H 1.536985 3.426974 3.741273 0
M  V30 48 H 0.996139 4.122408 -1.546201 0
M  V30 49 H -0.410551 1.657908 0.889537 0
M  V30 50 H -2.389681 0.358883 0.633456 0
M  V30 51 H -5.748319 -0.020824 -2.467741 0
M  V30 52 H -4.209954 0.022475 -3.466077 0
M  V30 53 H -5.485397 -2.225450 -2.726062 0
M  V30 54 H -3.659114 -2.224007 -2.781802 0
M  V30 55 H -2.732005 -3.938418 -2.224411 0
M  V30 56 H -4.350311 -4.655787 -2.166371 0
M  V30 57 H -2.107092 -5.448420 -0.432845 0
M  V30 58 H -3.402881 -7.264964 0.159499 0
M  V30 59 H -4.481400 -5.802381 0.433456 0
M  V30 60 H -4.560419 -7.732582 -1.920593 0
M  V30 61 H -5.584596 -6.231961 -1.742695 0
M  V30 62 H -5.838837 -7.374729 0.639114 0
M  V30 63 H -6.834508 -7.842431 -0.694089 0
M  V30 64 H -5.745578 -1.581589 0.671369 0
M  V30 65 H -4.004319 -1.388339 1.010049 0
M  V30 66 H -4.354828 0.863207 0.612601 0
M  V30 67 H -5.789133 0.513488 -0.355013 0
M  V30 68 H -2.939962 2.129455 -3.178183 0
M  V30 69 H 5.170544 -0.450310 -0.195105 0
M  V30 70 H 2.334334 0.300943 -1.131997 0
M  V30 71 H 3.037394 -1.328241 -0.754348 0
M  V30 72 H 4.217524 -1.276515 -2.742877 0
M  V30 73 H 3.110850 0.062292 -3.230364 0
M  V30 74 H 4.971945 1.446840 -3.289863 0
M  V30 75 H 5.967134 0.130311 -2.485803 0
M  V30 76 H 5.927458 1.770607 -0.774347 0
M  V30 77 H 4.266710 2.278268 -1.256815 0
M  V30 END ATOM
M  V30 BEGIN BOND
M  V30 1 1 1 2
M  V30 2 2 2 3
M  V30 3 1 2 4
M  V30 4 2 4 5
M  V30 5 1 5 6
M  V30 6 1 5 7
M  V30 7 2 7 8
M  V30 8 1 8 9
M  V30 9 2 9 10
M  V30 10 1 10 11
M  V30 11 1 11 12
M  V30 12 2 12 13
M  V30 13 1 13 14
M  V30 14 2 14 15
M  V30 15 1 15 16
M  V30 16 1 16 17
M  V30 17 1 17 18
M  V30 18 1 18 19
M  V30 19 1 19 20
M  V30 20 2 20 21
M  V30 21 1 20 22
M  V30 22 1 22 23
M  V30 23 1 23 24
M  V30 24 1 24 25
M  V30 25 1 25 26
M  V30 26 1 19 27
M  V30 27 1 27 28
M  V30 28 1 15 29
M  V30 29 2 29 30
M  V30 30 1 10 31
M  V30 31 2 31 32
M  V30 32 1 32 33
M  V30 33 1 33 34
M  V30 34 1 34 35
M  V30 35 1 35 36
M  V30 36 1 36 37
M  V30 37 1 37 38
M  V30 38 1 33 39
M  V30 39 2 39 40
M  V30 40 1 39 4
M  V30 41 1 32 7
M  V30 42 1 38 34
M  V30 43 1 30 12
M  V30 44 1 28 16
M  V30 45 1 1 41
M  V30 46 1 1 42
M  V30 47 1 1 43
M  V30 48 1 6 44
M  V30 49 1 6 45
M  V30 50 1 6 46
M  V30 51 1 8 47
M  V30 52 1 11 48
M  V30 53 1 13 49
M  V30 54 1 14 50
M  V30 55 1 17 51
M  V30 56 1 17 52
M  V30 57 1 18 53
M  V30 58 1 18 54
M  V30 59 1 22 55
M  V30 60 1 22 56
M  V30 61 1 23 57
M  V30 62 1 24 58
M  V30 63 1 24 59
M  V30 64 1 25 60
M  V30 65 1 25 61
M  V30 66 1 26 62
M  V30 67 1 26 63
M  V30 68 1 27 64
M  V30 69 1 27 65
M  V30 70 1 28 66
M  V30 71 1 28 67
M  V30 72 1 29 68
M  V30 73 1 34 69
M  V30 74 1 35 70
M  V30 75 1 35 71
M  V30 76 1 36 72
M  V30 77 1 36 73
M  V30 78 1 37 74
M  V30 79 1 37 75
M  V30 80 1 38 76
M  V30 81 1 38 77
M  V30 END BOND
M  V30 END CTAB
M  END
>  <Dataset>  (220) 
ChEMBL_Kinases

>  <Ligand_Instance>  (220) 
nan

>  <PDB_ID>  (220) 
nan

>  <Standardized_SMILES>  (220) 
CC(=O)c1c(C)c2cnc(Nc3ccc(N4CCN(C(=O)CNCCN)CC4)cn3)nc2n(C2CCCC2)c1=O

>  <Name>  (220) 
nan

>  <Pocket>  (220) 
nan

>  <ATP_Site>  (220) 
nan

>  <Peripheral>  (220) 
nan

>  <Num_H_Atoms_ProtBoundConf>  (220) 
nan

>  <Num_Resolved_Atoms>  (220) 
nan

>  <Num_Not_Resolved_Atoms>  (220) 
nan

$$$$
CHEMBL3947134
     RDKit          3D

  0  0  0  0  0  0  0  0  0  0999 V3000
M  V30 BEGIN CTAB
M  V30 COUNTS 30 32 0 0 0
M  V30 BEGIN ATOM
M  V30 1 C -1.706963 -5.126441 3.369160 0
M  V30 2 O -1.911342 -4.153314 2.370903 0
M  V30 3 C -0.804718 -3.765638 1.623322 0
M  V30 4 N 0.446507 -4.267918 1.801145 0
M  V30 5 C 1.470217 -3.825357 1.018289 0
M  V30 6 C 1.273476 -2.872780 0.040129 0
M  V30 7 C -0.012277 -2.378621 -0.118693 0
M  V30 8 C -0.296990 -1.339451 -1.165126 0
M  V30 9 C 0.641253 -1.344556 -2.252326 0
M  V30 10 N 1.402825 -1.368942 -3.139176 0
M  V30 11 C -0.103631 0.066128 -0.534685 0
M  V30 12 N 0.786926 0.734446 -0.407107 0
M  V30 13 C 0.956026 1.927234 0.123135 0
M  V30 14 C 2.058990 2.742444 0.275189 0
M  V30 15 C 1.945865 3.972928 0.883437 0
M  V30 16 C 0.741410 4.484883 1.383050 0
M  V30 17 C -0.403203 3.724732 1.266005 0
M  V30 18 C -0.188690 2.481060 0.629897 0
M  V30 19 S -1.457553 1.124323 0.256086 0
M  V30 20 N -0.997830 -2.839535 0.672890 0
M  V30 21 H -0.879068 -5.841494 3.106508 0
M  V30 22 H -2.598082 -5.766395 3.517432 0
M  V30 23 H -1.436148 -4.696868 4.361314 0
M  V30 24 H 2.466050 -4.245085 1.181535 0
M  V30 25 H 2.090984 -2.526610 -0.577153 0
M  V30 26 H -1.357776 -1.394244 -1.490897 0
M  V30 27 H 3.048186 2.473360 -0.063271 0
M  V30 28 H 2.829961 4.625663 1.004979 0
M  V30 29 H 0.602402 5.436566 1.864451 0
M  V30 30 H -1.403930 3.942340 1.582481 0
M  V30 END ATOM
M  V30 BEGIN BOND
M  V30 1 1 1 2
M  V30 2 1 2 3
M  V30 3 2 3 4
M  V30 4 1 4 5
M  V30 5 2 5 6
M  V30 6 1 6 7
M  V30 7 1 7 8
M  V30 8 1 8 9
M  V30 9 3 9 10
M  V30 10 1 8 11
M  V30 11 2 11 12
M  V30 12 1 12 13
M  V30 13 2 13 14
M  V30 14 1 14 15
M  V30 15 2 15 16
M  V30 16 1 16 17
M  V30 17 2 17 18
M  V30 18 1 18 19
M  V30 19 2 7 20
M  V30 20 1 20 3
M  V30 21 1 19 11
M  V30 22 1 18 13
M  V30 23 1 1 21
M  V30 24 1 1 22
M  V30 25 1 1 23
M  V30 26 1 5 24
M  V30 27 1 6 25
M  V30 28 1 8 26
M  V30 29 1 14 27
M  V30 30 1 15 28
M  V30 31 1 16 29
M  V30 32 1 17 30
M  V30 END BOND
M  V30 END CTAB
M  END
>  <Dataset>  (221) 
ChEMBL_Kinases

>  <Ligand_Instance>  (221) 
nan

>  <PDB_ID>  (221) 
nan

>  <Standardized_SMILES>  (221) 
COc1nccc(C(C#N)c2nc3ccccc3s2)n1

>  <Name>  (221) 
nan

>  <Pocket>  (221) 
nan

>  <ATP_Site>  (221) 
nan

>  <Peripheral>  (221) 
nan

>  <Num_H_Atoms_ProtBoundConf>  (221) 
nan

>  <Num_Resolved_Atoms>  (221) 
nan

>  <Num_Not_Resolved_Atoms>  (221) 
nan

$$$$
CHEMBL3984944
     RDKit          3D

  0  0  0  0  0  0  0  0  0  0999 V3000
M  V30 BEGIN CTAB
M  V30 COUNTS 60 63 0 0 0
M  V30 BEGIN ATOM
M  V30 1 C 4.232784 -0.378603 2.888963 0
M  V30 2 C 2.760095 -0.134458 2.602154 0 CFG=1
M  V30 3 C 2.480347 0.199615 1.178451 0
M  V30 4 C 2.059203 -0.958593 0.334931 0 CFG=1
M  V30 5 C 2.398135 -0.823658 -1.078983 0
M  V30 6 C 3.562904 -1.236245 -1.681705 0
M  V30 7 C 3.840435 -1.085618 -3.032098 0
M  V30 8 N 2.939167 -0.503955 -3.837848 0
M  V30 9 C 1.759904 -0.070081 -3.305862 0
M  V30 10 C 1.489885 -0.223121 -1.960647 0
M  V30 11 N 0.225396 0.271796 -1.536972 0
M  V30 12 C -0.275301 1.499651 -1.054725 0
M  V30 13 O 0.483347 2.493295 -0.915502 0
M  V30 14 C -1.700978 1.500289 -0.747071 0
M  V30 15 C -2.211265 2.692189 -0.275125 0
M  V30 16 C -3.551224 2.790719 0.043195 0
M  V30 17 C -4.388575 1.684119 -0.112758 0
M  V30 18 F -5.707624 1.647831 0.160131 0
M  V30 19 C -3.839539 0.513204 -0.586634 0
M  V30 20 C -4.548625 -0.753674 -0.819082 0
M  V30 21 C -4.699425 -1.742495 0.103722 0
M  V30 22 F -4.167198 -1.566975 1.327442 0
M  V30 23 C -5.399199 -2.865519 -0.298566 0
M  V30 24 C -5.915398 -2.974858 -1.567391 0
M  V30 25 C -5.759188 -1.968545 -2.499062 0
M  V30 26 C -5.065319 -0.843583 -2.115562 0
M  V30 27 F -4.925308 0.138837 -3.059205 0
M  V30 28 N -2.534701 0.448962 -0.887004 0
M  V30 29 C 2.715441 -2.205341 0.885211 0
M  V30 30 C 2.225874 -2.522649 2.282776 0 CFG=1
M  V30 31 N 3.187334 -3.436574 2.889221 0
M  V30 32 C 2.024977 -1.326650 3.142814 0 CFG=2
M  V30 33 S 0.326759 -0.933239 3.421906 0 CHG=1 VAL=3
M  V30 34 C -0.628002 -2.262476 4.056564 0
M  V30 35 O 0.164541 0.492165 4.250246 0 CHG=-1 VAL=1
M  V30 36 H 4.616988 0.234581 3.729200 0
M  V30 37 H 4.789399 -0.107736 1.963018 0
M  V30 38 H 4.458206 -1.438913 3.128422 0
M  V30 39 H 2.471249 0.736833 3.261409 0
M  V30 40 H 3.416445 0.672365 0.785917 0
M  V30 41 H 1.676500 0.980409 1.101845 0
M  V30 42 H 0.939727 -1.028218 0.394662 0
M  V30 43 H 4.305868 -1.707045 -1.059591 0
M  V30 44 H 4.778812 -1.430591 -3.456233 0
M  V30 45 H 1.056676 0.394022 -3.984059 0
M  V30 46 H -0.369576 -0.597112 -1.673291 0
M  V30 47 H -1.574101 3.576039 -0.143695 0
M  V30 48 H -4.020927 3.697643 0.419730 0
M  V30 49 H -5.535066 -3.663443 0.407215 0
M  V30 50 H -6.469606 -3.850978 -1.904023 0
M  V30 51 H -6.160263 -2.049989 -3.489885 0
M  V30 52 H 3.808657 -2.018188 0.892422 0
M  V30 53 H 2.518329 -3.090707 0.269315 0
M  V30 54 H 1.260708 -3.071331 2.252655 0
M  V30 55 H 3.884974 -3.764519 2.195557 0
M  V30 56 H 2.728419 -4.285020 3.295010 0
M  V30 57 H 2.462128 -1.537921 4.147514 0
M  V30 58 H -1.562177 -1.800478 4.491343 0
M  V30 59 H -0.110183 -2.851809 4.828335 0
M  V30 60 H -0.974172 -2.898620 3.216155 0
M  V30 END ATOM
M  V30 BEGIN BOND
M  V30 1 1 1 2
M  V30 2 1 2 3
M  V30 3 1 3 4
M  V30 4 1 4 5
M  V30 5 2 5 6
M  V30 6 1 6 7
M  V30 7 2 7 8
M  V30 8 1 8 9
M  V30 9 2 9 10
M  V30 10 1 10 11
M  V30 11 1 11 12
M  V30 12 2 12 13
M  V30 13 1 12 14
M  V30 14 2 14 15
M  V30 15 1 15 16
M  V30 16 2 16 17
M  V30 17 1 17 18
M  V30 18 1 17 19
M  V30 19 1 19 20
M  V30 20 2 20 21
M  V30 21 1 21 22
M  V30 22 1 21 23
M  V30 23 2 23 24
M  V30 24 1 24 25
M  V30 25 2 25 26
M  V30 26 1 26 27
M  V30 27 2 19 28
M  V30 28 1 4 29
M  V30 29 1 29 30
M  V30 30 1 30 31
M  V30 31 1 30 32
M  V30 32 1 32 33
M  V30 33 1 33 34
M  V30 34 1 33 35 CFG=1
M  V30 35 1 32 2
M  V30 36 1 10 5
M  V30 37 1 28 14
M  V30 38 1 26 20
M  V30 39 1 1 36
M  V30 40 1 1 37
M  V30 41 1 1 38
M  V30 42 1 2 39 CFG=1
M  V30 43 1 3 40
M  V30 44 1 3 41
M  V30 45 1 4 42 CFG=3
M  V30 46 1 6 43
M  V30 47 1 7 44
M  V30 48 1 9 45
M  V30 49 1 11 46
M  V30 50 1 15 47
M  V30 51 1 16 48
M  V30 52 1 23 49
M  V30 53 1 24 50
M  V30 54 1 25 51
M  V30 55 1 29 52
M  V30 56 1 29 53
M  V30 57 1 30 54 CFG=3
M  V30 58 1 31 55
M  V30 59 1 31 56
M  V30 60 1 32 57 CFG=1
M  V30 61 1 34 58
M  V30 62 1 34 59
M  V30 63 1 34 60
M  V30 END BOND
M  V30 END CTAB
M  END
>  <Dataset>  (222) 
ChEMBL_Kinases

>  <Ligand_Instance>  (222) 
nan

>  <PDB_ID>  (222) 
nan

>  <Standardized_SMILES>  (222) 
C[C@H]1C[C@@H](c2ccncc2NC(=O)c2ccc(F)c(-c3c(F)cccc3F)n2)C[C@@H](N)[C@@H]1[S@@+](C)[O-]

>  <Name>  (222) 
nan

>  <Pocket>  (222) 
nan

>  <ATP_Site>  (222) 
nan

>  <Peripheral>  (222) 
nan

>  <Num_H_Atoms_ProtBoundConf>  (222) 
nan

>  <Num_Resolved_Atoms>  (222) 
nan

>  <Num_Not_Resolved_Atoms>  (222) 
nan

$$$$
CHEMBL3983327
     RDKit          3D

  0  0  0  0  0  0  0  0  0  0999 V3000
M  V30 BEGIN CTAB
M  V30 COUNTS 51 54 0 0 0
M  V30 BEGIN ATOM
M  V30 1 O 6.493837 -2.776785 1.741873 0
M  V30 2 C 6.696310 -3.096417 2.928576 0
M  V30 3 O 7.787381 -3.940235 2.857751 0
M  V30 4 C 6.157081 -2.859869 4.281918 0
M  V30 5 C 5.123930 -2.110437 4.596975 0
M  V30 6 C 4.401070 -1.413132 3.507475 0
M  V30 7 O 4.485006 -1.304018 2.238808 0
M  V30 8 N 3.249084 -0.581974 3.804261 0
M  V30 9 C 2.949076 -0.171628 2.438573 0
M  V30 10 C 3.538239 0.968444 1.929575 0
M  V30 11 C 3.201590 1.323098 0.638143 0
M  V30 12 C 2.311270 0.522107 -0.039371 0
M  V30 13 C 1.705847 -0.620523 0.439130 0
M  V30 14 C 0.755496 -1.444650 -0.296909 0
M  V30 15 N 0.916350 -2.804028 -0.314223 0
M  V30 16 N -0.078270 -3.336960 -1.039286 0
M  V30 17 C -0.891427 -2.368464 -1.501129 0
M  V30 18 C -2.037975 -2.276979 -2.264083 0
M  V30 19 C -2.645322 -1.045709 -2.553377 0
M  V30 20 C -2.065321 0.102912 -2.052099 0
M  V30 21 N -2.688864 1.353451 -2.341835 0
M  V30 22 S -4.415005 1.460597 -2.152516 0
M  V30 23 O -5.148629 0.528417 -3.060027 0
M  V30 24 O -4.880908 2.869249 -2.469346 0
M  V30 25 C -4.872169 1.152738 -0.481506 0
M  V30 26 C -4.998195 2.093569 0.544728 0
M  V30 27 C -5.369784 1.661984 1.792996 0
M  V30 28 C -5.610310 0.326418 2.019870 0
M  V30 29 F -5.974678 0.043490 3.314396 0
M  V30 30 C -5.498940 -0.641269 1.036699 0
M  V30 31 C -5.124002 -0.178854 -0.205886 0
M  V30 32 C -0.913399 0.070260 -1.281626 0
M  V30 33 C -0.380391 -1.170045 -1.042726 0
M  V30 34 C 2.057836 -0.965027 1.745209 0
M  V30 35 H 7.907672 -4.677938 2.145881 0
M  V30 36 H 6.594249 -3.307163 5.155976 0
M  V30 37 H 4.763475 -1.961809 5.584076 0
M  V30 38 H 3.024470 -0.555781 4.803133 0
M  V30 39 H 4.223728 1.532864 2.532548 0
M  V30 40 H 3.635294 2.201316 0.200864 0
M  V30 41 H 2.027903 0.794159 -1.072866 0
M  V30 42 H -0.328025 -4.319074 -1.301909 0
M  V30 43 H -2.457561 -3.202434 -2.635772 0
M  V30 44 H -3.520718 -1.112553 -3.149837 0
M  V30 45 H -1.988108 2.080092 -2.643932 0
M  V30 46 H -4.776087 3.114312 0.222749 0
M  V30 47 H -5.446970 2.444494 2.542371 0
M  V30 48 H -5.708154 -1.668488 1.294035 0
M  V30 49 H -5.051310 -0.988918 -0.950976 0
M  V30 50 H -0.484243 0.987923 -0.907006 0
M  V30 51 H 1.596276 -1.857439 2.144314 0
M  V30 END ATOM
M  V30 BEGIN BOND
M  V30 1 2 1 2
M  V30 2 1 2 3
M  V30 3 1 2 4
M  V30 4 2 4 5
M  V30 5 1 5 6
M  V30 6 2 6 7
M  V30 7 1 6 8
M  V30 8 1 8 9
M  V30 9 2 9 10
M  V30 10 1 10 11
M  V30 11 2 11 12
M  V30 12 1 12 13
M  V30 13 1 13 14
M  V30 14 2 14 15
M  V30 15 1 15 16
M  V30 16 1 16 17
M  V30 17 2 17 18
M  V30 18 1 18 19
M  V30 19 2 19 20
M  V30 20 1 20 21
M  V30 21 1 21 22
M  V30 22 2 22 23
M  V30 23 2 22 24
M  V30 24 1 22 25
M  V30 25 2 25 26
M  V30 26 1 26 27
M  V30 27 2 27 28
M  V30 28 1 28 29
M  V30 29 1 28 30
M  V30 30 2 30 31
M  V30 31 1 20 32
M  V30 32 2 32 33
M  V30 33 2 13 34
M  V30 34 1 34 9
M  V30 35 1 33 14
M  V30 36 1 33 17
M  V30 37 1 31 25
M  V30 38 1 3 35
M  V30 39 1 4 36
M  V30 40 1 5 37
M  V30 41 1 8 38
M  V30 42 1 10 39
M  V30 43 1 11 40
M  V30 44 1 12 41
M  V30 45 1 16 42
M  V30 46 1 18 43
M  V30 47 1 19 44
M  V30 48 1 21 45
M  V30 49 1 26 46
M  V30 50 1 27 47
M  V30 51 1 30 48
M  V30 52 1 31 49
M  V30 53 1 32 50
M  V30 54 1 34 51
M  V30 END BOND
M  V30 END CTAB
M  END
>  <Dataset>  (223) 
ChEMBL_Kinases

>  <Ligand_Instance>  (223) 
nan

>  <PDB_ID>  (223) 
nan

>  <Standardized_SMILES>  (223) 
O=C(O)/C=C\C(=O)Nc1cccc(-c2n[nH]c3ccc(NS(=O)(=O)c4ccc(F)cc4)cc23)c1

>  <Name>  (223) 
nan

>  <Pocket>  (223) 
nan

>  <ATP_Site>  (223) 
nan

>  <Peripheral>  (223) 
nan

>  <Num_H_Atoms_ProtBoundConf>  (223) 
nan

>  <Num_Resolved_Atoms>  (223) 
nan

>  <Num_Not_Resolved_Atoms>  (223) 
nan

$$$$
CHEMBL3982723
     RDKit          3D

  0  0  0  0  0  0  0  0  0  0999 V3000
M  V30 BEGIN CTAB
M  V30 COUNTS 57 60 0 0 0
M  V30 BEGIN ATOM
M  V30 1 C 3.897153 -2.355456 1.576489 0
M  V30 2 C 2.710614 -1.474190 1.245454 0
M  V30 3 N 1.572602 -1.989344 1.981301 0
M  V30 4 C 3.104086 -0.076040 1.648605 0
M  V30 5 C 2.263404 0.987871 1.046784 0
M  V30 6 N 2.091639 0.855938 -0.387754 0
M  V30 7 C 1.351379 1.687255 -1.267560 0
M  V30 8 C 2.210888 2.301006 -2.161883 0
M  V30 9 C 1.736740 3.181392 -3.140524 0
M  V30 10 C 0.384222 3.439410 -3.211159 0
M  V30 11 N -0.417350 2.823390 -2.324549 0
M  V30 12 C 0.011131 1.973596 -1.374735 0
M  V30 13 N -0.826173 1.311351 -0.444484 0
M  V30 14 C -1.396882 1.481548 0.818679 0
M  V30 15 O -1.181229 2.522246 1.459728 0
M  V30 16 C -2.241741 0.422724 1.361916 0
M  V30 17 N -2.510417 -0.721299 0.720209 0
M  V30 18 C -3.303259 -1.717748 1.227628 0
M  V30 19 C -3.349440 -2.827644 0.298713 0
M  V30 20 N -3.771797 -2.548736 -0.947643 0
M  V30 21 C -3.856143 -3.389633 -1.967748 0
M  V30 22 C -3.475203 -4.693752 -1.749516 0
M  V30 23 C -3.030448 -5.065351 -0.505384 0
M  V30 24 C -2.971877 -4.129414 0.505555 0
M  V30 25 C -2.475060 -4.607152 1.814924 0
M  V30 26 F -3.482088 -4.492791 2.740999 0
M  V30 27 F -2.103787 -5.927097 1.771816 0
M  V30 28 F -1.409749 -3.796287 2.201722 0
M  V30 29 C -3.802833 -1.428880 2.469485 0
M  V30 30 N -3.545404 -0.290566 3.128155 0
M  V30 31 C -2.759425 0.680578 2.609858 0
M  V30 32 N -2.534047 1.857816 3.369122 0
M  V30 33 C 2.788654 -0.294713 -0.958068 0
M  V30 34 C 2.456752 -1.580882 -0.239132 0
M  V30 35 H 4.475944 -1.913351 2.423105 0
M  V30 36 H 4.601377 -2.275223 0.702974 0
M  V30 37 H 3.637756 -3.416222 1.722870 0
M  V30 38 H 1.574173 -1.640769 2.972015 0
M  V30 39 H 1.702474 -3.025422 2.069433 0
M  V30 40 H 4.194282 0.060295 1.474127 0
M  V30 41 H 2.962558 -0.019111 2.755815 0
M  V30 42 H 1.331850 1.181232 1.599583 0
M  V30 43 H 2.851631 1.949531 1.161171 0
M  V30 44 H 3.305453 2.200171 -2.235196 0
M  V30 45 H 2.360990 3.688339 -3.863843 0
M  V30 46 H -0.101278 4.095442 -3.916798 0
M  V30 47 H -1.028910 0.409017 -0.971976 0
M  V30 48 H -4.206648 -3.098328 -2.950183 0
M  V30 49 H -3.509933 -5.449138 -2.520343 0
M  V30 50 H -2.730928 -6.089807 -0.333347 0
M  V30 51 H -4.437399 -2.168393 2.872457 0
M  V30 52 H -2.999073 2.778711 3.155112 0
M  V30 53 H -2.963294 2.796456 3.207334 0
M  V30 54 H 2.546715 -0.374627 -2.015835 0
M  V30 55 H 3.866493 -0.078902 -0.835198 0
M  V30 56 H 3.089462 -2.365564 -0.698694 0
M  V30 57 H 1.403407 -1.877238 -0.400495 0
M  V30 END ATOM
M  V30 BEGIN BOND
M  V30 1 1 1 2
M  V30 2 1 2 3
M  V30 3 1 2 4
M  V30 4 1 4 5
M  V30 5 1 5 6
M  V30 6 1 6 7
M  V30 7 2 7 8
M  V30 8 1 8 9
M  V30 9 2 9 10
M  V30 10 1 10 11
M  V30 11 2 11 12
M  V30 12 1 12 13
M  V30 13 1 13 14
M  V30 14 2 14 15
M  V30 15 1 14 16
M  V30 16 2 16 17
M  V30 17 1 17 18
M  V30 18 1 18 19
M  V30 19 2 19 20
M  V30 20 1 20 21
M  V30 21 2 21 22
M  V30 22 1 22 23
M  V30 23 2 23 24
M  V30 24 1 24 25
M  V30 25 1 25 26
M  V30 26 1 25 27
M  V30 27 1 25 28
M  V30 28 2 18 29
M  V30 29 1 29 30
M  V30 30 2 30 31
M  V30 31 1 31 32
M  V30 32 1 6 33
M  V30 33 1 33 34
M  V30 34 1 34 2
M  V30 35 1 12 7
M  V30 36 1 31 16
M  V30 37 1 24 19
M  V30 38 1 1 35
M  V30 39 1 1 36
M  V30 40 1 1 37
M  V30 41 1 3 38
M  V30 42 1 3 39
M  V30 43 1 4 40
M  V30 44 1 4 41
M  V30 45 1 5 42
M  V30 46 1 5 43
M  V30 47 1 8 44
M  V30 48 1 9 45
M  V30 49 1 10 46
M  V30 50 1 13 47
M  V30 51 1 21 48
M  V30 52 1 22 49
M  V30 53 1 23 50
M  V30 54 1 29 51
M  V30 55 1 32 52
M  V30 56 1 32 53
M  V30 57 1 33 54
M  V30 58 1 33 55
M  V30 59 1 34 56
M  V30 60 1 34 57
M  V30 END BOND
M  V30 END CTAB
M  END
>  <Dataset>  (224) 
ChEMBL_Kinases

>  <Ligand_Instance>  (224) 
nan

>  <PDB_ID>  (224) 
nan

>  <Standardized_SMILES>  (224) 
CC1(N)CCN(c2cccnc2NC(=O)c2nc(-c3ncccc3C(F)(F)F)cnc2N)CC1

>  <Name>  (224) 
DAROVASERTIB

>  <Pocket>  (224) 
nan

>  <ATP_Site>  (224) 
nan

>  <Peripheral>  (224) 
nan

>  <Num_H_Atoms_ProtBoundConf>  (224) 
nan

>  <Num_Resolved_Atoms>  (224) 
nan

>  <Num_Not_Resolved_Atoms>  (224) 
nan

$$$$
CHEMBL3645228
     RDKit          3D

  0  0  0  0  0  0  0  0  0  0999 V3000
M  V30 BEGIN CTAB
M  V30 COUNTS 84 90 0 0 0
M  V30 BEGIN ATOM
M  V30 1 C 2.574657 -5.207064 -0.675504 0
M  V30 2 O 1.630333 -6.002505 -0.137042 0
M  V30 3 C 1.020796 -5.721315 1.026703 0
M  V30 4 C 0.233227 -4.441122 1.077537 0 CFG=1
M  V30 5 C -0.814660 -4.500833 0.016355 0
M  V30 6 O -0.847291 -3.625987 -0.886053 0
M  V30 7 N -1.803348 -5.520378 -0.029973 0
M  V30 8 C -2.656504 -5.289597 -1.168493 0
M  V30 9 C -2.350342 -5.821673 -2.425701 0
M  V30 10 C -3.197879 -5.576425 -3.488084 0
M  V30 11 C -4.346423 -4.811375 -3.325964 0
M  V30 12 N -5.315633 -4.434335 -4.181464 0
M  V30 13 N -6.189451 -3.704519 -3.508573 0
M  V30 14 C -5.813191 -3.589380 -2.207570 0
M  V30 15 C -6.563637 -2.850096 -1.200729 0
M  V30 16 C -6.056813 -1.976672 -0.268807 0
M  V30 17 C -6.941942 -1.366264 0.613825 0
M  V30 18 C -8.298950 -1.612677 0.577737 0
M  V30 19 F -9.167311 -1.021289 1.434794 0
M  V30 20 C -8.835570 -2.496375 -0.360830 0
M  V30 21 C -7.938086 -3.093572 -1.230447 0
M  V30 22 C -4.640005 -4.286964 -2.066492 0
M  V30 23 C -3.810211 -4.517273 -0.990934 0
M  V30 24 C -0.437193 -4.299813 2.449106 0
M  V30 25 C -0.246396 -2.865534 2.859241 0
M  V30 26 N 0.764096 -2.307834 2.033713 0
M  V30 27 C 0.502498 -0.977629 1.538133 0
M  V30 28 C 0.515106 0.050091 2.585738 0
M  V30 29 O 0.718052 -0.080728 3.812203 0
M  V30 30 N 0.244313 1.308542 1.964242 0
M  V30 31 C -0.021437 1.683577 0.567162 0
M  V30 32 C 1.160374 2.479614 0.142380 0
M  V30 33 C 1.755395 3.327714 0.966676 0
M  V30 34 C 2.913851 4.117101 0.571767 0
M  V30 35 C 3.493603 4.061359 -0.676414 0
M  V30 36 C 4.591483 4.804009 -1.064870 0
M  V30 37 C 5.163000 5.668833 -0.153371 0
M  V30 38 C 6.322910 6.465154 -0.544017 0
M  V30 39 N 6.906944 7.319019 0.315097 0
M  V30 40 C 7.985775 8.057595 -0.060170 0
M  V30 41 C 8.477315 7.929003 -1.319280 0
M  V30 42 C 7.889834 7.050318 -2.229757 0
M  V30 43 N 6.828484 6.355526 -1.786031 0
M  V30 44 C 4.632557 5.774601 1.116618 0
M  V30 45 C 3.522756 4.995779 1.443894 0
M  V30 46 C 1.247663 3.510294 2.360621 0
M  V30 47 C 0.196129 2.522050 2.744911 0
M  V30 48 C 1.085650 -3.243590 0.973140 0
M  V30 49 H 2.924170 -5.729843 -1.633798 0
M  V30 50 H 3.492016 -5.055938 -0.062313 0
M  V30 51 H 2.203033 -4.225607 -1.096552 0
M  V30 52 H 1.747089 -5.743049 1.889271 0
M  V30 53 H 0.262374 -6.525230 1.316026 0
M  V30 54 H -1.794837 -6.256613 0.708419 0
M  V30 55 H -1.456968 -6.416843 -2.553134 0
M  V30 56 H -3.002314 -5.969020 -4.488995 0
M  V30 57 H -5.324108 -4.700217 -5.185008 0
M  V30 58 H -4.997497 -1.823660 -0.286469 0
M  V30 59 H -6.537891 -0.676000 1.349332 0
M  V30 60 H -9.891498 -2.691627 -0.393170 0
M  V30 61 H -8.401622 -3.770994 -1.940373 0
M  V30 62 H -4.058312 -4.099509 -0.021073 0
M  V30 63 H 0.051754 -4.995010 3.164814 0
M  V30 64 H -1.498955 -4.510307 2.308857 0
M  V30 65 H -1.198503 -2.297424 2.889792 0
M  V30 66 H 0.140259 -2.833310 3.920599 0
M  V30 67 H -0.547709 -0.991280 1.129065 0
M  V30 68 H 1.253514 -0.788546 0.742856 0
M  V30 69 H -0.970974 2.251798 0.500934 0
M  V30 70 H -0.100228 0.777896 -0.067416 0
M  V30 71 H 1.510587 2.338227 -0.862820 0
M  V30 72 H 3.109899 3.419347 -1.431369 0
M  V30 73 H 5.028137 4.741273 -2.053866 0
M  V30 74 H 8.503980 8.762142 0.577879 0
M  V30 75 H 9.336329 8.466005 -1.737421 0
M  V30 76 H 8.158416 6.835659 -3.255775 0
M  V30 77 H 5.084070 6.452093 1.823633 0
M  V30 78 H 3.148337 5.116603 2.448984 0
M  V30 79 H 2.052477 3.499177 3.115703 0
M  V30 80 H 0.823349 4.554747 2.397178 0
M  V30 81 H -0.803468 3.013485 2.605756 0
M  V30 82 H 0.260521 2.305163 3.846170 0
M  V30 83 H 2.151984 -3.514197 1.151497 0
M  V30 84 H 0.924333 -2.669920 0.028099 0
M  V30 END ATOM
M  V30 BEGIN BOND
M  V30 1 1 1 2
M  V30 2 1 2 3
M  V30 3 1 4 3 CFG=1
M  V30 4 1 4 5
M  V30 5 2 5 6
M  V30 6 1 5 7
M  V30 7 1 7 8
M  V30 8 2 8 9
M  V30 9 1 9 10
M  V30 10 2 10 11
M  V30 11 1 11 12
M  V30 12 1 12 13
M  V30 13 2 13 14
M  V30 14 1 14 15
M  V30 15 2 15 16
M  V30 16 1 16 17
M  V30 17 2 17 18
M  V30 18 1 18 19
M  V30 19 1 18 20
M  V30 20 2 20 21
M  V30 21 1 14 22
M  V30 22 2 22 23
M  V30 23 1 4 24
M  V30 24 1 24 25
M  V30 25 1 25 26
M  V30 26 1 26 27
M  V30 27 1 27 28
M  V30 28 2 28 29
M  V30 29 1 28 30
M  V30 30 1 30 31
M  V30 31 1 31 32
M  V30 32 2 32 33
M  V30 33 1 33 34
M  V30 34 2 34 35
M  V30 35 1 35 36
M  V30 36 2 36 37
M  V30 37 1 37 38
M  V30 38 2 38 39
M  V30 39 1 39 40
M  V30 40 2 40 41
M  V30 41 1 41 42
M  V30 42 2 42 43
M  V30 43 1 37 44
M  V30 44 2 44 45
M  V30 45 1 33 46
M  V30 46 1 46 47
M  V30 47 1 26 48
M  V30 48 1 48 4
M  V30 49 1 23 8
M  V30 50 1 47 30
M  V30 51 1 22 11
M  V30 52 1 45 34
M  V30 53 1 21 15
M  V30 54 1 43 38
M  V30 55 1 1 49
M  V30 56 1 1 50
M  V30 57 1 1 51
M  V30 58 1 3 52
M  V30 59 1 3 53
M  V30 60 1 7 54
M  V30 61 1 9 55
M  V30 62 1 10 56
M  V30 63 1 12 57
M  V30 64 1 16 58
M  V30 65 1 17 59
M  V30 66 1 20 60
M  V30 67 1 21 61
M  V30 68 1 23 62
M  V30 69 1 24 63
M  V30 70 1 24 64
M  V30 71 1 25 65
M  V30 72 1 25 66
M  V30 73 1 27 67
M  V30 74 1 27 68
M  V30 75 1 31 69
M  V30 76 1 31 70
M  V30 77 1 32 71
M  V30 78 1 35 72
M  V30 79 1 36 73
M  V30 80 1 40 74
M  V30 81 1 41 75
M  V30 82 1 42 76
M  V30 83 1 44 77
M  V30 84 1 45 78
M  V30 85 1 46 79
M  V30 86 1 46 80
M  V30 87 1 47 81
M  V30 88 1 47 82
M  V30 89 1 48 83
M  V30 90 1 48 84
M  V30 END BOND
M  V30 END CTAB
M  END
>  <Dataset>  (225) 
ChEMBL_Kinases

>  <Ligand_Instance>  (225) 
nan

>  <PDB_ID>  (225) 
nan

>  <Standardized_SMILES>  (225) 
COC[C@@]1(C(=O)Nc2ccc3[nH]nc(-c4ccc(F)cc4)c3c2)CCN(CC(=O)N2CC=C(c3ccc(-c4ncccn4)cc3)CC2)C1

>  <Name>  (225) 
nan

>  <Pocket>  (225) 
nan

>  <ATP_Site>  (225) 
nan

>  <Peripheral>  (225) 
nan

>  <Num_H_Atoms_ProtBoundConf>  (225) 
nan

>  <Num_Resolved_Atoms>  (225) 
nan

>  <Num_Not_Resolved_Atoms>  (225) 
nan

$$$$
CHEMBL3645231
     RDKit          3D

  0  0  0  0  0  0  0  0  0  0999 V3000
M  V30 BEGIN CTAB
M  V30 COUNTS 81 87 0 0 0
M  V30 BEGIN ATOM
M  V30 1 C -4.307196 -3.627158 4.398449 0
M  V30 2 O -4.451177 -3.174758 3.125394 0
M  V30 3 C -3.283299 -3.018436 2.418122 0 CFG=1
M  V30 4 C -2.427876 -1.956530 2.967022 0
M  V30 5 O -1.314548 -2.039232 2.332453 0
M  V30 6 N -2.469045 -0.921844 3.936335 0
M  V30 7 C -1.341520 -0.086446 4.152488 0
M  V30 8 C -0.301468 -0.293300 5.047005 0
M  V30 9 C 0.729998 0.626669 5.138233 0
M  V30 10 C 0.748382 1.767312 4.344646 0
M  V30 11 N 1.637695 2.791740 4.261083 0
M  V30 12 N 1.180892 3.643750 3.329862 0
M  V30 13 C 0.006183 3.167940 2.820152 0
M  V30 14 C -0.781638 3.831712 1.785499 0
M  V30 15 C -0.953154 5.188518 1.965963 0
M  V30 16 C -1.696400 5.909598 1.020967 0
M  V30 17 C -2.245589 5.274635 -0.068412 0
M  V30 18 F -2.976974 5.885594 -1.033268 0
M  V30 19 C -2.074256 3.904629 -0.253381 0
M  V30 20 C -1.331298 3.191582 0.693792 0
M  V30 21 C -0.288807 1.975421 3.451109 0
M  V30 22 C -1.327584 1.060556 3.350732 0
M  V30 23 C -2.549994 -4.344655 2.285437 0
M  V30 24 C -3.443039 -5.022121 1.268527 0
M  V30 25 N -3.618091 -4.008843 0.261370 0
M  V30 26 C -2.561864 -4.071950 -0.693697 0
M  V30 27 C -2.675035 -3.042078 -1.781847 0
M  V30 28 O -3.625045 -2.200818 -1.829637 0
M  V30 29 N -1.572326 -3.179869 -2.703134 0
M  V30 30 C -0.458558 -4.139794 -2.680906 0
M  V30 31 C 0.811453 -3.387761 -2.620637 0
M  V30 32 C 0.958245 -2.149078 -3.111455 0
M  V30 33 C 2.212552 -1.408655 -3.050144 0
M  V30 34 C 2.337776 -0.123335 -3.565945 0
M  V30 35 C 3.514552 0.589200 -3.512802 0
M  V30 36 C 4.644347 0.051364 -2.934918 0
M  V30 37 C 5.853872 0.864480 -2.910964 0
M  V30 38 N 5.916062 2.124483 -3.434619 0
M  V30 39 C 7.058864 2.837028 -3.385695 0
M  V30 40 C 8.172891 2.295079 -2.804874 0
M  V30 41 C 8.116234 1.009219 -2.268302 0
M  V30 42 N 6.959109 0.338847 -2.340015 0
M  V30 43 C 4.573202 -1.229907 -2.404996 0
M  V30 44 C 3.371029 -1.897937 -2.484952 0
M  V30 45 C -0.190972 -1.454501 -3.760839 0
M  V30 46 C -1.402553 -2.322374 -3.858104 0
M  V30 47 C -3.621122 -2.748656 0.946831 0
M  V30 48 H -3.681071 -3.049837 5.092196 0
M  V30 49 H -5.330807 -3.609647 4.909424 0
M  V30 50 H -4.014625 -4.720402 4.395432 0
M  V30 51 H -3.411827 -0.914301 4.378221 0
M  V30 52 H -0.372857 -1.190786 5.629350 0
M  V30 53 H 1.535926 0.439412 5.850999 0
M  V30 54 H 2.538207 2.930435 4.812081 0
M  V30 55 H -0.597009 5.832434 2.753499 0
M  V30 56 H -1.893594 6.987798 1.069947 0
M  V30 57 H -2.471511 3.317461 -1.084238 0
M  V30 58 H -1.169048 2.116405 0.588696 0
M  V30 59 H -2.111660 1.280999 2.630780 0
M  V30 60 H -2.419420 -4.864725 3.223401 0
M  V30 61 H -1.594010 -4.097442 1.768279 0
M  V30 62 H -4.387577 -5.270588 1.797104 0
M  V30 63 H -2.956932 -5.930781 0.844728 0
M  V30 64 H -1.565846 -3.949578 -0.258045 0
M  V30 65 H -2.635121 -5.054903 -1.246048 0
M  V30 66 H -0.514283 -4.695357 -3.630570 0
M  V30 67 H -0.515344 -4.792580 -1.792056 0
M  V30 68 H 1.654029 -3.877715 -2.154997 0
M  V30 69 H 1.442936 0.305588 -4.024983 0
M  V30 70 H 3.560166 1.590068 -3.930270 0
M  V30 71 H 7.000220 3.825803 -3.829100 0
M  V30 72 H 9.031559 2.974316 -2.829434 0
M  V30 73 H 9.043150 0.668016 -1.831944 0
M  V30 74 H 5.456507 -1.640586 -1.959517 0
M  V30 75 H 3.397611 -2.875407 -2.057107 0
M  V30 76 H 0.121267 -1.200561 -4.796584 0
M  V30 77 H -0.440692 -0.497431 -3.281136 0
M  V30 78 H -2.284737 -1.674418 -4.039618 0
M  V30 79 H -1.337885 -2.976221 -4.763475 0
M  V30 80 H -2.842538 -2.103342 0.517339 0
M  V30 81 H -4.585616 -2.188381 0.870895 0
M  V30 END ATOM
M  V30 BEGIN BOND
M  V30 1 1 1 2
M  V30 2 1 3 2 CFG=1
M  V30 3 1 3 4
M  V30 4 2 4 5
M  V30 5 1 4 6
M  V30 6 1 6 7
M  V30 7 2 7 8
M  V30 8 1 8 9
M  V30 9 2 9 10
M  V30 10 1 10 11
M  V30 11 1 11 12
M  V30 12 2 12 13
M  V30 13 1 13 14
M  V30 14 2 14 15
M  V30 15 1 15 16
M  V30 16 2 16 17
M  V30 17 1 17 18
M  V30 18 1 17 19
M  V30 19 2 19 20
M  V30 20 1 13 21
M  V30 21 2 21 22
M  V30 22 1 3 23
M  V30 23 1 23 24
M  V30 24 1 24 25
M  V30 25 1 25 26
M  V30 26 1 26 27
M  V30 27 2 27 28
M  V30 28 1 27 29
M  V30 29 1 29 30
M  V30 30 1 30 31
M  V30 31 2 31 32
M  V30 32 1 32 33
M  V30 33 2 33 34
M  V30 34 1 34 35
M  V30 35 2 35 36
M  V30 36 1 36 37
M  V30 37 2 37 38
M  V30 38 1 38 39
M  V30 39 2 39 40
M  V30 40 1 40 41
M  V30 41 2 41 42
M  V30 42 1 36 43
M  V30 43 2 43 44
M  V30 44 1 32 45
M  V30 45 1 45 46
M  V30 46 1 25 47
M  V30 47 1 47 3
M  V30 48 1 22 7
M  V30 49 1 46 29
M  V30 50 1 21 10
M  V30 51 1 44 33
M  V30 52 1 20 14
M  V30 53 1 42 37
M  V30 54 1 1 48
M  V30 55 1 1 49
M  V30 56 1 1 50
M  V30 57 1 6 51
M  V30 58 1 8 52
M  V30 59 1 9 53
M  V30 60 1 11 54
M  V30 61 1 15 55
M  V30 62 1 16 56
M  V30 63 1 19 57
M  V30 64 1 20 58
M  V30 65 1 22 59
M  V30 66 1 23 60
M  V30 67 1 23 61
M  V30 68 1 24 62
M  V30 69 1 24 63
M  V30 70 1 26 64
M  V30 71 1 26 65
M  V30 72 1 30 66
M  V30 73 1 30 67
M  V30 74 1 31 68
M  V30 75 1 34 69
M  V30 76 1 35 70
M  V30 77 1 39 71
M  V30 78 1 40 72
M  V30 79 1 41 73
M  V30 80 1 43 74
M  V30 81 1 44 75
M  V30 82 1 45 76
M  V30 83 1 45 77
M  V30 84 1 46 78
M  V30 85 1 46 79
M  V30 86 1 47 80
M  V30 87 1 47 81
M  V30 END BOND
M  V30 END CTAB
M  END
>  <Dataset>  (226) 
ChEMBL_Kinases

>  <Ligand_Instance>  (226) 
nan

>  <PDB_ID>  (226) 
nan

>  <Standardized_SMILES>  (226) 
CO[C@@]1(C(=O)Nc2ccc3[nH]nc(-c4ccc(F)cc4)c3c2)CCN(CC(=O)N2CC=C(c3ccc(-c4ncccn4)cc3)CC2)C1

>  <Name>  (226) 
nan

>  <Pocket>  (226) 
nan

>  <ATP_Site>  (226) 
nan

>  <Peripheral>  (226) 
nan

>  <Num_H_Atoms_ProtBoundConf>  (226) 
nan

>  <Num_Resolved_Atoms>  (226) 
nan

>  <Num_Not_Resolved_Atoms>  (226) 
nan

$$$$
CHEMBL3645233
     RDKit          3D

  0  0  0  0  0  0  0  0  0  0999 V3000
M  V30 BEGIN CTAB
M  V30 COUNTS 82 88 0 0 0
M  V30 BEGIN ATOM
M  V30 1 C -2.247650 -3.987124 5.297554 0
M  V30 2 O -3.067593 -3.479347 4.340428 0
M  V30 3 C -2.488861 -2.591720 3.476531 0 CFG=1
M  V30 4 C -2.005859 -1.403615 4.275714 0
M  V30 5 O -2.121132 -1.148897 5.499368 0
M  V30 6 N -1.305292 -0.387575 3.575369 0
M  V30 7 C -0.723734 0.833999 3.986916 0
M  V30 8 C -0.692399 1.341413 5.263175 0
M  V30 9 C -0.130165 2.531360 5.664681 0
M  V30 10 C 0.467102 3.302776 4.689492 0
M  V30 11 N 1.095647 4.490141 4.719095 0
M  V30 12 N 1.475492 4.766066 3.482145 0
M  V30 13 C 1.122370 3.799772 2.616513 0
M  V30 14 C 1.385508 3.796449 1.177632 0
M  V30 15 C 1.152524 4.897640 0.374950 0
M  V30 16 C 1.419501 4.856634 -0.994194 0
M  V30 17 C 1.924037 3.683958 -1.527721 0
M  V30 18 F 2.195496 3.611835 -2.868693 0
M  V30 19 C 2.158797 2.581947 -0.732233 0
M  V30 20 C 1.888698 2.629957 0.640508 0
M  V30 21 C 0.468440 2.847506 3.388946 0
M  V30 22 C -0.108502 1.660577 3.073837 0
M  V30 23 C -1.394760 -3.214023 2.694939 0
M  V30 24 C -1.978168 -3.384803 1.288728 0
M  V30 25 N -3.101551 -2.529741 1.168802 0
M  V30 26 C -3.053991 -1.501737 0.194205 0
M  V30 27 C -3.087069 -1.959518 -1.183189 0
M  V30 28 O -3.163811 -3.127452 -0.666134 0
M  V30 29 N -3.077360 -1.775520 -2.573123 0
M  V30 30 C -2.999520 -0.636369 -3.438042 0
M  V30 31 C -1.958477 -0.768850 -4.533709 0
M  V30 32 N -1.097803 -1.872523 -4.159976 0
M  V30 33 C 0.261729 -1.782713 -3.769724 0
M  V30 34 C 0.870028 -0.555773 -3.717693 0
M  V30 35 C 2.196785 -0.462418 -3.333044 0
M  V30 36 C 2.943586 -1.566399 -2.995103 0
M  V30 37 C 4.348396 -1.413424 -2.589029 0
M  V30 38 N 4.908985 -0.173496 -2.557960 0
M  V30 39 C 6.191567 0.002729 -2.188540 0
M  V30 40 C 6.956670 -1.071617 -1.835962 0
M  V30 41 C 6.379549 -2.325296 -1.870488 0
M  V30 42 N 5.090638 -2.456851 -2.246863 0
M  V30 43 C 2.316144 -2.790907 -3.053419 0
M  V30 44 C 0.992348 -2.891229 -3.436439 0
M  V30 45 C -1.893385 -3.107190 -4.252145 0
M  V30 46 C -3.151872 -2.949893 -3.421338 0
M  V30 47 C -3.514471 -2.093580 2.453073 0
M  V30 48 H -2.821357 -4.711907 5.980467 0
M  V30 49 H -1.799123 -3.287246 6.017396 0
M  V30 50 H -1.428924 -4.653922 4.899593 0
M  V30 51 H -1.198958 -0.594070 2.535512 0
M  V30 52 H -1.142188 0.784922 6.069190 0
M  V30 53 H -0.144707 2.865922 6.692820 0
M  V30 54 H 1.268435 5.109122 5.562131 0
M  V30 55 H 0.758499 5.807616 0.802791 0
M  V30 56 H 1.254386 5.686321 -1.657024 0
M  V30 57 H 2.555603 1.690418 -1.212074 0
M  V30 58 H 2.117821 1.708776 1.148246 0
M  V30 59 H -0.070304 1.366698 2.014553 0
M  V30 60 H -1.005944 -4.174555 3.056596 0
M  V30 61 H -0.530218 -2.513484 2.664256 0
M  V30 62 H -2.329757 -4.443517 1.249277 0
M  V30 63 H -1.184569 -3.255821 0.523083 0
M  V30 64 H -3.894874 -0.787256 0.431354 0
M  V30 65 H -2.137335 -0.879036 0.366570 0
M  V30 66 H -2.643417 0.211488 -2.780253 0
M  V30 67 H -3.959012 -0.286190 -3.842928 0
M  V30 68 H -1.456972 0.183415 -4.687437 0
M  V30 69 H -2.488148 -0.991482 -5.499131 0
M  V30 70 H 0.408896 0.372906 -3.951335 0
M  V30 71 H 2.706776 0.487589 -3.281279 0
M  V30 72 H 6.587294 1.004355 -2.181129 0
M  V30 73 H 7.989009 -0.987225 -1.532104 0
M  V30 74 H 6.903062 -3.256167 -1.606928 0
M  V30 75 H 2.907413 -3.664281 -2.785853 0
M  V30 76 H 0.590580 -3.892704 -3.451057 0
M  V30 77 H -2.203715 -3.181457 -5.313351 0
M  V30 78 H -1.336287 -4.009824 -4.026750 0
M  V30 79 H -3.269225 -3.886928 -2.838625 0
M  V30 80 H -4.041555 -2.866910 -4.069735 0
M  V30 81 H -4.541273 -2.446824 2.762217 0
M  V30 82 H -3.572906 -0.993065 2.516824 0
M  V30 END ATOM
M  V30 BEGIN BOND
M  V30 1 1 1 2
M  V30 2 1 3 2 CFG=1
M  V30 3 1 3 4
M  V30 4 2 4 5
M  V30 5 1 4 6
M  V30 6 1 6 7
M  V30 7 2 7 8
M  V30 8 1 8 9
M  V30 9 2 9 10
M  V30 10 1 10 11
M  V30 11 1 11 12
M  V30 12 2 12 13
M  V30 13 1 13 14
M  V30 14 2 14 15
M  V30 15 1 15 16
M  V30 16 2 16 17
M  V30 17 1 17 18
M  V30 18 1 17 19
M  V30 19 2 19 20
M  V30 20 1 13 21
M  V30 21 2 21 22
M  V30 22 1 3 23
M  V30 23 1 23 24
M  V30 24 1 24 25
M  V30 25 1 25 26
M  V30 26 1 26 27
M  V30 27 2 27 28
M  V30 28 1 27 29
M  V30 29 1 29 30
M  V30 30 1 30 31
M  V30 31 1 31 32
M  V30 32 1 32 33
M  V30 33 2 33 34
M  V30 34 1 34 35
M  V30 35 2 35 36
M  V30 36 1 36 37
M  V30 37 2 37 38
M  V30 38 1 38 39
M  V30 39 2 39 40
M  V30 40 1 40 41
M  V30 41 2 41 42
M  V30 42 1 36 43
M  V30 43 2 43 44
M  V30 44 1 32 45
M  V30 45 1 45 46
M  V30 46 1 25 47
M  V30 47 1 47 3
M  V30 48 1 22 7
M  V30 49 1 46 29
M  V30 50 1 21 10
M  V30 51 1 44 33
M  V30 52 1 20 14
M  V30 53 1 42 37
M  V30 54 1 1 48
M  V30 55 1 1 49
M  V30 56 1 1 50
M  V30 57 1 6 51
M  V30 58 1 8 52
M  V30 59 1 9 53
M  V30 60 1 11 54
M  V30 61 1 15 55
M  V30 62 1 16 56
M  V30 63 1 19 57
M  V30 64 1 20 58
M  V30 65 1 22 59
M  V30 66 1 23 60
M  V30 67 1 23 61
M  V30 68 1 24 62
M  V30 69 1 24 63
M  V30 70 1 26 64
M  V30 71 1 26 65
M  V30 72 1 30 66
M  V30 73 1 30 67
M  V30 74 1 31 68
M  V30 75 1 31 69
M  V30 76 1 34 70
M  V30 77 1 35 71
M  V30 78 1 39 72
M  V30 79 1 40 73
M  V30 80 1 41 74
M  V30 81 1 43 75
M  V30 82 1 44 76
M  V30 83 1 45 77
M  V30 84 1 45 78
M  V30 85 1 46 79
M  V30 86 1 46 80
M  V30 87 1 47 81
M  V30 88 1 47 82
M  V30 END BOND
M  V30 END CTAB
M  END
>  <Dataset>  (227) 
ChEMBL_Kinases

>  <Ligand_Instance>  (227) 
nan

>  <PDB_ID>  (227) 
nan

>  <Standardized_SMILES>  (227) 
CO[C@@]1(C(=O)Nc2ccc3[nH]nc(-c4ccc(F)cc4)c3c2)CCN(CC(=O)N2CCN(c3ccc(-c4ncccn4)cc3)CC2)C1

>  <Name>  (227) 
nan

>  <Pocket>  (227) 
nan

>  <ATP_Site>  (227) 
nan

>  <Peripheral>  (227) 
nan

>  <Num_H_Atoms_ProtBoundConf>  (227) 
nan

>  <Num_Resolved_Atoms>  (227) 
nan

>  <Num_Not_Resolved_Atoms>  (227) 
nan

$$$$
CHEMBL3947385
     RDKit          3D

  0  0  0  0  0  0  0  0  0  0999 V3000
M  V30 BEGIN CTAB
M  V30 COUNTS 41 44 0 0 0
M  V30 BEGIN ATOM
M  V30 1 C 1.742658 -5.736992 2.278846 0
M  V30 2 O 2.640785 -5.021506 1.420371 0
M  V30 3 C 2.175552 -4.125079 0.468371 0
M  V30 4 C 0.860764 -3.799525 0.211666 0
M  V30 5 C 0.573286 -2.880749 -0.778779 0
M  V30 6 C 1.603296 -2.304272 -1.494270 0
M  V30 7 O 1.283357 -1.375543 -2.493169 0
M  V30 8 C 1.169464 -0.011629 -2.259409 0
M  V30 9 N 0.867416 0.952297 -3.152776 0
M  V30 10 C 0.792113 2.229321 -2.784211 0
M  V30 11 C 1.010832 2.655900 -1.495883 0
M  V30 12 C 1.319753 1.670681 -0.581821 0
M  V30 13 C 1.580150 1.991855 0.845429 0
M  V30 14 C 2.050529 3.369616 1.002940 0
M  V30 15 N 2.429841 4.456059 1.133927 0
M  V30 16 C 0.201602 1.914106 1.574789 0
M  V30 17 N -0.296663 0.928848 2.064792 0
M  V30 18 C -1.463108 0.890403 2.678027 0
M  V30 19 C -2.124072 -0.167581 3.269423 0
M  V30 20 C -3.353429 0.014683 3.863287 0
M  V30 21 C -4.016482 1.224319 3.921990 0
M  V30 22 C -3.419165 2.328256 3.352745 0
M  V30 23 C -2.163239 2.077486 2.761246 0
M  V30 24 S -0.967258 3.240404 1.868025 0
M  V30 25 N 1.384878 0.397324 -0.996928 0
M  V30 26 C 2.935557 -2.607772 -1.263234 0
M  V30 27 C 3.198941 -3.527112 -0.270295 0
M  V30 28 H 2.359877 -6.262093 3.037678 0
M  V30 29 H 1.023410 -5.036583 2.767290 0
M  V30 30 H 1.156692 -6.493775 1.739954 0
M  V30 31 H 0.130990 -4.310383 0.831493 0
M  V30 32 H -0.474746 -2.646523 -0.955536 0
M  V30 33 H 0.546898 2.972814 -3.531781 0
M  V30 34 H 0.960868 3.676022 -1.152765 0
M  V30 35 H 2.233203 1.288977 1.356733 0
M  V30 36 H -1.726559 -1.179465 3.301709 0
M  V30 37 H -3.888878 -0.826816 4.338709 0
M  V30 38 H -4.971590 1.450926 4.363348 0
M  V30 39 H -3.760341 3.347937 3.289436 0
M  V30 40 H 3.691259 -2.121946 -1.857486 0
M  V30 41 H 4.254394 -3.738943 -0.118799 0
M  V30 END ATOM
M  V30 BEGIN BOND
M  V30 1 1 1 2
M  V30 2 1 2 3
M  V30 3 2 3 4
M  V30 4 1 4 5
M  V30 5 2 5 6
M  V30 6 1 6 7
M  V30 7 1 7 8
M  V30 8 2 8 9
M  V30 9 1 9 10
M  V30 10 2 10 11
M  V30 11 1 11 12
M  V30 12 1 12 13
M  V30 13 1 13 14
M  V30 14 3 14 15
M  V30 15 1 13 16
M  V30 16 2 16 17
M  V30 17 1 17 18
M  V30 18 2 18 19
M  V30 19 1 19 20
M  V30 20 2 20 21
M  V30 21 1 21 22
M  V30 22 2 22 23
M  V30 23 1 23 24
M  V30 24 2 12 25
M  V30 25 1 6 26
M  V30 26 2 26 27
M  V30 27 1 27 3
M  V30 28 1 25 8
M  V30 29 1 24 16
M  V30 30 1 23 18
M  V30 31 1 1 28
M  V30 32 1 1 29
M  V30 33 1 1 30
M  V30 34 1 4 31
M  V30 35 1 5 32
M  V30 36 1 10 33
M  V30 37 1 11 34
M  V30 38 1 13 35
M  V30 39 1 19 36
M  V30 40 1 20 37
M  V30 41 1 21 38
M  V30 42 1 22 39
M  V30 43 1 26 40
M  V30 44 1 27 41
M  V30 END BOND
M  V30 END CTAB
M  END
>  <Dataset>  (228) 
ChEMBL_Kinases

>  <Ligand_Instance>  (228) 
nan

>  <PDB_ID>  (228) 
nan

>  <Standardized_SMILES>  (228) 
COc1ccc(Oc2nccc(C(C#N)c3nc4ccccc4s3)n2)cc1

>  <Name>  (228) 
nan

>  <Pocket>  (228) 
nan

>  <ATP_Site>  (228) 
nan

>  <Peripheral>  (228) 
nan

>  <Num_H_Atoms_ProtBoundConf>  (228) 
nan

>  <Num_Resolved_Atoms>  (228) 
nan

>  <Num_Not_Resolved_Atoms>  (228) 
nan

$$$$
CHEMBL3986609
     RDKit          3D

  0  0  0  0  0  0  0  0  0  0999 V3000
M  V30 BEGIN CTAB
M  V30 COUNTS 51 54 0 0 0
M  V30 BEGIN ATOM
M  V30 1 O 3.805860 -2.611444 3.959810 0
M  V30 2 C 3.533552 -1.549615 3.284706 0
M  V30 3 O 2.497552 -2.477445 3.496011 0
M  V30 4 C 4.697650 -0.711810 3.161232 0
M  V30 5 C 4.549355 0.394433 2.494994 0
M  V30 6 C 3.293059 0.793075 1.893593 0
M  V30 7 O 2.282049 0.058560 1.988018 0
M  V30 8 N 3.112342 1.999441 1.179144 0
M  V30 9 C 1.984691 2.549369 0.527972 0
M  V30 10 C 2.081237 3.793619 -0.053931 0
M  V30 11 C 1.036842 4.395920 -0.712696 0
M  V30 12 C -0.180153 3.755519 -0.816967 0
M  V30 13 C -0.293040 2.501109 -0.235675 0
M  V30 14 C -1.622816 1.934589 -0.419599 0
M  V30 15 N -2.790468 2.582813 -0.242042 0
M  V30 16 N -3.821346 1.796161 -0.502610 0
M  V30 17 C -3.351276 0.567989 -0.871299 0
M  V30 18 C -4.045319 -0.592161 -1.246529 0
M  V30 19 C -3.264087 -1.701491 -1.577688 0
M  V30 20 C -1.889616 -1.642073 -1.532171 0
M  V30 21 N -1.045715 -2.762279 -1.847686 0
M  V30 22 S 0.221702 -3.250139 -0.748630 0
M  V30 23 O 0.919653 -4.439689 -1.319794 0
M  V30 24 O 1.180393 -2.131871 -0.474589 0
M  V30 25 C -0.519027 -3.729132 0.784225 0
M  V30 26 C -0.815697 -5.090599 0.925005 0
M  V30 27 C -1.412517 -5.600358 2.083943 0
M  V30 28 C -1.698626 -4.702576 3.088157 0
M  V30 29 C -1.420453 -3.347075 2.986225 0
M  V30 30 C -0.832409 -2.891986 1.826475 0
M  V30 31 C -1.250422 -0.467812 -1.152984 0
M  V30 32 C -1.960189 0.658114 -0.816746 0
M  V30 33 C 0.766390 1.920905 0.417116 0
M  V30 34 H 1.514264 -2.163503 3.371255 0
M  V30 35 H 5.666058 -0.919725 3.568608 0
M  V30 36 H 5.384794 1.047182 2.380411 0
M  V30 37 H 4.006031 2.569696 1.142565 0
M  V30 38 H 3.017465 4.356502 -0.007037 0
M  V30 39 H 1.179367 5.377115 -1.149688 0
M  V30 40 H -0.959195 4.294568 -1.352571 0
M  V30 41 H -4.841975 2.050339 -0.444503 0
M  V30 42 H -5.123450 -0.633834 -1.278765 0
M  V30 43 H -3.706998 -2.646164 -1.880526 0
M  V30 44 H -1.374368 -3.132949 -2.788245 0
M  V30 45 H -0.627731 -5.877729 0.189162 0
M  V30 46 H -1.657087 -6.641216 2.231815 0
M  V30 47 H -2.161759 -4.958241 4.042877 0
M  V30 48 H -1.645532 -2.637037 3.772906 0
M  V30 49 H -0.582597 -1.843332 1.670477 0
M  V30 50 H -0.167579 -0.337089 -1.091566 0
M  V30 51 H 0.578847 0.966648 0.822491 0
M  V30 END ATOM
M  V30 BEGIN BOND
M  V30 1 2 1 2
M  V30 2 1 2 3
M  V30 3 1 2 4
M  V30 4 2 4 5
M  V30 5 1 5 6
M  V30 6 2 6 7
M  V30 7 1 6 8
M  V30 8 1 8 9
M  V30 9 2 9 10
M  V30 10 1 10 11
M  V30 11 2 11 12
M  V30 12 1 12 13
M  V30 13 1 13 14
M  V30 14 2 14 15
M  V30 15 1 15 16
M  V30 16 1 16 17
M  V30 17 2 17 18
M  V30 18 1 18 19
M  V30 19 2 19 20
M  V30 20 1 20 21
M  V30 21 1 21 22
M  V30 22 2 22 23
M  V30 23 2 22 24
M  V30 24 1 22 25
M  V30 25 2 25 26
M  V30 26 1 26 27
M  V30 27 2 27 28
M  V30 28 1 28 29
M  V30 29 2 29 30
M  V30 30 1 20 31
M  V30 31 2 31 32
M  V30 32 2 13 33
M  V30 33 1 33 9
M  V30 34 1 32 14
M  V30 35 1 32 17
M  V30 36 1 30 25
M  V30 37 1 3 34
M  V30 38 1 4 35
M  V30 39 1 5 36
M  V30 40 1 8 37
M  V30 41 1 10 38
M  V30 42 1 11 39
M  V30 43 1 12 40
M  V30 44 1 16 41
M  V30 45 1 18 42
M  V30 46 1 19 43
M  V30 47 1 21 44
M  V30 48 1 26 45
M  V30 49 1 27 46
M  V30 50 1 28 47
M  V30 51 1 29 48
M  V30 52 1 30 49
M  V30 53 1 31 50
M  V30 54 1 33 51
M  V30 END BOND
M  V30 END CTAB
M  END
>  <Dataset>  (229) 
ChEMBL_Kinases

>  <Ligand_Instance>  (229) 
nan

>  <PDB_ID>  (229) 
nan

>  <Standardized_SMILES>  (229) 
O=C(O)/C=C\C(=O)Nc1cccc(-c2n[nH]c3ccc(NS(=O)(=O)c4ccccc4)cc23)c1

>  <Name>  (229) 
nan

>  <Pocket>  (229) 
nan

>  <ATP_Site>  (229) 
nan

>  <Peripheral>  (229) 
nan

>  <Num_H_Atoms_ProtBoundConf>  (229) 
nan

>  <Num_Resolved_Atoms>  (229) 
nan

>  <Num_Not_Resolved_Atoms>  (229) 
nan

$$$$
CHEMBL3939365
     RDKit          3D

  0  0  0  0  0  0  0  0  0  0999 V3000
M  V30 BEGIN CTAB
M  V30 COUNTS 56 59 0 0 0
M  V30 BEGIN ATOM
M  V30 1 C 2.954925 -4.337685 2.459948 0
M  V30 2 O 3.513895 -3.090375 2.799780 0
M  V30 3 C 2.925873 -1.864377 2.659228 0
M  V30 4 O 2.015752 -2.566633 2.220449 0
M  V30 5 C 3.697273 -0.669837 3.080746 0
M  V30 6 C 3.799454 0.278029 1.903341 0
M  V30 7 C 2.423995 0.657101 1.504452 0
M  V30 8 O 1.431626 0.195182 2.123543 0
M  V30 9 N 2.156518 1.535659 0.436115 0
M  V30 10 C 0.932320 2.012513 -0.085670 0
M  V30 11 C 0.967992 2.896990 -1.142470 0
M  V30 12 C -0.166224 3.426773 -1.709245 0
M  V30 13 C -1.418406 3.094874 -1.242698 0
M  V30 14 C -1.497026 2.213131 -0.187688 0
M  V30 15 C -2.794135 1.842153 0.357685 0
M  V30 16 N -3.817662 2.647932 0.708539 0
M  V30 17 N -4.830972 1.937491 1.157566 0
M  V30 18 C -4.499928 0.616826 1.115036 0
M  V30 19 C -5.211451 -0.505280 1.465188 0
M  V30 20 C -4.591972 -1.732124 1.293626 0
M  V30 21 C -3.295169 -1.891472 0.788620 0
M  V30 22 N -2.720305 -3.173700 0.613006 0
M  V30 23 S -1.917134 -3.875356 -0.715958 0
M  V30 24 O -1.575568 -5.305205 -0.367934 0
M  V30 25 O -2.843593 -3.984351 -1.919979 0
M  V30 26 C -0.461449 -3.056418 -1.191175 0
M  V30 27 C 0.766251 -3.344755 -0.643746 0
M  V30 28 C 1.908117 -2.692822 -1.027997 0
M  V30 29 C 1.833835 -1.725681 -1.984189 0
M  V30 30 C 0.653247 -1.375435 -2.580976 0
M  V30 31 C -0.461013 -2.053135 -2.165513 0
M  V30 32 C -2.675610 -0.703209 0.471715 0
M  V30 33 C -3.206408 0.560246 0.606375 0
M  V30 34 C -0.335084 1.718122 0.336261 0
M  V30 35 H 3.732383 -5.098748 2.730110 0
M  V30 36 H 2.794024 -4.446848 1.368340 0
M  V30 37 H 2.052107 -4.578528 3.055855 0
M  V30 38 H 3.053206 -0.135183 3.834285 0
M  V30 39 H 4.668597 -0.924107 3.503741 0
M  V30 40 H 4.356703 -0.217045 1.055779 0
M  V30 41 H 4.349618 1.187309 2.223561 0
M  V30 42 H 3.045100 1.866921 -0.023642 0
M  V30 43 H 1.927819 3.215055 -1.576452 0
M  V30 44 H -0.072948 4.117192 -2.536367 0
M  V30 45 H -2.335719 3.487623 -1.659075 0
M  V30 46 H -5.741681 2.298191 1.495334 0
M  V30 47 H -6.218496 -0.488864 1.863962 0
M  V30 48 H -5.139708 -2.629430 1.566213 0
M  V30 49 H -2.866391 -3.708878 1.514190 0
M  V30 50 H 0.753670 -4.118915 0.107122 0
M  V30 51 H 2.806004 -2.997229 -0.533127 0
M  V30 52 H 2.740630 -1.220814 -2.278729 0
M  V30 53 H 0.597444 -0.602124 -3.345315 0
M  V30 54 H -1.418867 -1.800897 -2.616844 0
M  V30 55 H -1.670717 -0.726627 0.080616 0
M  V30 56 H -0.451238 1.030912 1.157306 0
M  V30 END ATOM
M  V30 BEGIN BOND
M  V30 1 1 1 2
M  V30 2 1 2 3
M  V30 3 2 3 4
M  V30 4 1 3 5
M  V30 5 1 5 6
M  V30 6 1 6 7
M  V30 7 2 7 8
M  V30 8 1 7 9
M  V30 9 1 9 10
M  V30 10 2 10 11
M  V30 11 1 11 12
M  V30 12 2 12 13
M  V30 13 1 13 14
M  V30 14 1 14 15
M  V30 15 2 15 16
M  V30 16 1 16 17
M  V30 17 1 17 18
M  V30 18 2 18 19
M  V30 19 1 19 20
M  V30 20 2 20 21
M  V30 21 1 21 22
M  V30 22 1 22 23
M  V30 23 2 23 24
M  V30 24 2 23 25
M  V30 25 1 23 26
M  V30 26 2 26 27
M  V30 27 1 27 28
M  V30 28 2 28 29
M  V30 29 1 29 30
M  V30 30 2 30 31
M  V30 31 1 21 32
M  V30 32 2 32 33
M  V30 33 2 14 34
M  V30 34 1 34 10
M  V30 35 1 33 15
M  V30 36 1 33 18
M  V30 37 1 31 26
M  V30 38 1 1 35
M  V30 39 1 1 36
M  V30 40 1 1 37
M  V30 41 1 5 38
M  V30 42 1 5 39
M  V30 43 1 6 40
M  V30 44 1 6 41
M  V30 45 1 9 42
M  V30 46 1 11 43
M  V30 47 1 12 44
M  V30 48 1 13 45
M  V30 49 1 17 46
M  V30 50 1 19 47
M  V30 51 1 20 48
M  V30 52 1 22 49
M  V30 53 1 27 50
M  V30 54 1 28 51
M  V30 55 1 29 52
M  V30 56 1 30 53
M  V30 57 1 31 54
M  V30 58 1 32 55
M  V30 59 1 34 56
M  V30 END BOND
M  V30 END CTAB
M  END
>  <Dataset>  (230) 
ChEMBL_Kinases

>  <Ligand_Instance>  (230) 
nan

>  <PDB_ID>  (230) 
nan

>  <Standardized_SMILES>  (230) 
COC(=O)CCC(=O)Nc1cccc(-c2n[nH]c3ccc(NS(=O)(=O)c4ccccc4)cc23)c1

>  <Name>  (230) 
nan

>  <Pocket>  (230) 
nan

>  <ATP_Site>  (230) 
nan

>  <Peripheral>  (230) 
nan

>  <Num_H_Atoms_ProtBoundConf>  (230) 
nan

>  <Num_Resolved_Atoms>  (230) 
nan

>  <Num_Not_Resolved_Atoms>  (230) 
nan

$$$$
CHEMBL401776
     RDKit          3D

  0  0  0  0  0  0  0  0  0  0999 V3000
M  V30 BEGIN CTAB
M  V30 COUNTS 62 66 0 0 0
M  V30 BEGIN ATOM
M  V30 1 C 6.286891 0.734450 4.422607 0
M  V30 2 N 5.856562 -0.614394 4.233065 0
M  V30 3 C 6.390461 -1.446238 5.288086 0
M  V30 4 C 4.432137 -0.738835 4.217544 0
M  V30 5 C 3.853379 -0.126643 2.973243 0
M  V30 6 C 4.355658 -0.763272 1.720097 0
M  V30 7 O 3.857184 -0.260980 0.520994 0
M  V30 8 C 2.562119 -0.272964 0.087594 0
M  V30 9 C 1.387972 -0.757765 0.613533 0
M  V30 10 C 0.167201 -0.651361 -0.016897 0
M  V30 11 C 0.039541 -0.037836 -1.246134 0
M  V30 12 C 1.180562 0.455102 -1.800516 0
M  V30 13 C 2.403082 0.348595 -1.168594 0
M  V30 14 O 3.482884 0.897810 -1.853759 0
M  V30 15 C -1.295909 -0.148085 -1.497539 0
M  V30 16 C -2.050021 0.262473 -2.553564 0
M  V30 17 C -3.398231 0.053949 -2.620982 0
M  V30 18 C -4.022549 -0.605361 -1.564930 0
M  V30 19 C -5.460765 -0.866875 -1.561299 0
M  V30 20 C -6.050852 -2.006427 -2.066342 0
M  V30 21 C -7.416350 -2.198286 -2.033857 0
M  V30 22 C -8.245831 -1.256156 -1.494118 0
M  V30 23 C -7.677641 -0.105729 -0.981457 0
M  V30 24 C -6.331569 0.082526 -1.013898 0
M  V30 25 Cl -5.649685 1.552965 -0.353340 0
M  V30 26 C -3.311710 -1.044643 -0.468586 0
M  V30 27 C -1.956757 -0.794525 -0.479674 0
M  V30 28 N -1.028089 -1.103700 0.440391 0
M  V30 29 C -1.278809 -1.797557 1.700154 0
M  V30 30 C -1.152287 -3.307022 1.540846 0
M  V30 31 O -1.399565 -3.911168 2.768719 0
M  V30 32 C -4.011348 0.577101 -3.842036 0
M  V30 33 O -5.234291 0.512788 -4.143394 0
M  V30 34 N -2.897773 1.136520 -4.532256 0
M  V30 35 C -1.712048 0.957003 -3.774245 0
M  V30 36 O -0.691482 1.415828 -4.303089 0
M  V30 37 H 6.649567 0.857823 5.487383 0
M  V30 38 H 5.500955 1.502146 4.315062 0
M  V30 39 H 7.174740 0.979247 3.773062 0
M  V30 40 H 6.565021 -2.496760 4.952388 0
M  V30 41 H 7.361715 -1.074308 5.661803 0
M  V30 42 H 5.701474 -1.473552 6.168997 0
M  V30 43 H 3.981770 -0.282696 5.135182 0
M  V30 44 H 4.110762 -1.815672 4.213179 0
M  V30 45 H 4.196028 0.944533 2.937793 0
M  V30 46 H 2.773052 -0.087335 3.068317 0
M  V30 47 H 4.328479 -1.877167 1.760452 0
M  V30 48 H 5.468533 -0.540132 1.695830 0
M  V30 49 H 1.493870 -1.238422 1.549982 0
M  V30 50 H 1.114487 0.927811 -2.736902 0
M  V30 51 H 4.050589 0.334240 -2.472363 0
M  V30 52 H -5.406263 -2.742129 -2.486909 0
M  V30 53 H -7.815931 -3.101449 -2.440278 0
M  V30 54 H -9.317072 -1.401371 -1.466283 0
M  V30 55 H -8.350357 0.629213 -0.558527 0
M  V30 56 H -3.809425 -1.556114 0.346039 0
M  V30 57 H -0.546243 -1.456636 2.456989 0
M  V30 58 H -2.280836 -1.497432 2.014666 0
M  V30 59 H -0.116296 -3.578140 1.236967 0
M  V30 60 H -1.819046 -3.672517 0.724139 0
M  V30 61 H -1.697929 -4.867729 2.666355 0
M  V30 62 H -3.094896 1.591022 -5.475984 0
M  V30 END ATOM
M  V30 BEGIN BOND
M  V30 1 1 1 2
M  V30 2 1 2 3
M  V30 3 1 2 4
M  V30 4 1 4 5
M  V30 5 1 5 6
M  V30 6 1 6 7
M  V30 7 1 7 8
M  V30 8 2 8 9
M  V30 9 1 9 10
M  V30 10 2 10 11
M  V30 11 1 11 12
M  V30 12 2 12 13
M  V30 13 1 13 14
M  V30 14 1 11 15
M  V30 15 2 15 16
M  V30 16 1 16 17
M  V30 17 2 17 18
M  V30 18 1 18 19
M  V30 19 2 19 20
M  V30 20 1 20 21
M  V30 21 2 21 22
M  V30 22 1 22 23
M  V30 23 2 23 24
M  V30 24 1 24 25
M  V30 25 1 18 26
M  V30 26 2 26 27
M  V30 27 1 27 28
M  V30 28 1 28 29
M  V30 29 1 29 30
M  V30 30 1 30 31
M  V30 31 1 17 32
M  V30 32 2 32 33
M  V30 33 1 32 34
M  V30 34 1 34 35
M  V30 35 2 35 36
M  V30 36 1 13 8
M  V30 37 1 27 15
M  V30 38 1 28 10
M  V30 39 1 35 16
M  V30 40 1 24 19
M  V30 41 1 1 37
M  V30 42 1 1 38
M  V30 43 1 1 39
M  V30 44 1 3 40
M  V30 45 1 3 41
M  V30 46 1 3 42
M  V30 47 1 4 43
M  V30 48 1 4 44
M  V30 49 1 5 45
M  V30 50 1 5 46
M  V30 51 1 6 47
M  V30 52 1 6 48
M  V30 53 1 9 49
M  V30 54 1 12 50
M  V30 55 1 14 51
M  V30 56 1 20 52
M  V30 57 1 21 53
M  V30 58 1 22 54
M  V30 59 1 23 55
M  V30 60 1 26 56
M  V30 61 1 29 57
M  V30 62 1 29 58
M  V30 63 1 30 59
M  V30 64 1 30 60
M  V30 65 1 31 61
M  V30 66 1 34 62
M  V30 END BOND
M  V30 END CTAB
M  END
>  <Dataset>  (231) 
ChEMBL_Kinases

>  <Ligand_Instance>  (231) 
nan

>  <PDB_ID>  (231) 
nan

>  <Standardized_SMILES>  (231) 
CN(C)CCCOc1cc2c(cc1O)c1c3c(c(-c4ccccc4Cl)cc1n2CCO)C(=O)NC3=O

>  <Name>  (231) 
nan

>  <Pocket>  (231) 
nan

>  <ATP_Site>  (231) 
nan

>  <Peripheral>  (231) 
nan

>  <Num_H_Atoms_ProtBoundConf>  (231) 
nan

>  <Num_Resolved_Atoms>  (231) 
nan

>  <Num_Not_Resolved_Atoms>  (231) 
nan

$$$$
CHEMBL401746
     RDKit          3D

  0  0  0  0  0  0  0  0  0  0999 V3000
M  V30 BEGIN CTAB
M  V30 COUNTS 57 61 0 0 0
M  V30 BEGIN ATOM
M  V30 1 C 2.490424 -3.605236 5.435017 0
M  V30 2 N 2.487985 -3.814373 3.942417 0
M  V30 3 C 2.996015 -5.212337 3.882753 0
M  V30 4 C 3.519988 -2.978880 3.377757 0
M  V30 5 C 3.476113 -2.699941 1.930128 0
M  V30 6 C 3.522930 -3.799654 0.947670 0
M  V30 7 C 3.498118 -3.270237 -0.496391 0
M  V30 8 C 2.219470 -2.487401 -0.683965 0
M  V30 9 C 2.186519 -1.108179 -0.677388 0
M  V30 10 C 0.961450 -0.484346 -0.839916 0
M  V30 11 N 0.779639 0.858126 -0.850263 0
M  V30 12 C -0.531449 1.050541 -1.026410 0
M  V30 13 C -1.287037 2.200946 -1.111998 0
M  V30 14 C -2.650724 2.137708 -1.292680 0
M  V30 15 C -3.398257 3.393177 -1.370250 0
M  V30 16 C -3.738480 4.177809 -2.450260 0
M  V30 17 C -4.457965 5.332805 -2.255463 0
M  V30 18 C -4.870602 5.766692 -1.022386 0
M  V30 19 C -4.524036 4.968935 0.067992 0
M  V30 20 C -3.796646 3.793702 -0.087625 0
M  V30 21 Cl -3.466727 2.937578 1.411814 0
M  V30 22 C -3.268379 0.891532 -1.389795 0
M  V30 23 C -2.502262 -0.243581 -1.302791 0
M  V30 24 C -1.155379 -0.173767 -1.124045 0
M  V30 25 C -0.220488 -1.159684 -1.007736 0
M  V30 26 C -0.132491 -2.518559 -1.007172 0
M  V30 27 C 1.052788 -3.202568 -0.850491 0
M  V30 28 O 1.082784 -4.586693 -0.859036 0
M  V30 29 C -3.435029 -1.322691 -1.437561 0
M  V30 30 O -3.355103 -2.552539 -1.442773 0
M  V30 31 N -4.744896 -0.808232 -1.603733 0
M  V30 32 C -4.708582 0.631755 -1.582458 0
M  V30 33 O -5.610647 1.495864 -1.691293 0
M  V30 34 H 1.604734 -4.149126 5.809071 0
M  V30 35 H 3.396088 -4.081964 5.856524 0
M  V30 36 H 2.457223 -2.510610 5.556410 0
M  V30 37 H 2.784721 -5.642900 2.918555 0
M  V30 38 H 2.487091 -5.771000 4.721352 0
M  V30 39 H 4.081994 -5.207325 4.107058 0
M  V30 40 H 4.539154 -3.356486 3.664431 0
M  V30 41 H 3.428440 -1.997622 3.950934 0
M  V30 42 H 2.527873 -2.077511 1.767289 0
M  V30 43 H 4.336122 -1.977952 1.722615 0
M  V30 44 H 4.398464 -4.440774 1.056875 0
M  V30 45 H 2.609827 -4.447225 1.017632 0
M  V30 46 H 4.333587 -2.618324 -0.729945 0
M  V30 47 H 3.409652 -4.160229 -1.144502 0
M  V30 48 H 3.105430 -0.589789 -0.547446 0
M  V30 49 H 1.471715 1.645354 -0.749437 0
M  V30 50 H -0.812606 3.167226 -1.038736 0
M  V30 51 H -3.372113 3.756015 -3.374141 0
M  V30 52 H -4.660367 5.852709 -3.180766 0
M  V30 53 H -5.437160 6.687794 -0.929791 0
M  V30 54 H -4.862502 5.335908 1.031470 0
M  V30 55 H -0.995338 -3.115688 -1.132994 0
M  V30 56 H 0.505845 -5.173535 -1.457057 0
M  V30 57 H -5.694903 -1.248966 -1.735976 0
M  V30 END ATOM
M  V30 BEGIN BOND
M  V30 1 1 1 2
M  V30 2 1 2 3
M  V30 3 1 2 4
M  V30 4 1 4 5
M  V30 5 1 5 6
M  V30 6 1 6 7
M  V30 7 1 7 8
M  V30 8 2 8 9
M  V30 9 1 9 10
M  V30 10 1 10 11
M  V30 11 1 11 12
M  V30 12 2 12 13
M  V30 13 1 13 14
M  V30 14 1 14 15
M  V30 15 2 15 16
M  V30 16 1 16 17
M  V30 17 2 17 18
M  V30 18 1 18 19
M  V30 19 2 19 20
M  V30 20 1 20 21
M  V30 21 2 14 22
M  V30 22 1 22 23
M  V30 23 2 23 24
M  V30 24 1 24 25
M  V30 25 1 25 26
M  V30 26 2 26 27
M  V30 27 1 27 28
M  V30 28 1 23 29
M  V30 29 2 29 30
M  V30 30 1 29 31
M  V30 31 1 31 32
M  V30 32 2 32 33
M  V30 33 1 27 8
M  V30 34 2 25 10
M  V30 35 1 24 12
M  V30 36 1 20 15
M  V30 37 1 32 22
M  V30 38 1 1 34
M  V30 39 1 1 35
M  V30 40 1 1 36
M  V30 41 1 3 37
M  V30 42 1 3 38
M  V30 43 1 3 39
M  V30 44 1 4 40
M  V30 45 1 4 41
M  V30 46 1 5 42
M  V30 47 1 5 43
M  V30 48 1 6 44
M  V30 49 1 6 45
M  V30 50 1 7 46
M  V30 51 1 7 47
M  V30 52 1 9 48
M  V30 53 1 11 49
M  V30 54 1 13 50
M  V30 55 1 16 51
M  V30 56 1 17 52
M  V30 57 1 18 53
M  V30 58 1 19 54
M  V30 59 1 26 55
M  V30 60 1 28 56
M  V30 61 1 31 57
M  V30 END BOND
M  V30 END CTAB
M  END
>  <Dataset>  (232) 
ChEMBL_Kinases

>  <Ligand_Instance>  (232) 
nan

>  <PDB_ID>  (232) 
nan

>  <Standardized_SMILES>  (232) 
CN(C)CCCCc1cc2[nH]c3cc(-c4ccccc4Cl)c4c(c3c2cc1O)C(=O)NC4=O

>  <Name>  (232) 
nan

>  <Pocket>  (232) 
nan

>  <ATP_Site>  (232) 
nan

>  <Peripheral>  (232) 
nan

>  <Num_H_Atoms_ProtBoundConf>  (232) 
nan

>  <Num_Resolved_Atoms>  (232) 
nan

>  <Num_Not_Resolved_Atoms>  (232) 
nan

$$$$
CHEMBL401622
     RDKit          3D

  0  0  0  0  0  0  0  0  0  0999 V3000
M  V30 BEGIN CTAB
M  V30 COUNTS 71 77 0 0 0
M  V30 BEGIN ATOM
M  V30 1 C 2.679645 -1.762124 7.910067 0
M  V30 2 N 3.079218 -0.645393 7.042380 0
M  V30 3 N 3.965639 0.286656 7.368559 0
M  V30 4 C 4.115397 1.170229 6.364599 0
M  V30 5 N 4.954013 2.326285 6.273234 0
M  V30 6 C 3.253941 0.745545 5.345869 0
M  V30 7 C 2.937383 1.199004 4.082010 0
M  V30 8 C 2.010036 0.503370 3.332665 0
M  V30 9 C 1.702752 1.017483 1.997753 0
M  V30 10 C 1.895881 0.418427 0.770169 0
M  V30 11 C 1.524844 1.103080 -0.366487 0
M  V30 12 C 0.969175 2.363548 -0.305341 0
M  V30 13 C 0.768063 2.981302 0.927056 0
M  V30 14 C 1.144980 2.282459 2.056465 0
M  V30 15 C 1.380353 -0.638628 3.801051 0
M  V30 16 C 0.420722 -1.274546 2.902523 0
M  V30 17 C 0.696026 -2.572466 2.507612 0
M  V30 18 C -0.143664 -3.265346 1.659697 0
M  V30 19 C -1.284824 -2.664308 1.187587 0
M  V30 20 C -2.329399 -3.173551 0.270478 0
M  V30 21 N -2.024741 -2.786531 -1.064995 0
M  V30 22 C -0.779709 -3.253691 -1.568857 0
M  V30 23 C -0.352639 -2.439363 -2.799834 0
M  V30 24 C -1.515966 -2.232052 -3.687354 0
M  V30 25 N -1.994928 -0.874232 -3.775353 0
M  V30 26 C -1.855565 0.167537 -2.949314 0
M  V30 27 O -1.237709 0.149548 -1.870792 0
M  V30 28 N -2.466182 1.274114 -3.408469 0
M  V30 29 C -3.019487 0.924341 -4.578374 0
M  V30 30 C -3.762556 1.741173 -5.432883 0
M  V30 31 C -4.248003 1.186025 -6.598219 0
M  V30 32 C -3.973413 -0.140179 -6.853608 0
M  V30 33 C -3.233717 -0.917383 -5.983007 0
M  V30 34 C -2.732742 -0.382883 -4.801686 0
M  V30 35 C -2.666978 -3.178582 -3.419334 0
M  V30 36 C -3.079132 -3.202153 -1.988701 0
M  V30 37 C -1.562452 -1.373326 1.578292 0
M  V30 38 C -0.735990 -0.648169 2.432094 0
M  V30 39 N 1.701670 -1.073821 5.047283 0
M  V30 40 C 2.607467 -0.410643 5.802837 0
M  V30 41 H 3.550336 -2.169883 8.481064 0
M  V30 42 H 2.298736 -2.615585 7.298539 0
M  V30 43 H 1.931805 -1.447435 8.668992 0
M  V30 44 H 4.509254 3.144123 6.780439 0
M  V30 45 H 5.878588 2.482276 5.813759 0
M  V30 46 H 3.445417 2.088062 3.750865 0
M  V30 47 H 2.336443 -0.564696 0.843163 0
M  V30 48 H 1.703595 0.574919 -1.305451 0
M  V30 49 H 0.688266 2.873521 -1.224741 0
M  V30 50 H 0.329308 3.971521 0.935418 0
M  V30 51 H 0.943429 2.858766 2.972431 0
M  V30 52 H 1.566028 -3.142493 2.818107 0
M  V30 53 H -0.011418 -4.278564 1.307221 0
M  V30 54 H -2.267832 -4.298715 0.368348 0
M  V30 55 H -3.347358 -2.914383 0.596167 0
M  V30 56 H 0.052552 -3.300754 -0.837858 0
M  V30 57 H -0.942969 -4.288335 -1.936935 0
M  V30 58 H 0.412014 -3.109393 -3.296000 0
M  V30 59 H 0.227540 -1.543081 -2.533179 0
M  V30 60 H -1.194320 -2.486158 -4.741620 0
M  V30 61 H -2.496603 2.220023 -2.934598 0
M  V30 62 H -3.952811 2.788127 -5.184531 0
M  V30 63 H -4.818389 1.852106 -7.232705 0
M  V30 64 H -4.383304 -0.515628 -7.785192 0
M  V30 65 H -3.048488 -1.949569 -6.232556 0
M  V30 66 H -2.409625 -4.169059 -3.841826 0
M  V30 67 H -3.518405 -2.789064 -4.035131 0
M  V30 68 H -3.287461 -4.272572 -1.726779 0
M  V30 69 H -4.032703 -2.657846 -1.782424 0
M  V30 70 H -2.428673 -0.758050 1.290688 0
M  V30 71 H -0.903088 0.357632 2.768251 0
M  V30 END ATOM
M  V30 BEGIN BOND
M  V30 1 1 1 2
M  V30 2 1 2 3
M  V30 3 2 3 4
M  V30 4 1 4 5
M  V30 5 1 4 6
M  V30 6 2 6 7
M  V30 7 1 7 8
M  V30 8 1 8 9
M  V30 9 2 9 10
M  V30 10 1 10 11
M  V30 11 2 11 12
M  V30 12 1 12 13
M  V30 13 2 13 14
M  V30 14 2 8 15
M  V30 15 1 15 16
M  V30 16 2 16 17
M  V30 17 1 17 18
M  V30 18 2 18 19
M  V30 19 1 19 20
M  V30 20 1 20 21
M  V30 21 1 21 22
M  V30 22 1 22 23
M  V30 23 1 23 24
M  V30 24 1 24 25
M  V30 25 1 25 26
M  V30 26 2 26 27
M  V30 27 1 26 28
M  V30 28 1 28 29
M  V30 29 2 29 30
M  V30 30 1 30 31
M  V30 31 2 31 32
M  V30 32 1 32 33
M  V30 33 2 33 34
M  V30 34 1 24 35
M  V30 35 1 35 36
M  V30 36 1 19 37
M  V30 37 2 37 38
M  V30 38 1 15 39
M  V30 39 2 39 40
M  V30 40 1 40 2
M  V30 41 1 40 6
M  V30 42 1 14 9
M  V30 43 1 38 16
M  V30 44 1 36 21
M  V30 45 1 34 25
M  V30 46 1 34 29
M  V30 47 1 1 41
M  V30 48 1 1 42
M  V30 49 1 1 43
M  V30 50 1 5 44
M  V30 51 1 5 45
M  V30 52 1 7 46
M  V30 53 1 10 47
M  V30 54 1 11 48
M  V30 55 1 12 49
M  V30 56 1 13 50
M  V30 57 1 14 51
M  V30 58 1 17 52
M  V30 59 1 18 53
M  V30 60 1 20 54
M  V30 61 1 20 55
M  V30 62 1 22 56
M  V30 63 1 22 57
M  V30 64 1 23 58
M  V30 65 1 23 59
M  V30 66 1 24 60
M  V30 67 1 28 61
M  V30 68 1 30 62
M  V30 69 1 31 63
M  V30 70 1 32 64
M  V30 71 1 33 65
M  V30 72 1 35 66
M  V30 73 1 35 67
M  V30 74 1 36 68
M  V30 75 1 36 69
M  V30 76 1 37 70
M  V30 77 1 38 71
M  V30 END BOND
M  V30 END CTAB
M  END
>  <Dataset>  (233) 
ChEMBL_Kinases

>  <Ligand_Instance>  (233) 
nan

>  <PDB_ID>  (233) 
nan

>  <Standardized_SMILES>  (233) 
Cn1nc(N)c2cc(-c3ccccc3)c(-c3ccc(CN4CCC(n5c(=O)[nH]c6ccccc65)CC4)cc3)nc21

>  <Name>  (233) 
nan

>  <Pocket>  (233) 
nan

>  <ATP_Site>  (233) 
nan

>  <Peripheral>  (233) 
nan

>  <Num_H_Atoms_ProtBoundConf>  (233) 
nan

>  <Num_Resolved_Atoms>  (233) 
nan

>  <Num_Not_Resolved_Atoms>  (233) 
nan

$$$$
CHEMBL401303
     RDKit          3D

  0  0  0  0  0  0  0  0  0  0999 V3000
M  V30 BEGIN CTAB
M  V30 COUNTS 38 41 0 0 0
M  V30 BEGIN ATOM
M  V30 1 Cl -1.215001 -3.989148 2.942900 0
M  V30 2 C 0.361202 -3.756508 2.191946 0
M  V30 3 C 1.319937 -4.695262 2.562035 0
M  V30 4 C 2.598122 -4.569154 2.004253 0
M  V30 5 C 2.815373 -3.528900 1.132817 0
M  V30 6 C 1.841589 -2.619205 0.789702 0
M  V30 7 C 0.577162 -2.719295 1.321703 0
M  V30 8 C -0.477662 -1.779624 0.983782 0
M  V30 9 C -0.319859 -0.716235 0.127793 0
M  V30 10 C -1.327843 0.190092 -0.204292 0
M  V30 11 N -0.946917 1.206721 -1.112466 0
M  V30 12 C -0.286841 2.501306 -1.076370 0
M  V30 13 C 1.064632 2.294938 -0.532889 0
M  V30 14 C 1.222481 2.411950 0.848462 0
M  V30 15 C 2.490043 2.214186 1.389891 0
M  V30 16 C 3.587193 1.910817 0.627457 0
M  V30 17 N 3.444315 1.795002 -0.716895 0
M  V30 18 C 2.215557 1.988660 -1.223412 0
M  V30 19 N -2.513204 -0.035621 0.377631 0
M  V30 20 N -3.605767 0.684338 0.210904 0
M  V30 21 C -4.596839 0.133944 0.966249 0
M  V30 22 C -4.020269 -0.951160 1.585852 0
M  V30 23 Br -4.939076 -2.114825 2.776286 0
M  V30 24 C -2.692864 -1.081007 1.227076 0
M  V30 25 N -1.697836 -1.933256 1.523772 0
M  V30 26 H 1.108971 -5.503389 3.256798 0
M  V30 27 H 3.401510 -5.253629 2.236464 0
M  V30 28 H 3.826639 -3.443533 0.702169 0
M  V30 29 H 2.141040 -1.853576 0.097410 0
M  V30 30 H 0.659356 -0.587834 -0.309298 0
M  V30 31 H -1.301422 0.761074 -1.987829 0
M  V30 32 H -0.859905 3.185173 -0.422480 0
M  V30 33 H -0.229138 2.879285 -2.116699 0
M  V30 34 H 0.373987 2.650863 1.468911 0
M  V30 35 H 2.531232 2.323476 2.473121 0
M  V30 36 H 4.498403 1.789839 1.210259 0
M  V30 37 H 2.064398 1.901868 -2.310394 0
M  V30 38 H -5.637980 0.486496 1.059563 0
M  V30 END ATOM
M  V30 BEGIN BOND
M  V30 1 1 1 2
M  V30 2 2 2 3
M  V30 3 1 3 4
M  V30 4 2 4 5
M  V30 5 1 5 6
M  V30 6 2 6 7
M  V30 7 1 7 8
M  V30 8 1 8 9
M  V30 9 2 9 10
M  V30 10 1 10 11
M  V30 11 1 11 12
M  V30 12 1 12 13
M  V30 13 2 13 14
M  V30 14 1 14 15
M  V30 15 2 15 16
M  V30 16 1 16 17
M  V30 17 2 17 18
M  V30 18 1 10 19
M  V30 19 1 19 20
M  V30 20 2 20 21
M  V30 21 1 21 22
M  V30 22 1 22 23
M  V30 23 2 22 24
M  V30 24 1 24 25
M  V30 25 1 7 2
M  V30 26 2 25 8
M  V30 27 1 18 13
M  V30 28 1 24 19
M  V30 29 1 3 26
M  V30 30 1 4 27
M  V30 31 1 5 28
M  V30 32 1 6 29
M  V30 33 1 9 30
M  V30 34 1 11 31
M  V30 35 1 12 32
M  V30 36 1 12 33
M  V30 37 1 14 34
M  V30 38 1 15 35
M  V30 39 1 16 36
M  V30 40 1 18 37
M  V30 41 1 21 38
M  V30 END BOND
M  V30 END CTAB
M  END
>  <Dataset>  (234) 
ChEMBL_Kinases

>  <Ligand_Instance>  (234) 
nan

>  <PDB_ID>  (234) 
nan

>  <Standardized_SMILES>  (234) 
Clc1ccccc1-c1cc(NCc2cccnc2)n2ncc(Br)c2n1

>  <Name>  (234) 
nan

>  <Pocket>  (234) 
nan

>  <ATP_Site>  (234) 
nan

>  <Peripheral>  (234) 
nan

>  <Num_H_Atoms_ProtBoundConf>  (234) 
nan

>  <Num_Resolved_Atoms>  (234) 
nan

>  <Num_Not_Resolved_Atoms>  (234) 
nan

$$$$
CHEMBL3939964
     RDKit          3D

  0  0  0  0  0  0  0  0  0  0999 V3000
M  V30 BEGIN CTAB
M  V30 COUNTS 71 74 0 0 0
M  V30 BEGIN ATOM
M  V30 1 N 6.560071 -0.482748 1.683145 0
M  V30 2 C 5.150321 -0.494879 1.503131 0
M  V30 3 O 4.495073 -0.277141 2.570114 0
M  V30 4 C 4.830063 -0.769625 0.060846 0 CFG=2
M  V30 5 C 5.622220 0.149164 -0.787999 0
M  V30 6 C 5.456302 0.053604 -2.259640 0
M  V30 7 C 4.102809 0.328994 -2.807203 0
M  V30 8 C 3.627491 1.730033 -2.477696 0
M  V30 9 C 2.206813 1.855589 -2.953843 0
M  V30 10 C 1.836590 0.811639 -3.980609 0
M  V30 11 C 2.913174 0.594559 -4.995688 0
M  V30 12 C 4.229936 0.265456 -4.339983 0
M  V30 13 N 3.410491 -0.792052 -0.156637 0
M  V30 14 C 2.672583 -2.021874 -0.336739 0
M  V30 15 O 3.414502 -3.056951 -0.278402 0
M  V30 16 C 1.240303 -2.089027 -0.561419 0
M  V30 17 C 0.425697 -0.981793 -0.647139 0
M  V30 18 C -0.921936 -1.128223 -0.863542 0
M  V30 19 C -1.513155 -2.364001 -1.002452 0
M  V30 20 C -2.944911 -2.685542 -1.240026 0
M  V30 21 N -3.692908 -2.861620 -0.031559 0
M  V30 22 C -4.137570 -1.794002 0.798415 0
M  V30 23 O -3.893729 -0.614699 0.511452 0
M  V30 24 C -4.902530 -2.064661 2.024323 0
M  V30 25 C -5.310229 -3.259721 2.587322 0
M  V30 26 N -5.987338 -2.977442 3.715916 0
M  V30 27 N -6.036229 -1.663525 3.907791 0
M  V30 28 C -6.639359 -0.896336 4.954188 0
M  V30 29 C -8.023438 -0.746080 4.850421 0
M  V30 30 C -8.715826 -0.021372 5.803280 0
M  V30 31 C -8.041867 0.566951 6.877196 0
M  V30 32 C -6.657442 0.409494 6.970127 0
M  V30 33 C -5.958266 -0.320857 6.010162 0
M  V30 34 C -5.369464 -1.068518 2.871127 0
M  V30 35 N -5.194891 0.348192 2.707330 0
M  V30 36 C -0.677504 -3.478630 -0.913627 0
M  V30 37 C 0.698771 -3.347794 -0.693433 0
M  V30 38 H 7.263520 0.125526 2.198929 0
M  V30 39 H 7.599277 -0.633009 1.703301 0
M  V30 40 H 5.220537 -1.823357 -0.084815 0
M  V30 41 H 5.532902 1.216180 -0.465070 0
M  V30 42 H 6.711125 -0.085319 -0.572355 0
M  V30 43 H 5.819758 -0.926240 -2.638624 0
M  V30 44 H 6.151028 0.807490 -2.736046 0
M  V30 45 H 3.315895 -0.372197 -2.552011 0
M  V30 46 H 3.683084 1.962635 -1.418503 0
M  V30 47 H 4.217555 2.497409 -3.024521 0
M  V30 48 H 2.017264 2.852716 -3.429933 0
M  V30 49 H 1.480994 1.797842 -2.122540 0
M  V30 50 H 1.545983 -0.159195 -3.537561 0
M  V30 51 H 0.950032 1.216831 -4.546214 0
M  V30 52 H 2.620622 -0.264153 -5.629826 0
M  V30 53 H 3.035906 1.521244 -5.605487 0
M  V30 54 H 5.030308 0.965706 -4.634335 0
M  V30 55 H 4.571978 -0.751405 -4.588183 0
M  V30 56 H 2.852798 0.087530 -0.191683 0
M  V30 57 H 0.850691 0.003750 -0.543838 0
M  V30 58 H -1.592085 -0.302930 -0.939061 0
M  V30 59 H -3.078955 -3.505989 -1.956395 0
M  V30 60 H -3.402915 -1.782944 -1.744539 0
M  V30 61 H -3.917543 -3.866201 0.241010 0
M  V30 62 H -5.093141 -4.232356 2.150722 0
M  V30 63 H -8.590527 -1.180025 4.041608 0
M  V30 64 H -9.794061 0.123278 5.763911 0
M  V30 65 H -8.549325 1.149450 7.654557 0
M  V30 66 H -6.062832 0.840281 7.781100 0
M  V30 67 H -4.886450 -0.476063 6.030643 0
M  V30 68 H -6.010280 0.951655 2.395737 0
M  V30 69 H -4.387204 0.982703 2.832152 0
M  V30 70 H -1.058167 -4.498533 -1.011380 0
M  V30 71 H 1.314881 -4.226297 -0.629801 0
M  V30 END ATOM
M  V30 BEGIN BOND
M  V30 1 1 1 2
M  V30 2 2 2 3
M  V30 3 1 2 4
M  V30 4 1 4 5
M  V30 5 1 5 6
M  V30 6 1 6 7
M  V30 7 1 7 8
M  V30 8 1 8 9
M  V30 9 1 9 10
M  V30 10 1 10 11
M  V30 11 1 11 12
M  V30 12 1 4 13
M  V30 13 1 13 14
M  V30 14 2 14 15
M  V30 15 1 14 16
M  V30 16 2 16 17
M  V30 17 1 17 18
M  V30 18 2 18 19
M  V30 19 1 19 20
M  V30 20 1 20 21
M  V30 21 1 21 22
M  V30 22 2 22 23
M  V30 23 1 22 24
M  V30 24 1 24 25
M  V30 25 2 25 26
M  V30 26 1 26 27
M  V30 27 1 27 28
M  V30 28 2 28 29
M  V30 29 1 29 30
M  V30 30 2 30 31
M  V30 31 1 31 32
M  V30 32 2 32 33
M  V30 33 1 27 34
M  V30 34 1 34 35
M  V30 35 1 19 36
M  V30 36 2 36 37
M  V30 37 1 12 7
M  V30 38 1 37 16
M  V30 39 2 34 24
M  V30 40 1 33 28
M  V30 41 1 1 38
M  V30 42 1 1 39
M  V30 43 1 4 40 CFG=3
M  V30 44 1 5 41
M  V30 45 1 5 42
M  V30 46 1 6 43
M  V30 47 1 6 44
M  V30 48 1 7 45
M  V30 49 1 8 46
M  V30 50 1 8 47
M  V30 51 1 9 48
M  V30 52 1 9 49
M  V30 53 1 10 50
M  V30 54 1 10 51
M  V30 55 1 11 52
M  V30 56 1 11 53
M  V30 57 1 12 54
M  V30 58 1 12 55
M  V30 59 1 13 56
M  V30 60 1 17 57
M  V30 61 1 18 58
M  V30 62 1 20 59
M  V30 63 1 20 60
M  V30 64 1 21 61
M  V30 65 1 25 62
M  V30 66 1 29 63
M  V30 67 1 30 64
M  V30 68 1 31 65
M  V30 69 1 32 66
M  V30 70 1 33 67
M  V30 71 1 35 68
M  V30 72 1 35 69
M  V30 73 1 36 70
M  V30 74 1 37 71
M  V30 END BOND
M  V30 END CTAB
M  END
>  <Dataset>  (235) 
ChEMBL_Kinases

>  <Ligand_Instance>  (235) 
nan

>  <PDB_ID>  (235) 
nan

>  <Standardized_SMILES>  (235) 
NC(=O)[C@H](CCC1CCCCC1)NC(=O)c1ccc(CNC(=O)c2cnn(-c3ccccc3)c2N)cc1

>  <Name>  (235) 
nan

>  <Pocket>  (235) 
nan

>  <ATP_Site>  (235) 
nan

>  <Peripheral>  (235) 
nan

>  <Num_H_Atoms_ProtBoundConf>  (235) 
nan

>  <Num_Resolved_Atoms>  (235) 
nan

>  <Num_Not_Resolved_Atoms>  (235) 
nan

$$$$
CHEMBL3644019
     RDKit          3D

  0  0  0  0  0  0  0  0  0  0999 V3000
M  V30 BEGIN CTAB
M  V30 COUNTS 52 54 0 0 0
M  V30 BEGIN ATOM
M  V30 1 C -3.031458 -0.891174 0.110943 0
M  V30 2 C -2.131368 -2.025532 -0.324787 0 CFG=1
M  V30 3 O -1.632851 -2.715503 0.804400 0
M  V30 4 C -0.259273 -2.787038 0.966025 0
M  V30 5 N 0.579958 -2.248567 0.079983 0
M  V30 6 C 1.905845 -2.254190 0.134133 0
M  V30 7 N 2.751170 -1.669228 -0.847067 0
M  V30 8 C 2.637357 -0.309762 -0.404056 0
M  V30 9 C 3.460439 0.407821 0.437520 0
M  V30 10 C 3.168154 1.720484 0.737203 0
M  V30 11 C 2.057007 2.338096 0.206016 0
M  V30 12 S 1.680470 4.020100 0.598316 0
M  V30 13 O 1.077275 4.708975 -0.572429 0
M  V30 14 O 2.973112 4.666101 1.000935 0
M  V30 15 C 0.600803 3.954453 1.995402 0
M  V30 16 C 1.330296 3.441085 3.255590 0
M  V30 17 C 0.724490 4.810402 3.165848 0
M  V30 18 C 1.176152 1.702494 -0.645335 0
M  V30 19 C 1.526697 0.380193 -0.907193 0
M  V30 20 N 2.465691 -2.859472 1.180086 0
M  V30 21 C 1.753977 -3.459278 2.172658 0
M  V30 22 C 0.389041 -3.408282 2.039798 0
M  V30 23 C -0.472710 -4.032621 3.078513 0
M  V30 24 F 0.251511 -4.618183 4.092901 0
M  V30 25 F -1.376606 -3.127297 3.580370 0
M  V30 26 F -1.205149 -5.058848 2.486739 0
M  V30 27 C -2.805903 -2.992615 -1.250299 0
M  V30 28 C -3.810375 -3.807689 -0.511191 0
M  V30 29 C -1.710899 -3.946055 -1.755488 0
M  V30 30 O -3.330108 -2.350260 -2.382313 0
M  V30 31 H -3.701013 -0.518991 -0.674966 0
M  V30 32 H -3.674687 -1.258974 0.954653 0
M  V30 33 H -2.388933 -0.046032 0.499011 0
M  V30 34 H -1.276181 -1.568775 -0.908874 0
M  V30 35 H 3.317702 -2.022224 -1.665217 0
M  V30 36 H 4.303662 -0.160115 0.802057 0
M  V30 37 H 3.841007 2.241656 1.400646 0
M  V30 38 H -0.343776 3.397542 1.797251 0
M  V30 39 H 0.854646 2.632885 3.829212 0
M  V30 40 H 2.417481 3.432384 3.286268 0
M  V30 41 H 1.347888 5.711033 3.195406 0
M  V30 42 H -0.198507 4.900468 3.794694 0
M  V30 43 H 0.291726 2.134693 -1.090132 0
M  V30 44 H 0.829965 -0.139448 -1.585354 0
M  V30 45 H 2.220195 -3.948517 3.018232 0
M  V30 46 H -4.720284 -3.928588 -1.137929 0
M  V30 47 H -4.135484 -3.371847 0.449818 0
M  V30 48 H -3.410754 -4.832526 -0.278836 0
M  V30 49 H -0.862047 -3.331571 -2.146401 0
M  V30 50 H -2.095090 -4.652910 -2.500024 0
M  V30 51 H -1.314079 -4.451427 -0.853082 0
M  V30 52 H -2.681843 -1.703870 -2.725964 0
M  V30 END ATOM
M  V30 BEGIN BOND
M  V30 1 1 1 2
M  V30 2 1 2 3
M  V30 3 1 3 4
M  V30 4 2 4 5
M  V30 5 1 5 6
M  V30 6 1 6 7
M  V30 7 1 7 8
M  V30 8 2 8 9
M  V30 9 1 9 10
M  V30 10 2 10 11
M  V30 11 1 11 12
M  V30 12 2 12 13
M  V30 13 2 12 14
M  V30 14 1 12 15
M  V30 15 1 15 16
M  V30 16 1 16 17
M  V30 17 1 11 18
M  V30 18 2 18 19
M  V30 19 2 6 20
M  V30 20 1 20 21
M  V30 21 2 21 22
M  V30 22 1 22 23
M  V30 23 1 23 24
M  V30 24 1 23 25
M  V30 25 1 23 26
M  V30 26 1 2 27
M  V30 27 1 27 28
M  V30 28 1 27 29
M  V30 29 1 27 30
M  V30 30 1 22 4
M  V30 31 1 19 8
M  V30 32 1 17 15
M  V30 33 1 1 31
M  V30 34 1 1 32
M  V30 35 1 1 33
M  V30 36 1 2 34 CFG=3
M  V30 37 1 7 35
M  V30 38 1 9 36
M  V30 39 1 10 37
M  V30 40 1 15 38
M  V30 41 1 16 39
M  V30 42 1 16 40
M  V30 43 1 17 41
M  V30 44 1 17 42
M  V30 45 1 18 43
M  V30 46 1 19 44
M  V30 47 1 21 45
M  V30 48 1 28 46
M  V30 49 1 28 47
M  V30 50 1 28 48
M  V30 51 1 29 49
M  V30 52 1 29 50
M  V30 53 1 29 51
M  V30 54 1 30 52
M  V30 END BOND
M  V30 END CTAB
M  END
>  <Dataset>  (236) 
ChEMBL_Kinases

>  <Ligand_Instance>  (236) 
nan

>  <PDB_ID>  (236) 
nan

>  <Standardized_SMILES>  (236) 
C[C@@H](Oc1nc(Nc2ccc(S(=O)(=O)C3CC3)cc2)ncc1C(F)(F)F)C(C)(C)O

>  <Name>  (236) 
nan

>  <Pocket>  (236) 
nan

>  <ATP_Site>  (236) 
nan

>  <Peripheral>  (236) 
nan

>  <Num_H_Atoms_ProtBoundConf>  (236) 
nan

>  <Num_Resolved_Atoms>  (236) 
nan

>  <Num_Not_Resolved_Atoms>  (236) 
nan

$$$$
CHEMBL3644020
     RDKit          3D

  0  0  0  0  0  0  0  0  0  0999 V3000
M  V30 BEGIN CTAB
M  V30 COUNTS 52 54 0 0 0
M  V30 BEGIN ATOM
M  V30 1 C 4.256689 -1.649125 3.911013 0
M  V30 2 C 3.383436 -2.441774 2.963875 0 CFG=1
M  V30 3 O 2.070202 -1.981651 3.004211 0
M  V30 4 C 3.932041 -2.396498 1.524172 0 CFG=1
M  V30 5 C 5.329436 -2.996285 1.622222 0
M  V30 6 O 3.101848 -3.212772 0.762814 0
M  V30 7 C 2.264684 -2.869832 -0.259413 0
M  V30 8 N 2.106159 -1.601278 -0.725898 0
M  V30 9 C 1.253186 -1.341915 -1.743560 0
M  V30 10 N 0.989376 -0.075327 -2.328941 0
M  V30 11 C 0.067573 0.748447 -1.578488 0
M  V30 12 C -0.401183 1.940004 -2.093519 0
M  V30 13 C -1.265495 2.766657 -1.413088 0
M  V30 14 C -1.699209 2.410627 -0.154705 0
M  V30 15 S -2.805598 3.225167 0.941347 0
M  V30 16 O -2.341889 3.246230 2.345994 0
M  V30 17 O -2.987273 4.666887 0.495965 0
M  V30 18 C -4.381812 2.444554 0.890530 0
M  V30 19 C -4.555081 1.409273 1.783116 0
M  V30 20 C -5.684599 0.639078 1.941147 0
M  V30 21 C -6.753779 0.960950 1.095725 0
M  V30 22 C -6.615122 2.001251 0.181527 0
M  V30 23 C -5.458257 2.731343 0.075169 0
M  V30 24 C -1.249921 1.214504 0.403608 0
M  V30 25 C -0.383594 0.418003 -0.317293 0
M  V30 26 N 0.560550 -2.351202 -2.293976 0
M  V30 27 C 0.680755 -3.626369 -1.870426 0
M  V30 28 C 1.551834 -3.939770 -0.819177 0
M  V30 29 C 1.715555 -5.331140 -0.308969 0
M  V30 30 F 1.365430 -5.416180 1.026631 0
M  V30 31 F 0.864589 -6.137714 -1.002936 0
M  V30 32 F 3.014642 -5.709361 -0.560084 0
M  V30 33 H 5.015368 -2.306537 4.405086 0
M  V30 34 H 3.589299 -1.292745 4.744506 0
M  V30 35 H 4.681386 -0.753031 3.434163 0
M  V30 36 H 3.384437 -3.500137 3.345197 0
M  V30 37 H 1.679819 -2.299680 3.864487 0
M  V30 38 H 3.966764 -1.337064 1.250644 0
M  V30 39 H 5.879425 -2.458967 2.440194 0
M  V30 40 H 5.858810 -3.010767 0.671066 0
M  V30 41 H 5.149113 -4.031420 2.030705 0
M  V30 42 H 1.365500 0.324647 -3.210134 0
M  V30 43 H -0.107767 2.285860 -3.067095 0
M  V30 44 H -1.683604 3.705457 -1.725975 0
M  V30 45 H -3.754487 1.105981 2.477739 0
M  V30 46 H -5.789390 -0.160394 2.645995 0
M  V30 47 H -7.708563 0.414664 1.131186 0
M  V30 48 H -7.433094 2.278528 -0.493890 0
M  V30 49 H -5.263209 3.558310 -0.608926 0
M  V30 50 H -1.506669 0.798655 1.385584 0
M  V30 51 H -0.006936 -0.533787 0.082950 0
M  V30 52 H 0.122964 -4.428897 -2.318391 0
M  V30 END ATOM
M  V30 BEGIN BOND
M  V30 1 1 1 2
M  V30 2 1 2 3
M  V30 3 1 2 4
M  V30 4 1 4 5
M  V30 5 1 4 6
M  V30 6 1 6 7
M  V30 7 2 7 8
M  V30 8 1 8 9
M  V30 9 1 9 10
M  V30 10 1 10 11
M  V30 11 2 11 12
M  V30 12 1 12 13
M  V30 13 2 13 14
M  V30 14 1 14 15
M  V30 15 2 15 16
M  V30 16 2 15 17
M  V30 17 1 15 18
M  V30 18 2 18 19
M  V30 19 1 19 20
M  V30 20 2 20 21
M  V30 21 1 21 22
M  V30 22 2 22 23
M  V30 23 1 14 24
M  V30 24 2 24 25
M  V30 25 2 9 26
M  V30 26 1 26 27
M  V30 27 2 27 28
M  V30 28 1 28 29
M  V30 29 1 29 30
M  V30 30 1 29 31
M  V30 31 1 29 32
M  V30 32 1 28 7
M  V30 33 1 25 11
M  V30 34 1 23 18
M  V30 35 1 1 33
M  V30 36 1 1 34
M  V30 37 1 1 35
M  V30 38 1 2 36 CFG=1
M  V30 39 1 3 37
M  V30 40 1 4 38 CFG=3
M  V30 41 1 5 39
M  V30 42 1 5 40
M  V30 43 1 5 41
M  V30 44 1 10 42
M  V30 45 1 12 43
M  V30 46 1 13 44
M  V30 47 1 19 45
M  V30 48 1 20 46
M  V30 49 1 21 47
M  V30 50 1 22 48
M  V30 51 1 23 49
M  V30 52 1 24 50
M  V30 53 1 25 51
M  V30 54 1 27 52
M  V30 END BOND
M  V30 END CTAB
M  END
>  <Dataset>  (237) 
ChEMBL_Kinases

>  <Ligand_Instance>  (237) 
nan

>  <PDB_ID>  (237) 
nan

>  <Standardized_SMILES>  (237) 
C[C@@H](O)[C@@H](C)Oc1nc(Nc2ccc(S(=O)(=O)c3ccccc3)cc2)ncc1C(F)(F)F

>  <Name>  (237) 
nan

>  <Pocket>  (237) 
nan

>  <ATP_Site>  (237) 
nan

>  <Peripheral>  (237) 
nan

>  <Num_H_Atoms_ProtBoundConf>  (237) 
nan

>  <Num_Resolved_Atoms>  (237) 
nan

>  <Num_Not_Resolved_Atoms>  (237) 
nan

$$$$
CHEMBL3644021
     RDKit          3D

  0  0  0  0  0  0  0  0  0  0999 V3000
M  V30 BEGIN CTAB
M  V30 COUNTS 45 46 0 0 0
M  V30 BEGIN ATOM
M  V30 1 C -0.941838 -3.437778 2.621610 0
M  V30 2 C 0.552289 -3.510222 2.766116 0 CFG=1
M  V30 3 O 0.940415 -4.848745 2.776072 0
M  V30 4 C 1.254573 -2.763736 1.624545 0 CFG=1
M  V30 5 C 2.746160 -3.027504 1.865555 0
M  V30 6 O 0.944169 -3.307791 0.382393 0
M  V30 7 C 0.484032 -2.630699 -0.723038 0
M  V30 8 N 0.266822 -1.310405 -0.748508 0
M  V30 9 C -0.176062 -0.595408 -1.781086 0
M  V30 10 N -0.403259 0.803176 -1.799049 0
M  V30 11 C -0.213316 1.729129 -0.744916 0
M  V30 12 C 0.237418 1.437089 0.521999 0
M  V30 13 C 0.421439 2.339848 1.546089 0
M  V30 14 C 0.130927 3.664784 1.293254 0
M  V30 15 S 0.348704 4.849113 2.562785 0
M  V30 16 O 1.409198 4.390986 3.521436 0
M  V30 17 O 0.776014 6.182373 2.020006 0
M  V30 18 C -1.161632 5.020113 3.522455 0
M  V30 19 F -0.933982 5.871451 4.560139 0
M  V30 20 F -2.230723 5.332651 2.735715 0
M  V30 21 C -0.325139 4.021361 0.041641 0
M  V30 22 C -0.486243 3.065955 -0.936773 0
M  V30 23 N -0.416540 -1.311957 -2.889759 0
M  V30 24 C -0.226775 -2.624709 -2.946516 0
M  V30 25 C 0.228469 -3.340520 -1.875622 0
M  V30 26 C 0.459785 -4.808748 -1.879357 0
M  V30 27 F 0.165642 -5.395255 -3.091620 0
M  V30 28 F 1.829011 -5.025026 -1.684817 0
M  V30 29 F -0.277198 -5.320243 -0.834296 0
M  V30 30 H -1.375267 -3.271278 3.629093 0
M  V30 31 H -1.253232 -2.629808 1.918633 0
M  V30 32 H -1.358559 -4.418721 2.273640 0
M  V30 33 H 0.870120 -3.091692 3.730325 0
M  V30 34 H 0.848926 -5.250507 3.672794 0
M  V30 35 H 1.115851 -1.685255 1.725064 0
M  V30 36 H 3.317519 -2.896121 0.925562 0
M  V30 37 H 2.820783 -4.122954 2.105839 0
M  V30 38 H 3.128491 -2.434203 2.707581 0
M  V30 39 H -0.757415 1.216218 -2.703440 0
M  V30 40 H 0.478865 0.424563 0.776076 0
M  V30 41 H 0.777999 2.046254 2.517261 0
M  V30 42 H -1.349876 3.991443 3.946155 0
M  V30 43 H -0.553571 5.058413 -0.159504 0
M  V30 44 H -0.851343 3.425658 -1.901927 0
M  V30 45 H -0.432817 -3.184294 -3.869462 0
M  V30 END ATOM
M  V30 BEGIN BOND
M  V30 1 1 1 2
M  V30 2 1 2 3
M  V30 3 1 2 4
M  V30 4 1 4 5
M  V30 5 1 4 6
M  V30 6 1 6 7
M  V30 7 2 7 8
M  V30 8 1 8 9
M  V30 9 1 9 10
M  V30 10 1 10 11
M  V30 11 2 11 12
M  V30 12 1 12 13
M  V30 13 2 13 14
M  V30 14 1 14 15
M  V30 15 2 15 16
M  V30 16 2 15 17
M  V30 17 1 15 18
M  V30 18 1 18 19
M  V30 19 1 18 20
M  V30 20 1 14 21
M  V30 21 2 21 22
M  V30 22 2 9 23
M  V30 23 1 23 24
M  V30 24 2 24 25
M  V30 25 1 25 26
M  V30 26 1 26 27
M  V30 27 1 26 28
M  V30 28 1 26 29
M  V30 29 1 25 7
M  V30 30 1 22 11
M  V30 31 1 1 30
M  V30 32 1 1 31
M  V30 33 1 1 32
M  V30 34 1 2 33 CFG=1
M  V30 35 1 3 34
M  V30 36 1 4 35 CFG=3
M  V30 37 1 5 36
M  V30 38 1 5 37
M  V30 39 1 5 38
M  V30 40 1 10 39
M  V30 41 1 12 40
M  V30 42 1 13 41
M  V30 43 1 18 42
M  V30 44 1 21 43
M  V30 45 1 22 44
M  V30 46 1 24 45
M  V30 END BOND
M  V30 END CTAB
M  END
>  <Dataset>  (238) 
ChEMBL_Kinases

>  <Ligand_Instance>  (238) 
nan

>  <PDB_ID>  (238) 
nan

>  <Standardized_SMILES>  (238) 
C[C@@H](O)[C@@H](C)Oc1nc(Nc2ccc(S(=O)(=O)C(F)F)cc2)ncc1C(F)(F)F

>  <Name>  (238) 
nan

>  <Pocket>  (238) 
nan

>  <ATP_Site>  (238) 
nan

>  <Peripheral>  (238) 
nan

>  <Num_H_Atoms_ProtBoundConf>  (238) 
nan

>  <Num_Resolved_Atoms>  (238) 
nan

>  <Num_Not_Resolved_Atoms>  (238) 
nan

$$$$
CHEMBL3940387
     RDKit          3D

  0  0  0  0  0  0  0  0  0  0999 V3000
M  V30 BEGIN CTAB
M  V30 COUNTS 69 73 0 0 0
M  V30 BEGIN ATOM
M  V30 1 C 1.335164 -1.414249 4.739894 0
M  V30 2 C 1.583294 -2.200121 3.459105 0
M  V30 3 C 1.221978 -3.646039 3.716391 0
M  V30 4 C 2.961228 -2.060787 2.995148 0
M  V30 5 C 3.354038 -1.107630 2.058121 0
M  V30 6 C 2.645691 -0.119900 1.360543 0
M  V30 7 C 3.293293 0.710423 0.469583 0
M  V30 8 C 2.500983 1.719916 -0.223757 0
M  V30 9 C 3.013218 2.613022 -1.140957 0
M  V30 10 C 2.185685 3.533839 -1.748798 0
M  V30 11 N 0.878784 3.614194 -1.494140 0
M  V30 12 C 0.373107 2.728703 -0.585152 0
M  V30 13 N -1.024109 2.742163 -0.247165 0
M  V30 14 C -1.728970 1.881052 0.690198 0 CFG=1
M  V30 15 C -3.184635 2.189831 0.785760 0
M  V30 16 C -4.032235 1.619856 -0.318736 0
M  V30 17 C -3.406353 0.336896 -0.882776 0 CFG=2
M  V30 18 N -4.372722 -0.512323 -1.461242 0
M  V30 19 C -3.984170 -1.583218 -2.289329 0
M  V30 20 C -3.220025 -1.193174 -3.539374 0
M  V30 21 C -2.670307 -2.358718 -4.286909 0
M  V30 22 O -2.602479 -3.559666 -3.675882 0
M  V30 23 C -3.526398 -3.879642 -2.726075 0
M  V30 24 C -3.370772 -2.793347 -1.630626 0
M  V30 25 C -2.736100 -0.295183 0.346926 0
M  V30 26 C -1.394580 0.433803 0.478294 0
M  V30 27 N 1.180627 1.820671 0.016272 0
M  V30 28 C 4.648278 0.576385 0.255593 0
M  V30 29 C 5.387364 -0.383702 0.921455 0
M  V30 30 C 4.707456 -1.195165 1.803929 0
M  V30 31 N 5.122866 -2.191214 2.581010 0
M  V30 32 N 4.105785 -2.699533 3.278845 0
M  V30 33 C 4.221052 -3.792188 4.222676 0
M  V30 34 H 0.338591 -0.956569 4.777771 0
M  V30 35 H 1.380367 -2.080752 5.641992 0
M  V30 36 H 2.162052 -0.679892 4.921486 0
M  V30 37 H 0.863170 -1.776280 2.720618 0
M  V30 38 H 1.908224 -4.360741 3.223453 0
M  V30 39 H 1.062419 -3.850081 4.803497 0
M  V30 40 H 0.214767 -3.892679 3.265528 0
M  V30 41 H 1.600991 -0.027121 1.535080 0
M  V30 42 H 4.057926 2.587443 -1.378789 0
M  V30 43 H 2.595970 4.233231 -2.469961 0
M  V30 44 H -1.626738 3.469354 -0.738022 0
M  V30 45 H -1.292709 2.161237 1.694732 0
M  V30 46 H -3.618986 1.963654 1.780486 0
M  V30 47 H -3.272288 3.309851 0.693857 0
M  V30 48 H -4.250439 2.324619 -1.141215 0
M  V30 49 H -5.003112 1.317660 0.121188 0
M  V30 50 H -2.622372 0.640551 -1.585749 0
M  V30 51 H -5.057476 -0.855163 -0.767016 0
M  V30 52 H -4.971546 -1.997217 -2.707535 0
M  V30 53 H -2.375076 -0.555379 -3.210274 0
M  V30 54 H -3.851294 -0.565994 -4.197373 0
M  V30 55 H -1.635036 -2.114621 -4.673809 0
M  V30 56 H -3.272397 -2.486896 -5.237558 0
M  V30 57 H -3.334206 -4.880658 -2.342372 0
M  V30 58 H -4.533684 -3.762062 -3.193114 0
M  V30 59 H -3.921991 -3.077024 -0.741181 0
M  V30 60 H -2.267809 -2.709334 -1.505172 0
M  V30 61 H -2.660012 -1.367014 0.317661 0
M  V30 62 H -3.305219 0.010738 1.265621 0
M  V30 63 H -0.854742 -0.019225 1.321365 0
M  V30 64 H -0.844080 0.290100 -0.477153 0
M  V30 65 H 5.188400 1.200686 -0.427379 0
M  V30 66 H 6.447022 -0.471804 0.740800 0
M  V30 67 H 3.441791 -3.824696 4.980889 0
M  V30 68 H 5.244680 -3.742975 4.659508 0
M  V30 69 H 4.207644 -4.795681 3.703643 0
M  V30 END ATOM
M  V30 BEGIN BOND
M  V30 1 1 1 2
M  V30 2 1 2 3
M  V30 3 1 2 4
M  V30 4 2 4 5
M  V30 5 1 5 6
M  V30 6 2 6 7
M  V30 7 1 7 8
M  V30 8 2 8 9
M  V30 9 1 9 10
M  V30 10 2 10 11
M  V30 11 1 11 12
M  V30 12 1 12 13
M  V30 13 1 13 14
M  V30 14 1 14 15
M  V30 15 1 15 16
M  V30 16 1 16 17
M  V30 17 1 17 18
M  V30 18 1 18 19
M  V30 19 1 19 20
M  V30 20 1 20 21
M  V30 21 1 21 22
M  V30 22 1 22 23
M  V30 23 1 23 24
M  V30 24 1 17 25
M  V30 25 1 25 26
M  V30 26 2 12 27
M  V30 27 1 7 28
M  V30 28 2 28 29
M  V30 29 1 29 30
M  V30 30 2 30 31
M  V30 31 1 31 32
M  V30 32 1 32 33
M  V30 33 1 32 4
M  V30 34 1 30 5
M  V30 35 1 27 8
M  V30 36 1 26 14
M  V30 37 1 24 19
M  V30 38 1 1 34
M  V30 39 1 1 35
M  V30 40 1 1 36
M  V30 41 1 2 37
M  V30 42 1 3 38
M  V30 43 1 3 39
M  V30 44 1 3 40
M  V30 45 1 6 41
M  V30 46 1 9 42
M  V30 47 1 10 43
M  V30 48 1 13 44
M  V30 49 1 14 45 CFG=1
M  V30 50 1 15 46
M  V30 51 1 15 47
M  V30 52 1 16 48
M  V30 53 1 16 49
M  V30 54 1 17 50 CFG=3
M  V30 55 1 18 51
M  V30 56 1 19 52
M  V30 57 1 20 53
M  V30 58 1 20 54
M  V30 59 1 21 55
M  V30 60 1 21 56
M  V30 61 1 23 57
M  V30 62 1 23 58
M  V30 63 1 24 59
M  V30 64 1 24 60
M  V30 65 1 25 61
M  V30 66 1 25 62
M  V30 67 1 26 63
M  V30 68 1 26 64
M  V30 69 1 28 65
M  V30 70 1 29 66
M  V30 71 1 33 67
M  V30 72 1 33 68
M  V30 73 1 33 69
M  V30 END BOND
M  V30 END CTAB
M  END
>  <Dataset>  (239) 
ChEMBL_Kinases

>  <Ligand_Instance>  (239) 
nan

>  <PDB_ID>  (239) 
nan

>  <Standardized_SMILES>  (239) 
CC(C)c1c2cc(-c3ccnc(N[C@H]4CC[C@H](NC5CCOCC5)CC4)n3)ccc2nn1C

>  <Name>  (239) 
nan

>  <Pocket>  (239) 
nan

>  <ATP_Site>  (239) 
nan

>  <Peripheral>  (239) 
nan

>  <Num_H_Atoms_ProtBoundConf>  (239) 
nan

>  <Num_Resolved_Atoms>  (239) 
nan

>  <Num_Not_Resolved_Atoms>  (239) 
nan

$$$$
CHEMBL3940091
     RDKit          3D

  0  0  0  0  0  0  0  0  0  0999 V3000
M  V30 BEGIN CTAB
M  V30 COUNTS 56 59 0 0 0
M  V30 BEGIN ATOM
M  V30 1 C 2.058584 -4.375270 2.771586 0
M  V30 2 C 2.755717 -3.899925 1.519193 0
M  V30 3 C 4.005307 -3.208855 1.858753 0
M  V30 4 N 1.821225 -3.167939 0.697566 0
M  V30 5 C 1.229292 -1.978985 1.040693 0
M  V30 6 N 1.566340 -1.430253 2.299671 0
M  V30 7 C 1.095404 -0.195412 2.923301 0
M  V30 8 C -0.408449 -0.202430 3.137205 0
M  V30 9 C 1.700633 0.029751 4.292870 0
M  V30 10 C 1.520923 1.031251 2.104163 0
M  V30 11 N 0.359835 -1.340365 0.225767 0
M  V30 12 C 0.015299 -1.825515 -0.975989 0
M  V30 13 C -0.860216 -1.224886 -1.845338 0
M  V30 14 C -1.492260 0.037504 -1.500876 0
M  V30 15 C -1.413578 0.871371 -0.411950 0
M  V30 16 C -2.214346 1.985275 -0.537177 0
M  V30 17 C -2.820953 1.837014 -1.764494 0
M  V30 18 N -2.370766 0.688292 -2.290408 0
M  V30 19 C -3.721838 2.991071 -2.019937 0 CFG=1
M  V30 20 C -5.143021 2.523790 -2.127717 0
M  V30 21 N -3.556349 3.786862 -0.821536 0
M  V30 22 C -2.647391 3.214325 0.110395 0
M  V30 23 O -2.298769 3.656286 1.222968 0
M  V30 24 C -1.141127 -1.816954 -3.056510 0
M  V30 25 C -0.583299 -3.008118 -3.463414 0
M  V30 26 C 0.299296 -3.627607 -2.604171 0
M  V30 27 C 0.566729 -3.017757 -1.396072 0
M  V30 28 C 1.449457 -3.637576 -0.534885 0
M  V30 29 O 1.964022 -4.740737 -0.915942 0
M  V30 30 H 1.015584 -3.965997 2.836419 0
M  V30 31 H 1.925114 -5.482737 2.714765 0
M  V30 32 H 2.607730 -4.148209 3.707121 0
M  V30 33 H 3.008848 -4.827903 0.928003 0
M  V30 34 H 4.253149 -3.230073 2.960491 0
M  V30 35 H 4.856237 -3.757134 1.407542 0
M  V30 36 H 4.105435 -2.178616 1.440084 0
M  V30 37 H 2.241889 -1.923904 2.925501 0
M  V30 38 H -0.692247 -0.361596 4.199133 0
M  V30 39 H -0.906151 -0.986753 2.543922 0
M  V30 40 H -0.778212 0.818669 2.863494 0
M  V30 41 H 1.263616 -0.649468 5.054370 0
M  V30 42 H 2.783147 -0.204872 4.223502 0
M  V30 43 H 1.613576 1.090457 4.551985 0
M  V30 44 H 2.495246 1.424146 2.480442 0
M  V30 45 H 0.795921 1.837688 2.277254 0
M  V30 46 H 1.682472 0.777602 1.040463 0
M  V30 47 H -0.796219 0.679970 0.443591 0
M  V30 48 H -2.691283 0.355416 -3.229342 0
M  V30 49 H -3.395579 3.566512 -2.921193 0
M  V30 50 H -5.663958 3.004084 -2.966025 0
M  V30 51 H -5.735580 2.719774 -1.209835 0
M  V30 52 H -5.138105 1.427358 -2.266238 0
M  V30 53 H -4.088226 4.681637 -0.727052 0
M  V30 54 H -1.825672 -1.393280 -3.790535 0
M  V30 55 H -0.807270 -3.468002 -4.414617 0
M  V30 56 H 0.758341 -4.564840 -2.888116 0
M  V30 END ATOM
M  V30 BEGIN BOND
M  V30 1 1 1 2
M  V30 2 1 2 3
M  V30 3 1 2 4
M  V30 4 1 4 5
M  V30 5 1 5 6
M  V30 6 1 6 7
M  V30 7 1 7 8
M  V30 8 1 7 9
M  V30 9 1 7 10
M  V30 10 2 5 11
M  V30 11 1 11 12
M  V30 12 2 12 13
M  V30 13 1 13 14
M  V30 14 2 14 15
M  V30 15 1 15 16
M  V30 16 2 16 17
M  V30 17 1 17 18
M  V30 18 1 17 19
M  V30 19 1 19 20
M  V30 20 1 19 21
M  V30 21 1 21 22
M  V30 22 2 22 23
M  V30 23 1 13 24
M  V30 24 2 24 25
M  V30 25 1 25 26
M  V30 26 2 26 27
M  V30 27 1 27 28
M  V30 28 2 28 29
M  V30 29 1 28 4
M  V30 30 1 27 12
M  V30 31 1 18 14
M  V30 32 1 22 16
M  V30 33 1 1 30
M  V30 34 1 1 31
M  V30 35 1 1 32
M  V30 36 1 2 33
M  V30 37 1 3 34
M  V30 38 1 3 35
M  V30 39 1 3 36
M  V30 40 1 6 37
M  V30 41 1 8 38
M  V30 42 1 8 39
M  V30 43 1 8 40
M  V30 44 1 9 41
M  V30 45 1 9 42
M  V30 46 1 9 43
M  V30 47 1 10 44
M  V30 48 1 10 45
M  V30 49 1 10 46
M  V30 50 1 15 47
M  V30 51 1 18 48
M  V30 52 1 19 49 CFG=3
M  V30 53 1 20 50
M  V30 54 1 20 51
M  V30 55 1 20 52
M  V30 56 1 21 53
M  V30 57 1 24 54
M  V30 58 1 25 55
M  V30 59 1 26 56
M  V30 END BOND
M  V30 END CTAB
M  END
>  <Dataset>  (240) 
ChEMBL_Kinases

>  <Ligand_Instance>  (240) 
nan

>  <PDB_ID>  (240) 
nan

>  <Standardized_SMILES>  (240) 
CC(C)n1c(NC(C)(C)C)nc2c(-c3cc4c([nH]3)[C@@H](C)NC4=O)cccc2c1=O

>  <Name>  (240) 
nan

>  <Pocket>  (240) 
nan

>  <ATP_Site>  (240) 
nan

>  <Peripheral>  (240) 
nan

>  <Num_H_Atoms_ProtBoundConf>  (240) 
nan

>  <Num_Resolved_Atoms>  (240) 
nan

>  <Num_Not_Resolved_Atoms>  (240) 
nan

$$$$
CHEMBL3644023
     RDKit          3D

  0  0  0  0  0  0  0  0  0  0999 V3000
M  V30 BEGIN CTAB
M  V30 COUNTS 52 53 0 0 0
M  V30 BEGIN ATOM
M  V30 1 C -2.151874 -6.667412 -0.551519 0
M  V30 2 C -1.593998 -7.250656 0.497121 0
M  V30 3 C -1.647689 -6.925634 1.919537 0
M  V30 4 S -2.610110 -5.515939 2.342695 0
M  V30 5 O -4.066561 -5.712626 2.062669 0
M  V30 6 O -2.494608 -5.358207 3.851517 0
M  V30 7 C -2.078233 -4.040291 1.615567 0
M  V30 8 C -2.571520 -3.534008 0.428325 0
M  V30 9 C -2.056642 -2.346234 -0.045699 0
M  V30 10 C -1.075536 -1.602627 0.567945 0
M  V30 11 N -0.545805 -0.378103 0.087241 0
M  V30 12 C -0.920754 0.364059 -1.062490 0
M  V30 13 N -1.896717 0.005553 -1.908727 0
M  V30 14 C -2.285378 0.662871 -2.993311 0
M  V30 15 C -1.641756 1.838009 -3.312240 0
M  V30 16 C -1.959164 2.679504 -4.480985 0
M  V30 17 F -2.333575 3.933473 -3.987629 0
M  V30 18 F -0.886404 2.871677 -5.315042 0
M  V30 19 F -3.079261 2.181750 -5.126492 0
M  V30 20 C -0.642360 2.194134 -2.435702 0
M  V30 21 O 0.090294 3.367655 -2.646674 0
M  V30 22 C 1.123642 3.767404 -1.775820 0 CFG=2
M  V30 23 C 0.704609 5.038260 -1.105140 0
M  V30 24 C 2.453295 3.871124 -2.466948 0
M  V30 25 C 3.574930 4.222808 -1.549747 0
M  V30 26 C 2.804840 2.554438 -3.146515 0
M  V30 27 O 2.421429 4.816122 -3.504260 0
M  V30 28 N -0.293732 1.487716 -1.353738 0
M  V30 29 C -0.609713 -2.138449 1.746878 0
M  V30 30 C -1.093215 -3.321810 2.259986 0
M  V30 31 H -2.673068 -6.074527 -1.259124 0
M  V30 32 H -2.003035 -7.047714 -1.551354 0
M  V30 33 H -0.981727 -8.126078 0.317630 0
M  V30 34 H -0.611130 -6.852192 2.325559 0
M  V30 35 H -2.091943 -7.797572 2.447684 0
M  V30 36 H -3.345569 -4.080749 -0.091626 0
M  V30 37 H -2.483160 -2.021798 -0.961590 0
M  V30 38 H 0.236231 0.033416 0.671323 0
M  V30 39 H -3.085356 0.319814 -3.639297 0
M  V30 40 H 1.211196 3.000535 -0.980892 0
M  V30 41 H 1.556106 5.453825 -0.533395 0
M  V30 42 H -0.061652 4.765946 -0.341200 0
M  V30 43 H 0.215736 5.765820 -1.760338 0
M  V30 44 H 3.549042 3.675260 -0.585882 0
M  V30 45 H 4.573578 3.981599 -1.980999 0
M  V30 46 H 3.603615 5.297268 -1.274247 0
M  V30 47 H 3.361144 1.949203 -2.407403 0
M  V30 48 H 1.916975 2.048812 -3.573896 0
M  V30 49 H 3.487328 2.774098 -4.012244 0
M  V30 50 H 3.370950 5.057576 -3.736085 0
M  V30 51 H 0.173660 -1.628824 2.321239 0
M  V30 52 H -0.679669 -3.690593 3.201225 0
M  V30 END ATOM
M  V30 BEGIN BOND
M  V30 1 2 1 2
M  V30 2 1 2 3
M  V30 3 1 3 4
M  V30 4 2 4 5
M  V30 5 2 4 6
M  V30 6 1 4 7
M  V30 7 2 7 8
M  V30 8 1 8 9
M  V30 9 2 9 10
M  V30 10 1 10 11
M  V30 11 1 11 12
M  V30 12 2 12 13
M  V30 13 1 13 14
M  V30 14 2 14 15
M  V30 15 1 15 16
M  V30 16 1 16 17
M  V30 17 1 16 18
M  V30 18 1 16 19
M  V30 19 1 15 20
M  V30 20 1 20 21
M  V30 21 1 21 22
M  V30 22 1 22 23
M  V30 23 1 22 24
M  V30 24 1 24 25
M  V30 25 1 24 26
M  V30 26 1 24 27
M  V30 27 2 20 28
M  V30 28 1 10 29
M  V30 29 2 29 30
M  V30 30 1 30 7
M  V30 31 1 28 12
M  V30 32 1 1 31
M  V30 33 1 1 32
M  V30 34 1 2 33
M  V30 35 1 3 34
M  V30 36 1 3 35
M  V30 37 1 8 36
M  V30 38 1 9 37
M  V30 39 1 11 38
M  V30 40 1 14 39
M  V30 41 1 22 40 CFG=1
M  V30 42 1 23 41
M  V30 43 1 23 42
M  V30 44 1 23 43
M  V30 45 1 25 44
M  V30 46 1 25 45
M  V30 47 1 25 46
M  V30 48 1 26 47
M  V30 49 1 26 48
M  V30 50 1 26 49
M  V30 51 1 27 50
M  V30 52 1 29 51
M  V30 53 1 30 52
M  V30 END BOND
M  V30 END CTAB
M  END
>  <Dataset>  (241) 
ChEMBL_Kinases

>  <Ligand_Instance>  (241) 
nan

>  <PDB_ID>  (241) 
nan

>  <Standardized_SMILES>  (241) 
C=CCS(=O)(=O)c1ccc(Nc2ncc(C(F)(F)F)c(O[C@H](C)C(C)(C)O)n2)cc1

>  <Name>  (241) 
nan

>  <Pocket>  (241) 
nan

>  <ATP_Site>  (241) 
nan

>  <Peripheral>  (241) 
nan

>  <Num_H_Atoms_ProtBoundConf>  (241) 
nan

>  <Num_Resolved_Atoms>  (241) 
nan

>  <Num_Not_Resolved_Atoms>  (241) 
nan

$$$$
CHEMBL3644024
     RDKit          3D

  0  0  0  0  0  0  0  0  0  0999 V3000
M  V30 BEGIN CTAB
M  V30 COUNTS 51 52 0 0 0
M  V30 BEGIN ATOM
M  V30 1 C 1.835492 -5.113173 3.309400 0
M  V30 2 C 3.263297 -5.253079 2.798939 0
M  V30 3 C 4.199011 -5.626905 3.913987 0
M  V30 4 S 3.783580 -3.640478 2.205475 0
M  V30 5 O 3.746091 -2.709343 3.375576 0
M  V30 6 O 5.214847 -3.773165 1.716855 0
M  V30 7 C 2.766108 -3.077797 0.926712 0
M  V30 8 C 1.641185 -2.382650 1.339694 0
M  V30 9 C 0.752703 -1.876179 0.418342 0
M  V30 10 C 0.936457 -2.033914 -0.952566 0
M  V30 11 N -0.005860 -1.490992 -1.869824 0
M  V30 12 C -1.176487 -0.881602 -1.347250 0
M  V30 13 N -2.259671 -1.675696 -1.328982 0
M  V30 14 C -3.416747 -1.187739 -0.848618 0
M  V30 15 C -3.433248 0.113148 -0.394898 0
M  V30 16 C -4.734992 0.641662 0.136165 0
M  V30 17 F -4.565278 1.008963 1.452810 0
M  V30 18 F -5.753646 -0.245734 -0.045300 0
M  V30 19 F -5.070601 1.819687 -0.543449 0
M  V30 20 C -2.325078 0.927447 -0.411929 0
M  V30 21 O -2.480062 2.212902 0.076391 0
M  V30 22 C -1.447247 3.148440 0.128961 0 CFG=2
M  V30 23 C -1.279036 3.516834 1.602456 0
M  V30 24 C -1.826985 4.423360 -0.594341 0 CFG=1
M  V30 25 C -0.724280 5.447541 -0.533430 0
M  V30 26 O -2.096002 4.128358 -1.923589 0
M  V30 27 N -1.187650 0.391179 -0.904253 0
M  V30 28 C 2.061408 -2.728302 -1.333354 0
M  V30 29 C 2.965624 -3.244972 -0.426154 0
M  V30 30 H 1.539567 -6.021333 3.845098 0
M  V30 31 H 1.168669 -4.921331 2.436451 0
M  V30 32 H 1.737426 -4.194166 3.952891 0
M  V30 33 H 3.281263 -6.020360 2.020574 0
M  V30 34 H 3.988560 -4.961624 4.761781 0
M  V30 35 H 4.139094 -6.708963 4.173510 0
M  V30 36 H 5.241949 -5.458186 3.544866 0
M  V30 37 H 1.386158 -2.190978 2.387438 0
M  V30 38 H -0.123518 -1.335511 0.729089 0
M  V30 39 H 0.239405 -1.584234 -2.875316 0
M  V30 40 H -4.292725 -1.801880 -0.824549 0
M  V30 41 H -0.528491 2.749838 -0.298815 0
M  V30 42 H -1.326418 2.600208 2.212967 0
M  V30 43 H -2.163022 4.156503 1.862816 0
M  V30 44 H -0.340152 4.068569 1.743505 0
M  V30 45 H -2.761657 4.849970 -0.143496 0
M  V30 46 H 0.169273 5.089680 0.033597 0
M  V30 47 H -1.111350 6.366057 -0.030746 0
M  V30 48 H -0.404108 5.732880 -1.545211 0
M  V30 49 H -3.061075 4.279378 -2.142616 0
M  V30 50 H 2.241407 -2.872591 -2.379592 0
M  V30 51 H 3.844516 -3.786437 -0.683411 0
M  V30 END ATOM
M  V30 BEGIN BOND
M  V30 1 1 1 2
M  V30 2 1 2 3
M  V30 3 1 2 4
M  V30 4 2 4 5
M  V30 5 2 4 6
M  V30 6 1 4 7
M  V30 7 2 7 8
M  V30 8 1 8 9
M  V30 9 2 9 10
M  V30 10 1 10 11
M  V30 11 1 11 12
M  V30 12 2 12 13
M  V30 13 1 13 14
M  V30 14 2 14 15
M  V30 15 1 15 16
M  V30 16 1 16 17
M  V30 17 1 16 18
M  V30 18 1 16 19
M  V30 19 1 15 20
M  V30 20 1 20 21
M  V30 21 1 21 22
M  V30 22 1 22 23
M  V30 23 1 22 24
M  V30 24 1 24 25
M  V30 25 1 24 26
M  V30 26 2 20 27
M  V30 27 1 10 28
M  V30 28 2 28 29
M  V30 29 1 29 7
M  V30 30 1 27 12
M  V30 31 1 1 30
M  V30 32 1 1 31
M  V30 33 1 1 32
M  V30 34 1 2 33
M  V30 35 1 3 34
M  V30 36 1 3 35
M  V30 37 1 3 36
M  V30 38 1 8 37
M  V30 39 1 9 38
M  V30 40 1 11 39
M  V30 41 1 14 40
M  V30 42 1 22 41 CFG=3
M  V30 43 1 23 42
M  V30 44 1 23 43
M  V30 45 1 23 44
M  V30 46 1 24 45 CFG=1
M  V30 47 1 25 46
M  V30 48 1 25 47
M  V30 49 1 25 48
M  V30 50 1 26 49
M  V30 51 1 28 50
M  V30 52 1 29 51
M  V30 END BOND
M  V30 END CTAB
M  END
>  <Dataset>  (242) 
ChEMBL_Kinases

>  <Ligand_Instance>  (242) 
nan

>  <PDB_ID>  (242) 
nan

>  <Standardized_SMILES>  (242) 
CC(C)S(=O)(=O)c1ccc(Nc2ncc(C(F)(F)F)c(O[C@H](C)[C@@H](C)O)n2)cc1

>  <Name>  (242) 
nan

>  <Pocket>  (242) 
nan

>  <ATP_Site>  (242) 
nan

>  <Peripheral>  (242) 
nan

>  <Num_H_Atoms_ProtBoundConf>  (242) 
nan

>  <Num_Resolved_Atoms>  (242) 
nan

>  <Num_Not_Resolved_Atoms>  (242) 
nan

$$$$
CHEMBL3644025
     RDKit          3D

  0  0  0  0  0  0  0  0  0  0999 V3000
M  V30 BEGIN CTAB
M  V30 COUNTS 50 51 0 0 0
M  V30 BEGIN ATOM
M  V30 1 C 5.366723 -6.085712 -2.918458 0
M  V30 2 C 4.498746 -5.258045 -2.786970 0
M  V30 3 C 3.456957 -4.247307 -2.610779 0
M  V30 4 S 4.112317 -2.591504 -2.789567 0
M  V30 5 O 5.231942 -2.427700 -1.814260 0
M  V30 6 O 4.621847 -2.480940 -4.202846 0
M  V30 7 C 2.886585 -1.376026 -2.579743 0
M  V30 8 C 2.714259 -0.951159 -1.257820 0
M  V30 9 C 1.751016 0.028421 -0.991493 0
M  V30 10 C 0.953698 0.603089 -1.975210 0
M  V30 11 N -0.011132 1.602245 -1.633947 0
M  V30 12 C -0.081658 1.895419 -0.235915 0
M  V30 13 N 0.764363 2.813152 0.270069 0
M  V30 14 C 0.754464 3.140835 1.576572 0
M  V30 15 C -0.161291 2.508335 2.427940 0
M  V30 16 C -0.192889 2.849873 3.867813 0
M  V30 17 F -1.413520 3.349086 4.260342 0
M  V30 18 F 0.740025 3.839431 4.112760 0
M  V30 19 F 0.203290 1.739206 4.579512 0
M  V30 20 C -1.039256 1.555190 1.899489 0
M  V30 21 O -1.899268 0.985027 2.789059 0
M  V30 22 C -2.885682 0.035413 2.628206 0 CFG=2
M  V30 23 C -4.266122 0.483441 2.991218 0
M  V30 24 C -2.615960 -1.276406 3.344489 0
M  V30 25 C -1.352283 -1.946476 2.887221 0
M  V30 26 C -3.766817 -2.243505 3.155648 0
M  V30 27 O -2.498228 -1.037761 4.714423 0
M  V30 28 N -0.961842 1.283066 0.565321 0
M  V30 29 C 1.153877 0.153949 -3.283481 0
M  V30 30 C 2.098309 -0.809046 -3.557748 0
M  V30 31 H 6.141722 -6.807239 -3.044574 0
M  V30 32 H 2.676260 -4.419589 -3.392702 0
M  V30 33 H 2.929472 -4.323741 -1.640295 0
M  V30 34 H 3.301561 -1.354156 -0.425641 0
M  V30 35 H 1.659336 0.323290 0.064520 0
M  V30 36 H -0.558650 2.008763 -2.434183 0
M  V30 37 H 1.450500 3.883541 1.945827 0
M  V30 38 H -2.891578 -0.228423 1.550972 0
M  V30 39 H -4.694043 -0.025091 3.878829 0
M  V30 40 H -4.946193 0.253916 2.150174 0
M  V30 41 H -4.335416 1.600197 3.107590 0
M  V30 42 H -0.476081 -1.739349 3.559362 0
M  V30 43 H -1.135173 -1.757080 1.818746 0
M  V30 44 H -1.507159 -3.052149 2.956800 0
M  V30 45 H -4.372216 -2.288878 4.077570 0
M  V30 46 H -3.384614 -3.234653 2.849581 0
M  V30 47 H -4.390843 -1.826633 2.314930 0
M  V30 48 H -1.571122 -1.177577 5.014020 0
M  V30 49 H 0.555610 0.574312 -4.074907 0
M  V30 50 H 2.287680 -1.184491 -4.539200 0
M  V30 END ATOM
M  V30 BEGIN BOND
M  V30 1 3 1 2
M  V30 2 1 2 3
M  V30 3 1 3 4
M  V30 4 2 4 5
M  V30 5 2 4 6
M  V30 6 1 4 7
M  V30 7 2 7 8
M  V30 8 1 8 9
M  V30 9 2 9 10
M  V30 10 1 10 11
M  V30 11 1 11 12
M  V30 12 2 12 13
M  V30 13 1 13 14
M  V30 14 2 14 15
M  V30 15 1 15 16
M  V30 16 1 16 17
M  V30 17 1 16 18
M  V30 18 1 16 19
M  V30 19 1 15 20
M  V30 20 1 20 21
M  V30 21 1 21 22
M  V30 22 1 22 23
M  V30 23 1 22 24
M  V30 24 1 24 25
M  V30 25 1 24 26
M  V30 26 1 24 27
M  V30 27 2 20 28
M  V30 28 1 10 29
M  V30 29 2 29 30
M  V30 30 1 30 7
M  V30 31 1 28 12
M  V30 32 1 1 31
M  V30 33 1 3 32
M  V30 34 1 3 33
M  V30 35 1 8 34
M  V30 36 1 9 35
M  V30 37 1 11 36
M  V30 38 1 14 37
M  V30 39 1 22 38 CFG=3
M  V30 40 1 23 39
M  V30 41 1 23 40
M  V30 42 1 23 41
M  V30 43 1 25 42
M  V30 44 1 25 43
M  V30 45 1 25 44
M  V30 46 1 26 45
M  V30 47 1 26 46
M  V30 48 1 26 47
M  V30 49 1 27 48
M  V30 50 1 29 49
M  V30 51 1 30 50
M  V30 END BOND
M  V30 END CTAB
M  END
>  <Dataset>  (243) 
ChEMBL_Kinases

>  <Ligand_Instance>  (243) 
nan

>  <PDB_ID>  (243) 
nan

>  <Standardized_SMILES>  (243) 
C#CCS(=O)(=O)c1ccc(Nc2ncc(C(F)(F)F)c(O[C@H](C)C(C)(C)O)n2)cc1

>  <Name>  (243) 
nan

>  <Pocket>  (243) 
nan

>  <ATP_Site>  (243) 
nan

>  <Peripheral>  (243) 
nan

>  <Num_H_Atoms_ProtBoundConf>  (243) 
nan

>  <Num_Resolved_Atoms>  (243) 
nan

>  <Num_Not_Resolved_Atoms>  (243) 
nan

$$$$
CHEMBL3644026
     RDKit          3D

  0  0  0  0  0  0  0  0  0  0999 V3000
M  V30 BEGIN CTAB
M  V30 COUNTS 49 50 0 0 0
M  V30 BEGIN ATOM
M  V30 1 C 0.188912 -4.007417 2.486245 0
M  V30 2 C 1.483670 -3.496154 3.031183 0 CFG=1
M  V30 3 O 2.390723 -4.528191 3.278276 0
M  V30 4 C 2.158811 -2.487167 2.115668 0 CFG=1
M  V30 5 C 3.381643 -2.007318 2.909143 0
M  V30 6 O 2.546427 -3.034710 0.899632 0
M  V30 7 C 2.204465 -2.612166 -0.363097 0
M  V30 8 N 1.421859 -1.576699 -0.611459 0
M  V30 9 C 1.049831 -1.112488 -1.810815 0
M  V30 10 N 0.209411 -0.000302 -2.068828 0
M  V30 11 C -0.414982 0.855448 -1.128496 0
M  V30 12 C -0.318630 0.763147 0.241545 0
M  V30 13 C -0.924190 1.593240 1.160766 0
M  V30 14 C -1.705342 2.620064 0.670294 0
M  V30 15 S -2.496826 3.703013 1.796534 0
M  V30 16 O -1.705173 3.730084 3.069193 0
M  V30 17 O -2.663874 5.075756 1.216639 0
M  V30 18 C -4.124083 3.066882 2.216793 0
M  V30 19 C -4.965506 2.949852 0.979490 0
M  V30 20 O -6.229852 2.450322 1.342155 0
M  V30 21 C -1.841721 2.765750 -0.695572 0
M  V30 22 C -1.207162 1.898526 -1.558874 0
M  V30 23 N 1.555021 -1.811591 -2.834509 0
M  V30 24 C 2.345930 -2.860630 -2.683307 0
M  V30 25 C 2.704389 -3.305720 -1.443260 0
M  V30 26 C 3.587769 -4.475905 -1.216205 0
M  V30 27 F 3.968157 -5.013859 -2.433344 0
M  V30 28 F 4.668226 -4.078653 -0.453667 0
M  V30 29 F 2.864411 -5.405990 -0.476080 0
M  V30 30 H -0.493613 -4.191079 3.355963 0
M  V30 31 H 0.318442 -5.008830 1.987481 0
M  V30 32 H -0.280581 -3.279179 1.793510 0
M  V30 33 H 1.291807 -2.965190 3.988109 0
M  V30 34 H 3.113663 -4.517527 2.588643 0
M  V30 35 H 1.508308 -1.625099 1.965456 0
M  V30 36 H 4.184670 -1.695933 2.215981 0
M  V30 37 H 3.747613 -2.825837 3.563084 0
M  V30 38 H 3.035885 -1.166131 3.559129 0
M  V30 39 H 0.021350 0.223696 -3.082419 0
M  V30 40 H 0.277898 -0.019418 0.675649 0
M  V30 41 H -0.800897 1.457068 2.225494 0
M  V30 42 H -3.996124 2.025712 2.627032 0
M  V30 43 H -4.589903 3.736857 2.934608 0
M  V30 44 H -4.516879 2.333202 0.200562 0
M  V30 45 H -5.145058 3.955777 0.550106 0
M  V30 46 H -6.129978 1.544862 1.730100 0
M  V30 47 H -2.453228 3.569148 -1.095865 0
M  V30 48 H -1.360986 2.075229 -2.627403 0
M  V30 49 H 2.728196 -3.391902 -3.545661 0
M  V30 END ATOM
M  V30 BEGIN BOND
M  V30 1 1 1 2
M  V30 2 1 2 3
M  V30 3 1 2 4
M  V30 4 1 4 5
M  V30 5 1 4 6
M  V30 6 1 6 7
M  V30 7 2 7 8
M  V30 8 1 8 9
M  V30 9 1 9 10
M  V30 10 1 10 11
M  V30 11 2 11 12
M  V30 12 1 12 13
M  V30 13 2 13 14
M  V30 14 1 14 15
M  V30 15 2 15 16
M  V30 16 2 15 17
M  V30 17 1 15 18
M  V30 18 1 18 19
M  V30 19 1 19 20
M  V30 20 1 14 21
M  V30 21 2 21 22
M  V30 22 2 9 23
M  V30 23 1 23 24
M  V30 24 2 24 25
M  V30 25 1 25 26
M  V30 26 1 26 27
M  V30 27 1 26 28
M  V30 28 1 26 29
M  V30 29 1 25 7
M  V30 30 1 22 11
M  V30 31 1 1 30
M  V30 32 1 1 31
M  V30 33 1 1 32
M  V30 34 1 2 33 CFG=1
M  V30 35 1 3 34
M  V30 36 1 4 35 CFG=3
M  V30 37 1 5 36
M  V30 38 1 5 37
M  V30 39 1 5 38
M  V30 40 1 10 39
M  V30 41 1 12 40
M  V30 42 1 13 41
M  V30 43 1 18 42
M  V30 44 1 18 43
M  V30 45 1 19 44
M  V30 46 1 19 45
M  V30 47 1 20 46
M  V30 48 1 21 47
M  V30 49 1 22 48
M  V30 50 1 24 49
M  V30 END BOND
M  V30 END CTAB
M  END
>  <Dataset>  (244) 
ChEMBL_Kinases

>  <Ligand_Instance>  (244) 
nan

>  <PDB_ID>  (244) 
nan

>  <Standardized_SMILES>  (244) 
C[C@@H](O)[C@@H](C)Oc1nc(Nc2ccc(S(=O)(=O)CCO)cc2)ncc1C(F)(F)F

>  <Name>  (244) 
nan

>  <Pocket>  (244) 
nan

>  <ATP_Site>  (244) 
nan

>  <Peripheral>  (244) 
nan

>  <Num_H_Atoms_ProtBoundConf>  (244) 
nan

>  <Num_Resolved_Atoms>  (244) 
nan

>  <Num_Not_Resolved_Atoms>  (244) 
nan

$$$$
CHEMBL3644027
     RDKit          3D

  0  0  0  0  0  0  0  0  0  0999 V3000
M  V30 BEGIN CTAB
M  V30 COUNTS 45 46 0 0 0
M  V30 BEGIN ATOM
M  V30 1 C -0.770831 -3.921031 5.337558 0
M  V30 2 O -1.782671 -3.803382 4.465228 0
M  V30 3 C -1.641304 -3.919983 3.136028 0
M  V30 4 C -0.735722 -2.975843 2.405591 0 CFG=1
M  V30 5 C 0.710974 -3.290445 2.786674 0
M  V30 6 O -0.893169 -3.311493 1.008176 0
M  V30 7 C -1.118501 -2.369121 0.052314 0
M  V30 8 N -1.217161 -1.045806 0.433675 0
M  V30 9 C -1.441130 -0.135847 -0.577035 0
M  V30 10 N -1.595741 1.272518 -0.445376 0
M  V30 11 C -0.386198 2.022683 -0.250842 0
M  V30 12 C -0.384495 3.395601 -0.242842 0
M  V30 13 C 0.709733 4.198967 -0.045310 0
M  V30 14 C 1.917316 3.576281 0.164393 0
M  V30 15 S 3.492265 4.299025 0.426706 0
M  V30 16 C 4.432647 4.236849 -1.080949 0
M  V30 17 O 3.341957 5.730498 0.898320 0
M  V30 18 O 4.236566 3.549956 1.492157 0
M  V30 19 C 1.995430 2.174972 0.169846 0
M  V30 20 C 0.837480 1.441626 -0.038882 0
M  V30 21 N -1.559330 -0.491614 -1.849953 0
M  V30 22 C -1.464797 -1.798645 -2.243448 0
M  V30 23 C -1.237877 -2.780462 -1.276228 0
M  V30 24 C -1.119251 -4.238349 -1.558422 0
M  V30 25 F -2.114239 -4.917898 -0.862485 0
M  V30 26 F -1.328037 -4.448779 -2.898547 0
M  V30 27 F 0.129811 -4.734745 -1.183311 0
M  V30 28 H 0.067430 -3.213619 5.288898 0
M  V30 29 H -1.181549 -3.781349 6.396030 0
M  V30 30 H -0.325000 -4.955838 5.292832 0
M  V30 31 H -1.433379 -4.989834 2.811812 0
M  V30 32 H -2.665674 -3.744800 2.674145 0
M  V30 33 H -0.919778 -1.908243 2.584056 0
M  V30 34 H 1.348495 -3.281066 1.853392 0
M  V30 35 H 1.093563 -2.440393 3.369284 0
M  V30 36 H 0.800420 -4.228073 3.319105 0
M  V30 37 H -2.490134 1.815407 -0.477128 0
M  V30 38 H -1.309183 3.964622 -0.401216 0
M  V30 39 H 0.767177 5.261133 -0.029204 0
M  V30 40 H 4.869342 5.239921 -1.255298 0
M  V30 41 H 5.227753 3.452218 -1.005511 0
M  V30 42 H 3.778427 3.932147 -1.943037 0
M  V30 43 H 2.882991 1.580072 0.321945 0
M  V30 44 H 0.856447 0.356669 -0.042350 0
M  V30 45 H -1.552242 -2.147511 -3.260650 0
M  V30 END ATOM
M  V30 BEGIN BOND
M  V30 1 1 1 2
M  V30 2 1 2 3
M  V30 3 1 3 4
M  V30 4 1 4 5
M  V30 5 1 4 6
M  V30 6 1 6 7
M  V30 7 2 7 8
M  V30 8 1 8 9
M  V30 9 1 9 10
M  V30 10 1 10 11
M  V30 11 2 11 12
M  V30 12 1 12 13
M  V30 13 2 13 14
M  V30 14 1 14 15
M  V30 15 1 15 16
M  V30 16 2 15 17
M  V30 17 2 15 18
M  V30 18 1 14 19
M  V30 19 2 19 20
M  V30 20 2 9 21
M  V30 21 1 21 22
M  V30 22 2 22 23
M  V30 23 1 23 24
M  V30 24 1 24 25
M  V30 25 1 24 26
M  V30 26 1 24 27
M  V30 27 1 23 7
M  V30 28 1 20 11
M  V30 29 1 1 28
M  V30 30 1 1 29
M  V30 31 1 1 30
M  V30 32 1 3 31
M  V30 33 1 3 32
M  V30 34 1 4 33 CFG=3
M  V30 35 1 5 34
M  V30 36 1 5 35
M  V30 37 1 5 36
M  V30 38 1 10 37
M  V30 39 1 12 38
M  V30 40 1 13 39
M  V30 41 1 16 40
M  V30 42 1 16 41
M  V30 43 1 16 42
M  V30 44 1 19 43
M  V30 45 1 20 44
M  V30 46 1 22 45
M  V30 END BOND
M  V30 END CTAB
M  END
>  <Dataset>  (245) 
ChEMBL_Kinases

>  <Ligand_Instance>  (245) 
nan

>  <PDB_ID>  (245) 
nan

>  <Standardized_SMILES>  (245) 
COC[C@@H](C)Oc1nc(Nc2ccc(S(C)(=O)=O)cc2)ncc1C(F)(F)F

>  <Name>  (245) 
nan

>  <Pocket>  (245) 
nan

>  <ATP_Site>  (245) 
nan

>  <Peripheral>  (245) 
nan

>  <Num_H_Atoms_ProtBoundConf>  (245) 
nan

>  <Num_Resolved_Atoms>  (245) 
nan

>  <Num_Not_Resolved_Atoms>  (245) 
nan

$$$$
CHEMBL3644028
     RDKit          3D

  0  0  0  0  0  0  0  0  0  0999 V3000
M  V30 BEGIN CTAB
M  V30 COUNTS 37 38 0 0 0
M  V30 BEGIN ATOM
M  V30 1 C -0.515805 -5.590006 0.063496 0
M  V30 2 C 0.205651 -5.604785 1.051568 0
M  V30 3 C 1.085550 -5.608249 2.234639 0
M  V30 4 O 0.550841 -4.769239 3.238843 0
M  V30 5 C 0.375053 -3.429094 2.926785 0
M  V30 6 N 0.692280 -2.925708 1.726983 0
M  V30 7 C 0.530606 -1.632672 1.403521 0
M  V30 8 N 0.898312 -1.199577 0.103590 0
M  V30 9 C 0.817649 0.101551 -0.453101 0
M  V30 10 C 1.222256 0.354290 -1.747782 0
M  V30 11 C 1.158856 1.603128 -2.321556 0
M  V30 12 C 0.677541 2.684956 -1.614765 0
M  V30 13 S 0.607511 4.250794 -2.360815 0
M  V30 14 C -0.931429 4.537465 -3.186655 0
M  V30 15 O 0.759934 5.311088 -1.295324 0
M  V30 16 O 1.741784 4.341821 -3.345257 0
M  V30 17 C 0.259121 2.488445 -0.314977 0
M  V30 18 C 0.346675 1.215682 0.205024 0
M  V30 19 N 0.022806 -0.864493 2.374430 0
M  V30 20 C -0.325531 -1.267839 3.601738 0
M  V30 21 C -0.145196 -2.599835 3.896014 0
M  V30 22 C -0.493995 -3.154818 5.216111 0
M  V30 23 F -0.991063 -2.134813 6.004739 0
M  V30 24 F -1.508082 -4.091198 5.125448 0
M  V30 25 F 0.609799 -3.672468 5.860818 0
M  V30 26 H -1.127851 -5.579455 -0.800354 0
M  V30 27 H 2.046724 -5.120796 1.897183 0
M  V30 28 H 1.267766 -6.634380 2.574772 0
M  V30 29 H 1.287311 -1.934608 -0.552138 0
M  V30 30 H 1.618146 -0.460307 -2.374470 0
M  V30 31 H 1.492529 1.733999 -3.342464 0
M  V30 32 H -0.824514 5.297704 -3.988826 0
M  V30 33 H -1.709609 4.898613 -2.468142 0
M  V30 34 H -1.264673 3.620887 -3.680177 0
M  V30 35 H -0.112892 3.328901 0.228729 0
M  V30 36 H 0.003818 1.144592 1.215807 0
M  V30 37 H -0.730234 -0.596000 4.339535 0
M  V30 END ATOM
M  V30 BEGIN BOND
M  V30 1 3 1 2
M  V30 2 1 2 3
M  V30 3 1 3 4
M  V30 4 1 4 5
M  V30 5 2 5 6
M  V30 6 1 6 7
M  V30 7 1 7 8
M  V30 8 1 8 9
M  V30 9 2 9 10
M  V30 10 1 10 11
M  V30 11 2 11 12
M  V30 12 1 12 13
M  V30 13 1 13 14
M  V30 14 2 13 15
M  V30 15 2 13 16
M  V30 16 1 12 17
M  V30 17 2 17 18
M  V30 18 2 7 19
M  V30 19 1 19 20
M  V30 20 2 20 21
M  V30 21 1 21 22
M  V30 22 1 22 23
M  V30 23 1 22 24
M  V30 24 1 22 25
M  V30 25 1 21 5
M  V30 26 1 18 9
M  V30 27 1 1 26
M  V30 28 1 3 27
M  V30 29 1 3 28
M  V30 30 1 8 29
M  V30 31 1 10 30
M  V30 32 1 11 31
M  V30 33 1 14 32
M  V30 34 1 14 33
M  V30 35 1 14 34
M  V30 36 1 17 35
M  V30 37 1 18 36
M  V30 38 1 20 37
M  V30 END BOND
M  V30 END CTAB
M  END
>  <Dataset>  (246) 
ChEMBL_Kinases

>  <Ligand_Instance>  (246) 
nan

>  <PDB_ID>  (246) 
nan

>  <Standardized_SMILES>  (246) 
C#CCOc1nc(Nc2ccc(S(C)(=O)=O)cc2)ncc1C(F)(F)F

>  <Name>  (246) 
nan

>  <Pocket>  (246) 
nan

>  <ATP_Site>  (246) 
nan

>  <Peripheral>  (246) 
nan

>  <Num_H_Atoms_ProtBoundConf>  (246) 
nan

>  <Num_Resolved_Atoms>  (246) 
nan

>  <Num_Not_Resolved_Atoms>  (246) 
nan

$$$$
CHEMBL3644029
     RDKit          3D

  0  0  0  0  0  0  0  0  0  0999 V3000
M  V30 BEGIN CTAB
M  V30 COUNTS 41 42 0 0 0
M  V30 BEGIN ATOM
M  V30 1 C 1.945151 -5.093564 2.727073 0
M  V30 2 S 3.362994 -3.997178 2.568792 0
M  V30 3 O 3.641467 -3.362875 3.875190 0
M  V30 4 O 4.526072 -4.861164 2.177317 0
M  V30 5 C 3.035840 -2.776120 1.358952 0
M  V30 6 C 2.438996 -1.624772 1.822412 0
M  V30 7 C 2.126036 -0.602930 0.919700 0
M  V30 8 C 2.422860 -0.772981 -0.415979 0
M  V30 9 N 2.074101 0.271302 -1.342426 0
M  V30 10 C 1.403508 1.422954 -0.847292 0
M  V30 11 N 1.785810 2.725268 -0.783329 0
M  V30 12 C 0.926519 3.636511 -0.233484 0
M  V30 13 C -0.309403 3.260986 0.252409 0
M  V30 14 C -1.249825 4.237712 0.853600 0
M  V30 15 F -1.508903 3.871767 2.181610 0
M  V30 16 F -0.703885 5.506688 0.898724 0
M  V30 17 F -2.480533 4.229635 0.230105 0
M  V30 18 C -0.688401 1.939273 0.184078 0
M  V30 19 O -1.929439 1.435033 0.651483 0
M  V30 20 C -2.201370 0.045772 0.527009 0
M  V30 21 C -3.575307 -0.203607 1.102366 0
M  V30 22 C -3.950074 -1.668303 1.018861 0
M  V30 23 F -3.960511 -2.110351 -0.271467 0
M  V30 24 F -2.951818 -2.347858 1.723779 0
M  V30 25 F -5.135781 -1.897120 1.682822 0
M  V30 26 N 0.194743 1.086554 -0.365991 0
M  V30 27 C 3.019654 -1.916811 -0.894543 0
M  V30 28 C 3.328604 -2.932775 0.018112 0
M  V30 29 H 1.171622 -4.621174 3.397148 0
M  V30 30 H 2.335340 -6.036323 3.160931 0
M  V30 31 H 1.473818 -5.292585 1.741034 0
M  V30 32 H 2.193100 -1.468430 2.883502 0
M  V30 33 H 1.659689 0.279913 1.322117 0
M  V30 34 H 2.308930 0.182215 -2.349397 0
M  V30 35 H 1.263970 4.651404 -0.200503 0
M  V30 36 H -1.477853 -0.568215 1.128943 0
M  V30 37 H -2.097176 -0.310676 -0.501882 0
M  V30 38 H -4.318770 0.343782 0.463931 0
M  V30 39 H -3.612903 0.178111 2.131249 0
M  V30 40 H 3.264521 -2.074514 -1.938793 0
M  V30 41 H 3.801439 -3.860605 -0.303082 0
M  V30 END ATOM
M  V30 BEGIN BOND
M  V30 1 1 1 2
M  V30 2 2 2 3
M  V30 3 2 2 4
M  V30 4 1 2 5
M  V30 5 2 5 6
M  V30 6 1 6 7
M  V30 7 2 7 8
M  V30 8 1 8 9
M  V30 9 1 9 10
M  V30 10 2 10 11
M  V30 11 1 11 12
M  V30 12 2 12 13
M  V30 13 1 13 14
M  V30 14 1 14 15
M  V30 15 1 14 16
M  V30 16 1 14 17
M  V30 17 1 13 18
M  V30 18 1 18 19
M  V30 19 1 19 20
M  V30 20 1 20 21
M  V30 21 1 21 22
M  V30 22 1 22 23
M  V30 23 1 22 24
M  V30 24 1 22 25
M  V30 25 2 18 26
M  V30 26 1 8 27
M  V30 27 2 27 28
M  V30 28 1 28 5
M  V30 29 1 26 10
M  V30 30 1 1 29
M  V30 31 1 1 30
M  V30 32 1 1 31
M  V30 33 1 6 32
M  V30 34 1 7 33
M  V30 35 1 9 34
M  V30 36 1 12 35
M  V30 37 1 20 36
M  V30 38 1 20 37
M  V30 39 1 21 38
M  V30 40 1 21 39
M  V30 41 1 27 40
M  V30 42 1 28 41
M  V30 END BOND
M  V30 END CTAB
M  END
>  <Dataset>  (247) 
ChEMBL_Kinases

>  <Ligand_Instance>  (247) 
nan

>  <PDB_ID>  (247) 
nan

>  <Standardized_SMILES>  (247) 
CS(=O)(=O)c1ccc(Nc2ncc(C(F)(F)F)c(OCCC(F)(F)F)n2)cc1

>  <Name>  (247) 
nan

>  <Pocket>  (247) 
nan

>  <ATP_Site>  (247) 
nan

>  <Peripheral>  (247) 
nan

>  <Num_H_Atoms_ProtBoundConf>  (247) 
nan

>  <Num_Resolved_Atoms>  (247) 
nan

>  <Num_Not_Resolved_Atoms>  (247) 
nan

$$$$
CHEMBL3644030
     RDKit          3D

  0  0  0  0  0  0  0  0  0  0999 V3000
M  V30 BEGIN CTAB
M  V30 COUNTS 39 40 0 0 0
M  V30 BEGIN ATOM
M  V30 1 C 1.211463 -4.661487 1.256729 0
M  V30 2 C 1.880068 -4.177406 2.286463 0
M  V30 3 C 1.140488 -3.398859 3.286478 0
M  V30 4 O -0.214792 -3.277115 2.997899 0
M  V30 5 C -0.800096 -2.722955 1.893391 0
M  V30 6 N -0.181107 -2.165821 0.816039 0
M  V30 7 C -0.916245 -1.662318 -0.193275 0
M  V30 8 N -0.197983 -1.083716 -1.299425 0
M  V30 9 C 0.212482 0.274212 -1.088463 0
M  V30 10 C 0.848863 1.036393 -2.074586 0
M  V30 11 C 1.244432 2.336894 -1.839682 0
M  V30 12 C 1.021495 2.929691 -0.612445 0
M  V30 13 S 1.478088 4.572194 -0.179030 0
M  V30 14 C 3.127706 4.556377 0.506429 0
M  V30 15 O 1.468655 5.452677 -1.369601 0
M  V30 16 O 0.528802 5.137009 0.841119 0
M  V30 17 C 0.390625 2.224479 0.415305 0
M  V30 18 C 0.014582 0.929987 0.131939 0
M  V30 19 N -2.263650 -1.659946 -0.234708 0
M  V30 20 C -2.899160 -2.209448 0.827524 0
M  V30 21 C -2.188104 -2.748018 1.905208 0
M  V30 22 C -2.955508 -3.342996 3.057944 0
M  V30 23 F -2.669271 -4.656982 3.251108 0
M  V30 24 F -4.305807 -3.184240 2.831261 0
M  V30 25 F -2.650055 -2.613210 4.205343 0
M  V30 26 H 0.405947 -4.907250 0.565339 0
M  V30 27 H 1.268014 -5.231970 0.351308 0
M  V30 28 H 2.923179 -4.435085 2.242107 0
M  V30 29 H 1.528497 -2.375297 3.468702 0
M  V30 30 H 1.196885 -3.914272 4.289525 0
M  V30 31 H 0.071128 -1.487454 -2.223796 0
M  V30 32 H 1.031608 0.587274 -3.044646 0
M  V30 33 H 1.736487 2.940859 -2.586588 0
M  V30 34 H 3.082022 3.875964 1.398033 0
M  V30 35 H 3.810077 4.051986 -0.208080 0
M  V30 36 H 3.466080 5.560321 0.758666 0
M  V30 37 H 0.190311 2.639644 1.398621 0
M  V30 38 H -0.474920 0.376411 0.924677 0
M  V30 39 H -3.974322 -2.207330 0.793281 0
M  V30 END ATOM
M  V30 BEGIN BOND
M  V30 1 2 1 2
M  V30 2 1 2 3
M  V30 3 1 3 4
M  V30 4 1 4 5
M  V30 5 2 5 6
M  V30 6 1 6 7
M  V30 7 1 7 8
M  V30 8 1 8 9
M  V30 9 2 9 10
M  V30 10 1 10 11
M  V30 11 2 11 12
M  V30 12 1 12 13
M  V30 13 1 13 14
M  V30 14 2 13 15
M  V30 15 2 13 16
M  V30 16 1 12 17
M  V30 17 2 17 18
M  V30 18 2 7 19
M  V30 19 1 19 20
M  V30 20 2 20 21
M  V30 21 1 21 22
M  V30 22 1 22 23
M  V30 23 1 22 24
M  V30 24 1 22 25
M  V30 25 1 21 5
M  V30 26 1 18 9
M  V30 27 1 1 26
M  V30 28 1 1 27
M  V30 29 1 2 28
M  V30 30 1 3 29
M  V30 31 1 3 30
M  V30 32 1 8 31
M  V30 33 1 10 32
M  V30 34 1 11 33
M  V30 35 1 14 34
M  V30 36 1 14 35
M  V30 37 1 14 36
M  V30 38 1 17 37
M  V30 39 1 18 38
M  V30 40 1 20 39
M  V30 END BOND
M  V30 END CTAB
M  END
>  <Dataset>  (248) 
ChEMBL_Kinases

>  <Ligand_Instance>  (248) 
nan

>  <PDB_ID>  (248) 
nan

>  <Standardized_SMILES>  (248) 
C=CCOc1nc(Nc2ccc(S(C)(=O)=O)cc2)ncc1C(F)(F)F

>  <Name>  (248) 
nan

>  <Pocket>  (248) 
nan

>  <ATP_Site>  (248) 
nan

>  <Peripheral>  (248) 
nan

>  <Num_H_Atoms_ProtBoundConf>  (248) 
nan

>  <Num_Resolved_Atoms>  (248) 
nan

>  <Num_Not_Resolved_Atoms>  (248) 
nan

$$$$
CHEMBL3644022
     RDKit          3D

  0  0  0  0  0  0  0  0  0  0999 V3000
M  V30 BEGIN CTAB
M  V30 COUNTS 55 57 0 0 0
M  V30 BEGIN ATOM
M  V30 1 C 0.958307 -3.279943 3.518735 0
M  V30 2 C 2.197552 -2.518140 3.979985 0 CFG=1
M  V30 3 O 3.024372 -3.355513 4.691372 0
M  V30 4 C 2.963949 -2.032737 2.756356 0 CFG=1
M  V30 5 C 4.032886 -1.071043 3.172744 0
M  V30 6 O 3.361086 -3.070180 1.933183 0
M  V30 7 C 2.969514 -3.371911 0.663672 0
M  V30 8 N 2.077749 -2.651745 -0.016681 0
M  V30 9 C 1.646454 -2.886457 -1.261657 0
M  V30 10 N 0.701985 -2.140531 -2.008368 0
M  V30 11 C 0.010788 -0.980482 -1.589547 0
M  V30 12 C 0.124542 -0.352191 -0.370972 0
M  V30 13 C -0.550949 0.778131 0.033305 0
M  V30 14 C -1.433741 1.352187 -0.857895 0
M  V30 15 S -2.324266 2.778571 -0.424909 0
M  V30 16 O -1.509504 3.553865 0.565970 0
M  V30 17 O -2.572469 3.560272 -1.678675 0
M  V30 18 C -3.877813 2.390999 0.337783 0
M  V30 19 C -4.820917 1.689151 -0.614900 0
M  V30 20 C -5.300910 2.815863 -1.493151 0
M  V30 21 C -5.158098 4.081730 -0.696763 0
M  V30 22 C -4.643890 3.654842 0.647209 0
M  V30 23 C -1.591471 0.767755 -2.096887 0
M  V30 24 C -0.883589 -0.362917 -2.435888 0
M  V30 25 N 2.210830 -3.970354 -1.817874 0
M  V30 26 C 3.114328 -4.763765 -1.228743 0
M  V30 27 C 3.517054 -4.474784 0.043451 0
M  V30 28 C 4.511317 -5.305555 0.758684 0
M  V30 29 F 3.921301 -5.807144 1.907406 0
M  V30 30 F 4.954884 -6.316430 -0.049745 0
M  V30 31 F 5.518129 -4.462647 1.186388 0
M  V30 32 H 1.295174 -4.185538 2.986007 0
M  V30 33 H 0.419509 -3.576644 4.455203 0
M  V30 34 H 0.316472 -2.647910 2.888928 0
M  V30 35 H 1.897335 -1.641245 4.578179 0
M  V30 36 H 3.956341 -3.018534 4.594596 0
M  V30 37 H 2.215273 -1.431469 2.181891 0
M  V30 38 H 4.931363 -1.515769 3.607551 0
M  V30 39 H 3.566924 -0.425899 3.972850 0
M  V30 40 H 4.209383 -0.384519 2.322195 0
M  V30 41 H 0.488220 -2.479495 -2.975417 0
M  V30 42 H 0.798752 -0.754033 0.367080 0
M  V30 43 H -0.414846 1.216544 0.998900 0
M  V30 44 H -3.739787 1.795289 1.269560 0
M  V30 45 H -4.304337 0.891103 -1.176304 0
M  V30 46 H -5.674301 1.337977 -0.003310 0
M  V30 47 H -6.394239 2.679315 -1.715458 0
M  V30 48 H -4.811919 2.865804 -2.479207 0
M  V30 49 H -4.455505 4.821355 -1.140128 0
M  V30 50 H -6.140844 4.627021 -0.608521 0
M  V30 51 H -4.012843 4.423641 1.132961 0
M  V30 52 H -5.534121 3.392648 1.272289 0
M  V30 53 H -2.284020 1.219990 -2.793070 0
M  V30 54 H -1.060907 -0.767496 -3.432131 0
M  V30 55 H 3.528597 -5.631967 -1.750983 0
M  V30 END ATOM
M  V30 BEGIN BOND
M  V30 1 1 1 2
M  V30 2 1 2 3
M  V30 3 1 2 4
M  V30 4 1 4 5
M  V30 5 1 4 6
M  V30 6 1 6 7
M  V30 7 2 7 8
M  V30 8 1 8 9
M  V30 9 1 9 10
M  V30 10 1 10 11
M  V30 11 2 11 12
M  V30 12 1 12 13
M  V30 13 2 13 14
M  V30 14 1 14 15
M  V30 15 2 15 16
M  V30 16 2 15 17
M  V30 17 1 15 18
M  V30 18 1 18 19
M  V30 19 1 19 20
M  V30 20 1 20 21
M  V30 21 1 21 22
M  V30 22 1 14 23
M  V30 23 2 23 24
M  V30 24 2 9 25
M  V30 25 1 25 26
M  V30 26 2 26 27
M  V30 27 1 27 28
M  V30 28 1 28 29
M  V30 29 1 28 30
M  V30 30 1 28 31
M  V30 31 1 27 7
M  V30 32 1 24 11
M  V30 33 1 22 18
M  V30 34 1 1 32
M  V30 35 1 1 33
M  V30 36 1 1 34
M  V30 37 1 2 35 CFG=1
M  V30 38 1 3 36
M  V30 39 1 4 37 CFG=3
M  V30 40 1 5 38
M  V30 41 1 5 39
M  V30 42 1 5 40
M  V30 43 1 10 41
M  V30 44 1 12 42
M  V30 45 1 13 43
M  V30 46 1 18 44
M  V30 47 1 19 45
M  V30 48 1 19 46
M  V30 49 1 20 47
M  V30 50 1 20 48
M  V30 51 1 21 49
M  V30 52 1 21 50
M  V30 53 1 22 51
M  V30 54 1 22 52
M  V30 55 1 23 53
M  V30 56 1 24 54
M  V30 57 1 26 55
M  V30 END BOND
M  V30 END CTAB
M  END
>  <Dataset>  (249) 
ChEMBL_Kinases

>  <Ligand_Instance>  (249) 
nan

>  <PDB_ID>  (249) 
nan

>  <Standardized_SMILES>  (249) 
C[C@@H](O)[C@@H](C)Oc1nc(Nc2ccc(S(=O)(=O)C3CCCC3)cc2)ncc1C(F)(F)F

>  <Name>  (249) 
nan

>  <Pocket>  (249) 
nan

>  <ATP_Site>  (249) 
nan

>  <Peripheral>  (249) 
nan

>  <Num_H_Atoms_ProtBoundConf>  (249) 
nan

>  <Num_Resolved_Atoms>  (249) 
nan

>  <Num_Not_Resolved_Atoms>  (249) 
nan

$$$$
CHEMBL3648083
     RDKit          3D

  0  0  0  0  0  0  0  0  0  0999 V3000
M  V30 BEGIN CTAB
M  V30 COUNTS 47 48 0 0 0
M  V30 BEGIN ATOM
M  V30 1 C -1.402511 -5.840661 -0.316775 0
M  V30 2 N -0.608713 -5.792897 -1.539566 0
M  V30 3 S 0.706052 -5.011945 -1.466199 0
M  V30 4 C 1.787134 -5.428121 -2.800523 0
M  V30 5 O 1.411302 -5.474783 -0.197242 0
M  V30 6 C 0.496662 -3.275855 -1.420453 0
M  V30 7 C 1.352261 -2.499493 -0.662443 0
M  V30 8 C 1.241745 -1.126796 -0.587797 0
M  V30 9 C 0.244729 -0.480889 -1.289522 0
M  V30 10 N 0.087424 0.932626 -1.250724 0
M  V30 11 C 1.017131 1.611088 -0.416902 0
M  V30 12 N 2.261369 2.057326 -0.742066 0
M  V30 13 C 3.017244 2.690111 0.176675 0
M  V30 14 C 2.480387 2.858478 1.430137 0
M  V30 15 Br 3.532749 3.752509 2.752643 0
M  V30 16 C 1.211179 2.420091 1.812073 0
M  V30 17 N 0.706008 2.618907 3.126764 0
M  V30 18 C -0.633168 2.109882 3.373834 0 CFG=2
M  V30 19 C -1.607168 2.809486 2.468133 0
M  V30 20 C -1.020771 2.120764 4.823286 0 CFG=2
M  V30 21 C -2.350935 1.419434 4.954277 0
M  V30 22 O -1.012857 3.365607 5.413265 0
M  V30 23 N 0.548235 1.807090 0.828233 0
M  V30 24 C -0.623056 -1.264066 -2.057449 0
M  V30 25 C -0.525795 -2.658137 -2.144919 0
M  V30 26 H -2.185079 -6.626355 -0.374594 0
M  V30 27 H -0.740941 -6.147497 0.521713 0
M  V30 28 H -1.792904 -4.842503 -0.062469 0
M  V30 29 H 2.043607 -6.517992 -2.714166 0
M  V30 30 H 2.755634 -4.897696 -2.684995 0
M  V30 31 H 1.303878 -5.208258 -3.776563 0
M  V30 32 H 2.160273 -2.928813 -0.082486 0
M  V30 33 H 1.933712 -0.534985 0.021638 0
M  V30 34 H -0.665063 1.371334 -1.809022 0
M  V30 35 H 3.997867 3.033772 -0.103166 0
M  V30 36 H 1.329595 3.108313 3.801203 0
M  V30 37 H -0.632679 1.037257 3.061919 0
M  V30 38 H -2.300936 2.106908 1.986338 0
M  V30 39 H -2.169115 3.605802 3.018915 0
M  V30 40 H -1.047693 3.341321 1.685750 0
M  V30 41 H -0.266564 1.492351 5.352610 0
M  V30 42 H -2.632947 0.910042 4.003309 0
M  V30 43 H -2.312623 0.609507 5.717487 0
M  V30 44 H -3.115797 2.149862 5.291350 0
M  V30 45 H -0.748992 3.332513 6.380703 0
M  V30 46 H -1.430936 -0.831278 -2.636895 0
M  V30 47 H -1.208846 -3.227632 -2.743719 0
M  V30 END ATOM
M  V30 BEGIN BOND
M  V30 1 1 1 2
M  V30 2 2 2 3
M  V30 3 1 3 4
M  V30 4 2 3 5
M  V30 5 1 3 6
M  V30 6 2 6 7
M  V30 7 1 7 8
M  V30 8 2 8 9
M  V30 9 1 9 10
M  V30 10 1 10 11
M  V30 11 2 11 12
M  V30 12 1 12 13
M  V30 13 2 13 14
M  V30 14 1 14 15
M  V30 15 1 14 16
M  V30 16 1 16 17
M  V30 17 1 17 18
M  V30 18 1 18 19
M  V30 19 1 18 20
M  V30 20 1 20 21
M  V30 21 1 20 22
M  V30 22 2 16 23
M  V30 23 1 9 24
M  V30 24 2 24 25
M  V30 25 1 25 6
M  V30 26 1 23 11
M  V30 27 1 1 26
M  V30 28 1 1 27
M  V30 29 1 1 28
M  V30 30 1 4 29
M  V30 31 1 4 30
M  V30 32 1 4 31
M  V30 33 1 7 32
M  V30 34 1 8 33
M  V30 35 1 10 34
M  V30 36 1 13 35
M  V30 37 1 17 36
M  V30 38 1 18 37 CFG=3
M  V30 39 1 19 38
M  V30 40 1 19 39
M  V30 41 1 19 40
M  V30 42 1 20 41 CFG=1
M  V30 43 1 21 42
M  V30 44 1 21 43
M  V30 45 1 21 44
M  V30 46 1 22 45
M  V30 47 1 24 46
M  V30 48 1 25 47
M  V30 END BOND
M  V30 END CTAB
M  END
>  <Dataset>  (250) 
ChEMBL_Kinases

>  <Ligand_Instance>  (250) 
nan

>  <PDB_ID>  (250) 
nan

>  <Standardized_SMILES>  (250) 
CN=S(C)(=O)c1ccc(Nc2ncc(Br)c(N[C@H](C)[C@H](C)O)n2)cc1

>  <Name>  (250) 
nan

>  <Pocket>  (250) 
nan

>  <ATP_Site>  (250) 
nan

>  <Peripheral>  (250) 
nan

>  <Num_H_Atoms_ProtBoundConf>  (250) 
nan

>  <Num_Resolved_Atoms>  (250) 
nan

>  <Num_Not_Resolved_Atoms>  (250) 
nan

$$$$
CHEMBL3648084
     RDKit          3D

  0  0  0  0  0  0  0  0  0  0999 V3000
M  V30 BEGIN CTAB
M  V30 COUNTS 56 57 0 0 0
M  V30 BEGIN ATOM
M  V30 1 C 2.590970 -3.300827 6.968105 0
M  V30 2 C 2.457487 -3.847282 5.565502 0
M  V30 3 O 2.019981 -2.788156 4.730791 0
M  V30 4 C 2.750371 -1.625770 4.546063 0
M  V30 5 O 3.858874 -1.404159 5.094917 0
M  V30 6 N 2.053142 -0.746920 3.654164 0
M  V30 7 S 2.902590 0.311727 2.876039 0
M  V30 8 C 2.855861 1.802511 3.855848 0
M  V30 9 O 4.303528 -0.222544 2.813996 0
M  V30 10 C 2.253259 0.604481 1.281262 0
M  V30 11 C 0.933078 0.446337 0.927118 0
M  V30 12 C 0.506398 0.701417 -0.358562 0
M  V30 13 C 1.350271 1.125455 -1.368862 0
M  V30 14 N 0.956232 1.379571 -2.695156 0
M  V30 15 C -0.275348 1.101602 -3.325407 0
M  V30 16 N -0.436544 1.502583 -4.594629 0
M  V30 17 C -1.526353 1.305866 -5.316057 0
M  V30 18 C -2.565290 0.641627 -4.714838 0
M  V30 19 Br -4.151838 0.340953 -5.725776 0
M  V30 20 C -2.476913 0.192033 -3.398267 0
M  V30 21 N -3.571765 -0.485693 -2.807651 0
M  V30 22 C -3.683119 -1.035237 -1.471803 0 CFG=2
M  V30 23 C -3.371472 0.029919 -0.448835 0
M  V30 24 C -2.785099 -2.217263 -1.242585 0
M  V30 25 C -3.137091 -3.383509 -2.127230 0
M  V30 26 C -2.901057 -2.650091 0.206276 0
M  V30 27 O -1.468166 -1.827044 -1.448998 0
M  V30 28 N -1.314596 0.464765 -2.798640 0
M  V30 29 C 2.654980 1.265026 -0.954016 0
M  V30 30 C 3.122487 1.022124 0.315218 0
M  V30 31 H 1.609935 -3.480223 7.489343 0
M  V30 32 H 2.702087 -2.203238 6.939056 0
M  V30 33 H 3.374044 -3.829700 7.549364 0
M  V30 34 H 1.751454 -4.680429 5.591498 0
M  V30 35 H 3.464209 -4.211269 5.226651 0
M  V30 36 H 2.232353 2.588041 3.377725 0
M  V30 37 H 3.916619 2.146156 3.998018 0
M  V30 38 H 2.437715 1.630732 4.876227 0
M  V30 39 H 0.248577 0.114713 1.697328 0
M  V30 40 H -0.539856 0.566136 -0.568806 0
M  V30 41 H 1.713553 1.848178 -3.276926 0
M  V30 42 H -1.632649 1.639216 -6.338745 0
M  V30 43 H -4.420312 -0.601147 -3.441018 0
M  V30 44 H -4.768299 -1.327105 -1.320693 0
M  V30 45 H -4.275946 0.282434 0.159667 0
M  V30 46 H -2.591238 -0.344745 0.273845 0
M  V30 47 H -2.928639 0.948645 -0.896922 0
M  V30 48 H -2.754512 -4.329641 -1.684820 0
M  V30 49 H -2.582441 -3.292850 -3.101411 0
M  V30 50 H -4.242203 -3.446207 -2.331095 0
M  V30 51 H -2.063556 -2.243055 0.820472 0
M  V30 52 H -2.827312 -3.755203 0.239373 0
M  V30 53 H -3.820157 -2.231226 0.642073 0
M  V30 54 H -0.867039 -2.060222 -0.694300 0
M  V30 55 H 3.409354 1.600107 -1.684160 0
M  V30 56 H 4.172908 1.162534 0.543113 0
M  V30 END ATOM
M  V30 BEGIN BOND
M  V30 1 1 1 2
M  V30 2 1 2 3
M  V30 3 1 3 4
M  V30 4 2 4 5
M  V30 5 1 4 6
M  V30 6 2 6 7
M  V30 7 1 7 8
M  V30 8 2 7 9
M  V30 9 1 7 10
M  V30 10 2 10 11
M  V30 11 1 11 12
M  V30 12 2 12 13
M  V30 13 1 13 14
M  V30 14 1 14 15
M  V30 15 2 15 16
M  V30 16 1 16 17
M  V30 17 2 17 18
M  V30 18 1 18 19
M  V30 19 1 18 20
M  V30 20 1 20 21
M  V30 21 1 21 22
M  V30 22 1 22 23
M  V30 23 1 22 24
M  V30 24 1 24 25
M  V30 25 1 24 26
M  V30 26 1 24 27
M  V30 27 2 20 28
M  V30 28 1 13 29
M  V30 29 2 29 30
M  V30 30 1 30 10
M  V30 31 1 28 15
M  V30 32 1 1 31
M  V30 33 1 1 32
M  V30 34 1 1 33
M  V30 35 1 2 34
M  V30 36 1 2 35
M  V30 37 1 8 36
M  V30 38 1 8 37
M  V30 39 1 8 38
M  V30 40 1 11 39
M  V30 41 1 12 40
M  V30 42 1 14 41
M  V30 43 1 17 42
M  V30 44 1 21 43
M  V30 45 1 22 44 CFG=1
M  V30 46 1 23 45
M  V30 47 1 23 46
M  V30 48 1 23 47
M  V30 49 1 25 48
M  V30 50 1 25 49
M  V30 51 1 25 50
M  V30 52 1 26 51
M  V30 53 1 26 52
M  V30 54 1 26 53
M  V30 55 1 27 54
M  V30 56 1 29 55
M  V30 57 1 30 56
M  V30 END BOND
M  V30 END CTAB
M  END
>  <Dataset>  (251) 
ChEMBL_Kinases

>  <Ligand_Instance>  (251) 
nan

>  <PDB_ID>  (251) 
nan

>  <Standardized_SMILES>  (251) 
CCOC(=O)N=S(C)(=O)c1ccc(Nc2ncc(Br)c(N[C@H](C)C(C)(C)O)n2)cc1

>  <Name>  (251) 
nan

>  <Pocket>  (251) 
nan

>  <ATP_Site>  (251) 
nan

>  <Peripheral>  (251) 
nan

>  <Num_H_Atoms_ProtBoundConf>  (251) 
nan

>  <Num_Resolved_Atoms>  (251) 
nan

>  <Num_Not_Resolved_Atoms>  (251) 
nan

$$$$
CHEMBL3648085
     RDKit          3D

  0  0  0  0  0  0  0  0  0  0999 V3000
M  V30 BEGIN CTAB
M  V30 COUNTS 53 54 0 0 0
M  V30 BEGIN ATOM
M  V30 1 C 3.862530 -0.577760 6.860563 0
M  V30 2 C 3.161787 0.618706 6.293236 0
M  V30 3 O 3.613523 0.980898 4.995932 0
M  V30 4 C 4.903052 1.336544 4.682045 0
M  V30 5 O 5.786248 1.352790 5.602723 0
M  V30 6 N 5.000803 1.638526 3.284328 0
M  V30 7 S 5.000545 0.541578 2.186684 0
M  V30 8 C 6.129645 0.877749 0.859107 0
M  V30 9 O 5.495519 -0.723951 2.862852 0
M  V30 10 C 3.432278 0.281277 1.473262 0
M  V30 11 C 2.570055 1.311466 1.276857 0
M  V30 12 C 1.332338 1.107061 0.714023 0
M  V30 13 C 0.880378 -0.142457 0.312445 0
M  V30 14 N -0.404717 -0.307001 -0.263952 0
M  V30 15 C -1.005513 -1.506789 -0.720778 0
M  V30 16 N -0.471705 -2.733251 -0.697280 0
M  V30 17 C -1.055081 -3.857849 -1.134161 0
M  V30 18 C -2.322460 -3.733914 -1.655063 0
M  V30 19 Br -3.219845 -5.285195 -2.297280 0
M  V30 20 C -2.920154 -2.493844 -1.703586 0
M  V30 21 N -4.229686 -2.362259 -2.241283 0
M  V30 22 C -4.830369 -1.030583 -2.275619 0 CFG=2
M  V30 23 C -4.909442 -0.524262 -0.847252 0
M  V30 24 C -6.234999 -1.072221 -2.809045 0 CFG=2
M  V30 25 C -6.331796 -1.693246 -4.184127 0
M  V30 26 O -6.736974 0.226589 -2.810567 0
M  V30 27 N -2.242067 -1.449995 -1.239682 0
M  V30 28 C 1.789814 -1.152691 0.532366 0
M  V30 29 C 3.037483 -0.983902 1.093503 0
M  V30 30 H 4.699827 -0.319910 7.539255 0
M  V30 31 H 3.139312 -1.185167 7.443556 0
M  V30 32 H 4.260025 -1.258118 6.075331 0
M  V30 33 H 2.078486 0.349938 6.177362 0
M  V30 34 H 3.239983 1.435644 7.022281 0
M  V30 35 H 6.526557 -0.066002 0.412357 0
M  V30 36 H 5.607939 1.400941 0.006326 0
M  V30 37 H 6.952614 1.557397 1.145138 0
M  V30 38 H 2.841175 2.322862 1.561417 0
M  V30 39 H 0.677701 1.974699 0.579167 0
M  V30 40 H -0.964433 0.582499 -0.354640 0
M  V30 41 H -0.538761 -4.810883 -1.072589 0
M  V30 42 H -4.738517 -3.196617 -2.598212 0
M  V30 43 H -4.188954 -0.319423 -2.852051 0
M  V30 44 H -4.006805 0.082839 -0.612236 0
M  V30 45 H -5.834561 0.071447 -0.715200 0
M  V30 46 H -4.988173 -1.401347 -0.180919 0
M  V30 47 H -6.838267 -1.697492 -2.114098 0
M  V30 48 H -7.404248 -1.552162 -4.492306 0
M  V30 49 H -6.190124 -2.784972 -4.138971 0
M  V30 50 H -5.672717 -1.213451 -4.909137 0
M  V30 51 H -7.433997 0.326166 -3.520544 0
M  V30 52 H 1.559756 -2.152082 0.267146 0
M  V30 53 H 3.721058 -1.802804 1.248918 0
M  V30 END ATOM
M  V30 BEGIN BOND
M  V30 1 1 1 2
M  V30 2 1 2 3
M  V30 3 1 3 4
M  V30 4 2 4 5
M  V30 5 1 4 6
M  V30 6 2 6 7
M  V30 7 1 7 8
M  V30 8 2 7 9
M  V30 9 1 7 10
M  V30 10 2 10 11
M  V30 11 1 11 12
M  V30 12 2 12 13
M  V30 13 1 13 14
M  V30 14 1 14 15
M  V30 15 2 15 16
M  V30 16 1 16 17
M  V30 17 2 17 18
M  V30 18 1 18 19
M  V30 19 1 18 20
M  V30 20 1 20 21
M  V30 21 1 21 22
M  V30 22 1 22 23
M  V30 23 1 22 24
M  V30 24 1 24 25
M  V30 25 1 24 26
M  V30 26 2 20 27
M  V30 27 1 13 28
M  V30 28 2 28 29
M  V30 29 1 29 10
M  V30 30 1 27 15
M  V30 31 1 1 30
M  V30 32 1 1 31
M  V30 33 1 1 32
M  V30 34 1 2 33
M  V30 35 1 2 34
M  V30 36 1 8 35
M  V30 37 1 8 36
M  V30 38 1 8 37
M  V30 39 1 11 38
M  V30 40 1 12 39
M  V30 41 1 14 40
M  V30 42 1 17 41
M  V30 43 1 21 42
M  V30 44 1 22 43 CFG=3
M  V30 45 1 23 44
M  V30 46 1 23 45
M  V30 47 1 23 46
M  V30 48 1 24 47 CFG=1
M  V30 49 1 25 48
M  V30 50 1 25 49
M  V30 51 1 25 50
M  V30 52 1 26 51
M  V30 53 1 28 52
M  V30 54 1 29 53
M  V30 END BOND
M  V30 END CTAB
M  END
>  <Dataset>  (252) 
ChEMBL_Kinases

>  <Ligand_Instance>  (252) 
nan

>  <PDB_ID>  (252) 
nan

>  <Standardized_SMILES>  (252) 
CCOC(=O)N=S(C)(=O)c1ccc(Nc2ncc(Br)c(N[C@H](C)[C@H](C)O)n2)cc1

>  <Name>  (252) 
nan

>  <Pocket>  (252) 
nan

>  <ATP_Site>  (252) 
nan

>  <Peripheral>  (252) 
nan

>  <Num_H_Atoms_ProtBoundConf>  (252) 
nan

>  <Num_Resolved_Atoms>  (252) 
nan

>  <Num_Not_Resolved_Atoms>  (252) 
nan

$$$$
CHEMBL3648086
     RDKit          3D

  0  0  0  0  0  0  0  0  0  0999 V3000
M  V30 BEGIN CTAB
M  V30 COUNTS 60 61 0 0 0
M  V30 BEGIN ATOM
M  V30 1 C 6.721048 -3.105574 4.658131 0
M  V30 2 C 6.853983 -1.723154 4.047135 0
M  V30 3 O 5.560127 -1.363867 3.564726 0
M  V30 4 C 5.323804 -0.127930 2.930492 0
M  V30 5 O 6.551432 0.148919 3.100435 0
M  V30 6 N 3.955559 -0.008801 2.541646 0
M  V30 7 S 3.620971 1.213246 1.610208 0
M  V30 8 O 4.343970 2.389867 2.146036 0
M  V30 9 C 4.305040 0.822485 0.002602 0
M  V30 10 C 5.796001 0.599566 0.059030 0
M  V30 11 C 1.890940 1.463021 1.502369 0
M  V30 12 C 1.114635 0.332174 1.695391 0
M  V30 13 C -0.277497 0.465936 1.618638 0
M  V30 14 C -0.909422 1.682517 1.357642 0
M  V30 15 N -2.329802 1.757808 1.286934 0
M  V30 16 C -2.993874 0.517721 1.502732 0
M  V30 17 N -3.442834 0.061147 2.685352 0
M  V30 18 C -4.051732 -1.134384 2.753276 0
M  V30 19 C -4.243808 -1.929130 1.662380 0
M  V30 20 Br -5.096140 -3.628252 1.691030 0
M  V30 21 C -3.777563 -1.455867 0.431943 0
M  V30 22 N -3.880800 -2.165360 -0.798436 0
M  V30 23 C -3.524397 -1.966253 -2.180077 0 CFG=1
M  V30 24 C -3.764410 -3.261532 -2.983535 0
M  V30 25 O -5.076124 -3.664391 -2.950588 0
M  V30 26 C -5.209665 -4.852004 -3.706080 0
M  V30 27 C -4.357608 -0.908232 -2.876951 0 CFG=2
M  V30 28 C -4.145269 0.485673 -2.396707 0
M  V30 29 O -5.679105 -1.283666 -2.809876 0
M  V30 30 N -3.180841 -0.259306 0.430737 0
M  V30 31 C -0.077523 2.774431 1.174391 0
M  V30 32 C 1.303299 2.684401 1.242215 0
M  V30 33 H 7.184037 -3.887680 4.002081 0
M  V30 34 H 7.212499 -3.171470 5.660557 0
M  V30 35 H 5.666264 -3.417579 4.812411 0
M  V30 36 H 7.599395 -1.803878 3.238329 0
M  V30 37 H 7.163493 -0.978996 4.818730 0
M  V30 38 H 4.037978 1.676781 -0.661523 0
M  V30 39 H 3.773763 -0.061362 -0.393929 0
M  V30 40 H 6.139263 0.608186 -1.006888 0
M  V30 41 H 5.970997 -0.419143 0.476114 0
M  V30 42 H 6.275255 1.388753 0.661402 0
M  V30 43 H 1.542407 -0.655114 1.904218 0
M  V30 44 H -0.847288 -0.451978 1.777610 0
M  V30 45 H -2.747071 2.693374 1.087944 0
M  V30 46 H -4.433111 -1.554188 3.672132 0
M  V30 47 H -4.358646 -3.099953 -0.626398 0
M  V30 48 H -2.437201 -1.750369 -2.205870 0
M  V30 49 H -3.406066 -3.142275 -4.013006 0
M  V30 50 H -3.080734 -4.029237 -2.521231 0
M  V30 51 H -6.261782 -5.202306 -3.698114 0
M  V30 52 H -4.538895 -5.633314 -3.257018 0
M  V30 53 H -4.932921 -4.657686 -4.760071 0
M  V30 54 H -4.071921 -0.890781 -3.978316 0
M  V30 55 H -4.784268 0.801368 -1.548640 0
M  V30 56 H -4.392103 1.245019 -3.202247 0
M  V30 57 H -3.093698 0.715224 -2.141281 0
M  V30 58 H -5.963713 -1.512251 -1.891824 0
M  V30 59 H -0.528627 3.742676 0.968780 0
M  V30 60 H 1.946975 3.542009 1.097696 0
M  V30 END ATOM
M  V30 BEGIN BOND
M  V30 1 1 1 2
M  V30 2 1 2 3
M  V30 3 1 3 4
M  V30 4 2 4 5
M  V30 5 1 4 6
M  V30 6 2 6 7
M  V30 7 2 7 8
M  V30 8 1 7 9
M  V30 9 1 9 10
M  V30 10 1 7 11
M  V30 11 2 11 12
M  V30 12 1 12 13
M  V30 13 2 13 14
M  V30 14 1 14 15
M  V30 15 1 15 16
M  V30 16 2 16 17
M  V30 17 1 17 18
M  V30 18 2 18 19
M  V30 19 1 19 20
M  V30 20 1 19 21
M  V30 21 1 21 22
M  V30 22 1 22 23
M  V30 23 1 23 24
M  V30 24 1 24 25
M  V30 25 1 25 26
M  V30 26 1 23 27
M  V30 27 1 27 28
M  V30 28 1 27 29
M  V30 29 2 21 30
M  V30 30 1 14 31
M  V30 31 2 31 32
M  V30 32 1 32 11
M  V30 33 1 30 16
M  V30 34 1 1 33
M  V30 35 1 1 34
M  V30 36 1 1 35
M  V30 37 1 2 36
M  V30 38 1 2 37
M  V30 39 1 9 38
M  V30 40 1 9 39
M  V30 41 1 10 40
M  V30 42 1 10 41
M  V30 43 1 10 42
M  V30 44 1 12 43
M  V30 45 1 13 44
M  V30 46 1 15 45
M  V30 47 1 18 46
M  V30 48 1 22 47
M  V30 49 1 23 48 CFG=1
M  V30 50 1 24 49
M  V30 51 1 24 50
M  V30 52 1 26 51
M  V30 53 1 26 52
M  V30 54 1 26 53
M  V30 55 1 27 54 CFG=3
M  V30 56 1 28 55
M  V30 57 1 28 56
M  V30 58 1 28 57
M  V30 59 1 29 58
M  V30 60 1 31 59
M  V30 61 1 32 60
M  V30 END BOND
M  V30 END CTAB
M  END
>  <Dataset>  (253) 
ChEMBL_Kinases

>  <Ligand_Instance>  (253) 
nan

>  <PDB_ID>  (253) 
nan

>  <Standardized_SMILES>  (253) 
CCOC(=O)N=S(=O)(CC)c1ccc(Nc2ncc(Br)c(N[C@@H](COC)[C@H](C)O)n2)cc1

>  <Name>  (253) 
nan

>  <Pocket>  (253) 
nan

>  <ATP_Site>  (253) 
nan

>  <Peripheral>  (253) 
nan

>  <Num_H_Atoms_ProtBoundConf>  (253) 
nan

>  <Num_Resolved_Atoms>  (253) 
nan

>  <Num_Not_Resolved_Atoms>  (253) 
nan

$$$$
CHEMBL3648087
     RDKit          3D

  0  0  0  0  0  0  0  0  0  0999 V3000
M  V30 BEGIN CTAB
M  V30 COUNTS 57 58 0 0 0
M  V30 BEGIN ATOM
M  V30 1 C 5.774738 -5.373470 2.919217 0
M  V30 2 C 4.766247 -5.580884 1.804465 0
M  V30 3 O 4.027273 -4.443481 1.482886 0
M  V30 4 C 4.498926 -3.227180 1.033166 0
M  V30 5 O 5.743923 -3.421372 0.991529 0
M  V30 6 N 3.540023 -2.213889 0.775199 0
M  V30 7 S 4.072197 -0.753196 0.616035 0
M  V30 8 C 4.697050 -0.222313 2.198355 0
M  V30 9 O 5.226030 -0.835395 -0.339248 0
M  V30 10 C 2.821670 0.345912 0.106229 0
M  V30 11 C 2.886175 1.383638 -0.790233 0
M  V30 12 C 1.808017 2.185284 -1.080880 0
M  V30 13 C 0.605824 1.944678 -0.449398 0
M  V30 14 N -0.590140 2.712272 -0.696596 0
M  V30 15 C -1.741925 2.527062 0.110471 0
M  V30 16 N -1.900211 3.487906 1.051369 0
M  V30 17 C -2.964829 3.402145 1.882415 0
M  V30 18 C -3.885306 2.402930 1.825139 0
M  V30 19 Br -5.380823 2.292854 2.998541 0
M  V30 20 C -3.711789 1.413497 0.849248 0
M  V30 21 N -4.623240 0.335857 0.738452 0
M  V30 22 C -4.597435 -0.823615 -0.255581 0 CFG=1
M  V30 23 C -4.799702 -0.141794 -1.559690 0
M  V30 24 O -4.926196 -0.668990 -2.730129 0
M  V30 25 C -4.140220 -1.397595 -3.501649 0
M  V30 26 C -3.277198 -1.508180 -0.013068 0 CFG=2
M  V30 27 C -3.092834 -2.839957 -0.642046 0
M  V30 28 O -3.326437 -1.812454 1.401791 0
M  V30 29 N -2.634704 1.547887 0.047542 0
M  V30 30 C 0.508342 0.893519 0.470512 0
M  V30 31 C 1.605064 0.094269 0.751825 0
M  V30 32 H 5.747928 -4.275911 3.149670 0
M  V30 33 H 5.535943 -5.906090 3.845239 0
M  V30 34 H 6.793525 -5.597743 2.532436 0
M  V30 35 H 4.029635 -6.335950 2.203389 0
M  V30 36 H 5.244690 -6.070820 0.923791 0
M  V30 37 H 5.652970 -0.684417 2.429560 0
M  V30 38 H 3.956870 -0.595332 2.966652 0
M  V30 39 H 4.712188 0.891232 2.180553 0
M  V30 40 H 3.861501 1.500515 -1.238022 0
M  V30 41 H 1.891985 2.988001 -1.787584 0
M  V30 42 H -0.512907 3.382707 -1.491825 0
M  V30 43 H -3.143692 4.137865 2.650892 0
M  V30 44 H -5.417096 0.352447 1.442516 0
M  V30 45 H -5.472982 -1.417254 0.005349 0
M  V30 46 H -3.911548 0.618371 -1.635833 0
M  V30 47 H -5.690742 0.572923 -1.387892 0
M  V30 48 H -3.820353 -2.385083 -3.185081 0
M  V30 49 H -4.661863 -1.583686 -4.505352 0
M  V30 50 H -3.234026 -0.781619 -3.827149 0
M  V30 51 H -2.431945 -0.839543 -0.162430 0
M  V30 52 H -2.290680 -2.829091 -1.442361 0
M  V30 53 H -4.039845 -3.282646 -0.988003 0
M  V30 54 H -2.675349 -3.563291 0.102433 0
M  V30 55 H -4.024182 -2.523809 1.458719 0
M  V30 56 H -0.447887 0.711508 0.968626 0
M  V30 57 H 1.421367 -0.702982 1.486927 0
M  V30 END ATOM
M  V30 BEGIN BOND
M  V30 1 1 1 2
M  V30 2 1 2 3
M  V30 3 1 3 4
M  V30 4 2 4 5
M  V30 5 1 4 6
M  V30 6 2 6 7
M  V30 7 1 7 8
M  V30 8 2 7 9
M  V30 9 1 7 10
M  V30 10 2 10 11
M  V30 11 1 11 12
M  V30 12 2 12 13
M  V30 13 1 13 14
M  V30 14 1 14 15
M  V30 15 2 15 16
M  V30 16 1 16 17
M  V30 17 2 17 18
M  V30 18 1 18 19
M  V30 19 1 18 20
M  V30 20 1 20 21
M  V30 21 1 21 22
M  V30 22 1 22 23
M  V30 23 1 23 24
M  V30 24 1 24 25
M  V30 25 1 22 26
M  V30 26 1 26 27
M  V30 27 1 26 28
M  V30 28 2 20 29
M  V30 29 1 13 30
M  V30 30 2 30 31
M  V30 31 1 31 10
M  V30 32 1 29 15
M  V30 33 1 1 32
M  V30 34 1 1 33
M  V30 35 1 1 34
M  V30 36 1 2 35
M  V30 37 1 2 36
M  V30 38 1 8 37
M  V30 39 1 8 38
M  V30 40 1 8 39
M  V30 41 1 11 40
M  V30 42 1 12 41
M  V30 43 1 14 42
M  V30 44 1 17 43
M  V30 45 1 21 44
M  V30 46 1 22 45 CFG=1
M  V30 47 1 23 46
M  V30 48 1 23 47
M  V30 49 1 25 48
M  V30 50 1 25 49
M  V30 51 1 25 50
M  V30 52 1 26 51 CFG=1
M  V30 53 1 27 52
M  V30 54 1 27 53
M  V30 55 1 27 54
M  V30 56 1 28 55
M  V30 57 1 30 56
M  V30 58 1 31 57
M  V30 END BOND
M  V30 END CTAB
M  END
>  <Dataset>  (254) 
ChEMBL_Kinases

>  <Ligand_Instance>  (254) 
nan

>  <PDB_ID>  (254) 
nan

>  <Standardized_SMILES>  (254) 
CCOC(=O)N=S(C)(=O)c1ccc(Nc2ncc(Br)c(N[C@@H](COC)[C@H](C)O)n2)cc1

>  <Name>  (254) 
nan

>  <Pocket>  (254) 
nan

>  <ATP_Site>  (254) 
nan

>  <Peripheral>  (254) 
nan

>  <Num_H_Atoms_ProtBoundConf>  (254) 
nan

>  <Num_Resolved_Atoms>  (254) 
nan

>  <Num_Not_Resolved_Atoms>  (254) 
nan

$$$$
CHEMBL3950648
     RDKit          3D

  0  0  0  0  0  0  0  0  0  0999 V3000
M  V30 BEGIN CTAB
M  V30 COUNTS 50 53 0 0 0
M  V30 BEGIN ATOM
M  V30 1 C 5.827253 -4.442373 -0.178450 0
M  V30 2 C 4.690663 -3.491377 -0.059278 0
M  V30 3 C 3.538330 -3.625944 -0.806282 0
M  V30 4 C 2.487904 -2.738248 -0.689220 0
M  V30 5 C 2.639296 -1.691273 0.221879 0
M  V30 6 C 3.793984 -1.561205 0.966655 0
M  V30 7 C 4.844425 -2.447156 0.850979 0
M  V30 8 C 4.124240 -0.533293 1.962301 0
M  V30 9 O 5.277301 -0.504151 2.451979 0
M  V30 10 N 3.283313 0.508813 2.497307 0
M  V30 11 C 3.857504 1.550709 3.316867 0
M  V30 12 C 1.881008 0.609298 2.283013 0
M  V30 13 C 1.256536 1.404708 3.185600 0
M  V30 14 N -0.062134 1.575123 3.084823 0
M  V30 15 C -0.857446 1.024809 2.155672 0
M  V30 16 N -2.247949 1.299621 2.175195 0
M  V30 17 C -3.236264 0.814063 1.289012 0
M  V30 18 C -3.049898 -0.035109 0.224618 0
M  V30 19 C -4.012250 -0.498178 -0.626508 0
M  V30 20 C -5.310568 -0.085063 -0.415921 0
M  V30 21 S -6.643044 -0.590775 -1.416987 0
M  V30 22 N -6.909225 0.463027 -2.751778 0
M  V30 23 O -6.397549 -1.967832 -1.952106 0
M  V30 24 O -7.890143 -0.688940 -0.557078 0
M  V30 25 C -5.568749 0.767407 0.634570 0
M  V30 26 C -4.549811 1.194690 1.453232 0
M  V30 27 N -0.212309 0.244651 1.278503 0
M  V30 28 C 1.107519 0.020567 1.308204 0
M  V30 29 N 1.488393 -0.848067 0.247711 0
M  V30 30 C 0.648343 -0.890764 -0.907693 0
M  V30 31 H 6.576267 -4.160524 -0.925992 0
M  V30 32 H 5.431658 -5.454374 -0.422520 0
M  V30 33 H 6.328020 -4.587788 0.823008 0
M  V30 34 H 3.446007 -4.444306 -1.504004 0
M  V30 35 H 1.561634 -2.790076 -1.245061 0
M  V30 36 H 5.733514 -2.342202 1.428241 0
M  V30 37 H 3.766944 1.347852 4.404304 0
M  V30 38 H 3.583078 2.570859 3.012971 0
M  V30 39 H 4.971114 1.499407 3.136646 0
M  V30 40 H 1.847083 1.871130 3.952398 0
M  V30 41 H -2.587201 1.940467 2.938577 0
M  V30 42 H -2.053164 -0.389711 0.014421 0
M  V30 43 H -3.806870 -1.156015 -1.435586 0
M  V30 44 H -5.995453 0.804136 -3.082704 0
M  V30 45 H -7.500359 1.293990 -2.489835 0
M  V30 46 H -6.589969 1.103958 0.815436 0
M  V30 47 H -4.832557 1.867915 2.262737 0
M  V30 48 H 0.089643 0.083825 -0.955487 0
M  V30 49 H -0.118064 -1.665319 -0.921197 0
M  V30 50 H 1.251525 -0.872403 -1.863909 0
M  V30 END ATOM
M  V30 BEGIN BOND
M  V30 1 1 1 2
M  V30 2 2 2 3
M  V30 3 1 3 4
M  V30 4 2 4 5
M  V30 5 1 5 6
M  V30 6 2 6 7
M  V30 7 1 6 8
M  V30 8 2 8 9
M  V30 9 1 8 10
M  V30 10 1 10 11
M  V30 11 1 10 12
M  V30 12 2 12 13
M  V30 13 1 13 14
M  V30 14 2 14 15
M  V30 15 1 15 16
M  V30 16 1 16 17
M  V30 17 2 17 18
M  V30 18 1 18 19
M  V30 19 2 19 20
M  V30 20 1 20 21
M  V30 21 1 21 22
M  V30 22 2 21 23
M  V30 23 2 21 24
M  V30 24 1 20 25
M  V30 25 2 25 26
M  V30 26 1 15 27
M  V30 27 2 27 28
M  V30 28 1 28 29
M  V30 29 1 29 30
M  V30 30 1 7 2
M  V30 31 1 28 12
M  V30 32 1 29 5
M  V30 33 1 26 17
M  V30 34 1 1 31
M  V30 35 1 1 32
M  V30 36 1 1 33
M  V30 37 1 3 34
M  V30 38 1 4 35
M  V30 39 1 7 36
M  V30 40 1 11 37
M  V30 41 1 11 38
M  V30 42 1 11 39
M  V30 43 1 13 40
M  V30 44 1 16 41
M  V30 45 1 18 42
M  V30 46 1 19 43
M  V30 47 1 22 44
M  V30 48 1 22 45
M  V30 49 1 25 46
M  V30 50 1 26 47
M  V30 51 1 30 48
M  V30 52 1 30 49
M  V30 53 1 30 50
M  V30 END BOND
M  V30 END CTAB
M  END
>  <Dataset>  (255) 
ChEMBL_Kinases

>  <Ligand_Instance>  (255) 
nan

>  <PDB_ID>  (255) 
nan

>  <Standardized_SMILES>  (255) 
Cc1ccc2c(c1)C(=O)N(C)c1cnc(Nc3ccc(S(N)(=O)=O)cc3)nc1N2C

>  <Name>  (255) 
nan

>  <Pocket>  (255) 
nan

>  <ATP_Site>  (255) 
nan

>  <Peripheral>  (255) 
nan

>  <Num_H_Atoms_ProtBoundConf>  (255) 
nan

>  <Num_Resolved_Atoms>  (255) 
nan

>  <Num_Not_Resolved_Atoms>  (255) 
nan

$$$$
CHEMBL3648088
     RDKit          3D

  0  0  0  0  0  0  0  0  0  0999 V3000
M  V30 BEGIN CTAB
M  V30 COUNTS 59 60 0 0 0
M  V30 BEGIN ATOM
M  V30 1 C 6.056817 -4.665809 1.827609 0
M  V30 2 C 6.324705 -3.724717 0.672698 0
M  V30 3 O 5.232250 -2.814975 0.615140 0
M  V30 4 C 4.901645 -1.970572 1.676358 0
M  V30 5 O 5.781869 -2.285835 2.514320 0
M  V30 6 N 3.765635 -1.167506 1.345808 0
M  V30 7 S 3.596740 0.125162 2.228396 0
M  V30 8 O 4.882833 0.848905 2.070023 0
M  V30 9 C 3.468359 -0.367738 3.934528 0
M  V30 10 C 2.273213 -1.242398 4.179854 0
M  V30 11 C 2.194816 1.020888 1.713485 0
M  V30 12 C 1.119876 0.339459 1.177727 0
M  V30 13 C 0.033965 1.091525 0.784602 0
M  V30 14 C -0.089813 2.459142 0.871520 0
M  V30 15 N -1.206976 3.226018 0.463044 0
M  V30 16 C -2.402926 2.771301 -0.143598 0
M  V30 17 N -3.376047 3.644446 -0.456352 0
M  V30 18 C -4.534996 3.303714 -1.031408 0
M  V30 19 C -4.788867 1.989675 -1.339297 0
M  V30 20 Br -6.411176 1.462458 -2.151647 0
M  V30 21 C -3.818197 1.069607 -1.034590 0
M  V30 22 N -4.048644 -0.296372 -1.337235 0
M  V30 23 C -3.087622 -1.326066 -1.055519 0 CFG=2
M  V30 24 C -1.813882 -1.055062 -1.821107 0
M  V30 25 C -3.565588 -2.699421 -1.383620 0
M  V30 26 C -4.743513 -3.135684 -0.550910 0
M  V30 27 C -3.870545 -2.905694 -2.831947 0
M  V30 28 O -2.517404 -3.588175 -1.052991 0
M  V30 29 N -2.708882 1.509481 -0.467441 0
M  V30 30 C 1.012060 3.084611 1.413234 0
M  V30 31 C 2.130780 2.394419 1.826967 0
M  V30 32 H 6.142953 -5.728441 1.526667 0
M  V30 33 H 6.739918 -4.495496 2.692983 0
M  V30 34 H 5.030112 -4.537506 2.244549 0
M  V30 35 H 7.291632 -3.222040 0.732721 0
M  V30 36 H 6.263936 -4.329230 -0.267987 0
M  V30 37 H 4.414328 -0.849965 4.252728 0
M  V30 38 H 3.353496 0.522209 4.587059 0
M  V30 39 H 2.407942 -1.944167 5.029946 0
M  V30 40 H 2.032303 -1.816073 3.243161 0
M  V30 41 H 1.364927 -0.639982 4.441307 0
M  V30 42 H 1.140434 -0.734842 1.076157 0
M  V30 43 H -0.780597 0.516971 0.374392 0
M  V30 44 H -1.142890 4.260286 0.629879 0
M  V30 45 H -5.281933 4.046662 -1.260868 0
M  V30 46 H -4.925014 -0.606264 -1.776167 0
M  V30 47 H -2.842189 -1.280466 0.034353 0
M  V30 48 H -1.839818 -1.651317 -2.762575 0
M  V30 49 H -1.734051 0.027389 -2.051637 0
M  V30 50 H -0.965227 -1.397299 -1.203837 0
M  V30 51 H -4.526115 -3.045191 0.538521 0
M  V30 52 H -4.911462 -4.207715 -0.770275 0
M  V30 53 H -5.645084 -2.584181 -0.872905 0
M  V30 54 H -2.975950 -3.248522 -3.403865 0
M  V30 55 H -4.354999 -2.012591 -3.279327 0
M  V30 56 H -4.612120 -3.744430 -2.896012 0
M  V30 57 H -2.783281 -4.524878 -1.294599 0
M  V30 58 H 1.039227 4.177972 1.537509 0
M  V30 59 H 2.977909 2.939387 2.250021 0
M  V30 END ATOM
M  V30 BEGIN BOND
M  V30 1 1 1 2
M  V30 2 1 2 3
M  V30 3 1 3 4
M  V30 4 2 4 5
M  V30 5 1 4 6
M  V30 6 2 6 7
M  V30 7 2 7 8
M  V30 8 1 7 9
M  V30 9 1 9 10
M  V30 10 1 7 11
M  V30 11 2 11 12
M  V30 12 1 12 13
M  V30 13 2 13 14
M  V30 14 1 14 15
M  V30 15 1 15 16
M  V30 16 2 16 17
M  V30 17 1 17 18
M  V30 18 2 18 19
M  V30 19 1 19 20
M  V30 20 1 19 21
M  V30 21 1 21 22
M  V30 22 1 22 23
M  V30 23 1 23 24
M  V30 24 1 23 25
M  V30 25 1 25 26
M  V30 26 1 25 27
M  V30 27 1 25 28
M  V30 28 2 21 29
M  V30 29 1 14 30
M  V30 30 2 30 31
M  V30 31 1 31 11
M  V30 32 1 29 16
M  V30 33 1 1 32
M  V30 34 1 1 33
M  V30 35 1 1 34
M  V30 36 1 2 35
M  V30 37 1 2 36
M  V30 38 1 9 37
M  V30 39 1 9 38
M  V30 40 1 10 39
M  V30 41 1 10 40
M  V30 42 1 10 41
M  V30 43 1 12 42
M  V30 44 1 13 43
M  V30 45 1 15 44
M  V30 46 1 18 45
M  V30 47 1 22 46
M  V30 48 1 23 47 CFG=1
M  V30 49 1 24 48
M  V30 50 1 24 49
M  V30 51 1 24 50
M  V30 52 1 26 51
M  V30 53 1 26 52
M  V30 54 1 26 53
M  V30 55 1 27 54
M  V30 56 1 27 55
M  V30 57 1 27 56
M  V30 58 1 28 57
M  V30 59 1 30 58
M  V30 60 1 31 59
M  V30 END BOND
M  V30 END CTAB
M  END
>  <Dataset>  (256) 
ChEMBL_Kinases

>  <Ligand_Instance>  (256) 
nan

>  <PDB_ID>  (256) 
nan

>  <Standardized_SMILES>  (256) 
CCOC(=O)N=S(=O)(CC)c1ccc(Nc2ncc(Br)c(N[C@H](C)C(C)(C)O)n2)cc1

>  <Name>  (256) 
nan

>  <Pocket>  (256) 
nan

>  <ATP_Site>  (256) 
nan

>  <Peripheral>  (256) 
nan

>  <Num_H_Atoms_ProtBoundConf>  (256) 
nan

>  <Num_Resolved_Atoms>  (256) 
nan

>  <Num_Not_Resolved_Atoms>  (256) 
nan

$$$$
CHEMBL3950704
     RDKit          3D

  0  0  0  0  0  0  0  0  0  0999 V3000
M  V30 BEGIN CTAB
M  V30 COUNTS 48 52 0 0 0
M  V30 BEGIN ATOM
M  V30 1 C -1.082957 -4.661578 -0.019138 0
M  V30 2 C 0.350788 -4.626188 0.446794 0 CFG=1
M  V30 3 N 1.189620 -5.557706 -0.238922 0
M  V30 4 C 2.200026 -4.925613 -1.023544 0
M  V30 5 O 3.089011 -5.455932 -1.739463 0
M  V30 6 C 1.975782 -3.500874 -0.812554 0
M  V30 7 C 2.406726 -2.234124 -1.123719 0
M  V30 8 C 1.637485 -1.271726 -0.492348 0
M  V30 9 C 1.885523 0.155284 -0.652987 0
M  V30 10 C 2.896770 0.642285 -1.455015 0
M  V30 11 C 3.151930 1.985178 -1.625375 0
M  V30 12 C 2.377960 2.923941 -0.977105 0
M  V30 13 C 1.361049 2.460584 -0.169749 0
M  V30 14 C 0.606912 3.427051 0.464142 0
M  V30 15 O 0.803839 4.674111 0.337901 0
M  V30 16 N -0.388010 2.991145 1.255598 0
M  V30 17 C -1.210990 3.970139 1.945278 0
M  V30 18 C -0.657728 1.671842 1.438771 0
M  V30 19 N -1.737065 1.323935 2.297379 0
M  V30 20 C -2.176026 0.002828 2.628359 0
M  V30 21 C -1.112553 -0.827953 3.344392 0
M  V30 22 C -3.571632 -0.263079 3.053841 0
M  V30 23 C -3.072135 -0.769852 1.735451 0
M  V30 24 N 0.107866 0.784288 0.797557 0
M  V30 25 C 1.123621 1.111326 -0.013756 0
M  V30 26 N 0.750350 -1.985175 0.192761 0
M  V30 27 C 0.921897 -3.307634 0.025908 0
M  V30 28 H -1.634523 -5.448162 0.526214 0
M  V30 29 H -1.553092 -3.676014 0.229915 0
M  V30 30 H -1.130725 -4.868744 -1.094808 0
M  V30 31 H 0.393201 -4.768468 1.548633 0
M  V30 32 H 1.140563 -6.618727 -0.225119 0
M  V30 33 H 3.258597 -2.051348 -1.793498 0
M  V30 34 H 3.532020 -0.038895 -1.984736 0
M  V30 35 H 3.960171 2.306149 -2.268197 0
M  V30 36 H 2.621651 3.963981 -1.146272 0
M  V30 37 H -2.276257 3.792710 1.669181 0
M  V30 38 H -0.874700 4.985775 1.730503 0
M  V30 39 H -1.130688 3.715082 3.033551 0
M  V30 40 H -2.304272 2.064479 2.763260 0
M  V30 41 H -1.103099 -0.545077 4.423974 0
M  V30 42 H -0.086112 -0.594945 2.980646 0
M  V30 43 H -1.347909 -1.903231 3.252456 0
M  V30 44 H -4.301846 0.569854 3.094820 0
M  V30 45 H -3.778096 -1.015035 3.857724 0
M  V30 46 H -2.934662 -1.870434 1.651509 0
M  V30 47 H -3.542543 -0.337596 0.836112 0
M  V30 48 H 0.008291 -1.565066 0.788400 0
M  V30 END ATOM
M  V30 BEGIN BOND
M  V30 1 1 1 2
M  V30 2 1 2 3
M  V30 3 1 3 4
M  V30 4 2 4 5
M  V30 5 1 4 6
M  V30 6 1 6 7
M  V30 7 2 7 8
M  V30 8 1 8 9
M  V30 9 2 9 10
M  V30 10 1 10 11
M  V30 11 2 11 12
M  V30 12 1 12 13
M  V30 13 1 13 14
M  V30 14 2 14 15
M  V30 15 1 14 16
M  V30 16 1 16 17
M  V30 17 1 16 18
M  V30 18 1 18 19
M  V30 19 1 19 20
M  V30 20 1 20 21
M  V30 21 1 20 22
M  V30 22 1 22 23
M  V30 23 2 18 24
M  V30 24 1 24 25
M  V30 25 1 8 26
M  V30 26 1 26 27
M  V30 27 1 27 2
M  V30 28 2 27 6
M  V30 29 1 25 9
M  V30 30 2 25 13
M  V30 31 1 23 20
M  V30 32 1 1 28
M  V30 33 1 1 29
M  V30 34 1 1 30
M  V30 35 1 2 31 CFG=1
M  V30 36 1 3 32
M  V30 37 1 7 33
M  V30 38 1 10 34
M  V30 39 1 11 35
M  V30 40 1 12 36
M  V30 41 1 17 37
M  V30 42 1 17 38
M  V30 43 1 17 39
M  V30 44 1 19 40
M  V30 45 1 21 41
M  V30 46 1 21 42
M  V30 47 1 21 43
M  V30 48 1 22 44
M  V30 49 1 22 45
M  V30 50 1 23 46
M  V30 51 1 23 47
M  V30 52 1 26 48
M  V30 END BOND
M  V30 END CTAB
M  END
>  <Dataset>  (257) 
ChEMBL_Kinases

>  <Ligand_Instance>  (257) 
nan

>  <PDB_ID>  (257) 
nan

>  <Standardized_SMILES>  (257) 
C[C@H]1NC(=O)c2cc(-c3cccc4c(=O)n(C)c(NC5(C)CC5)nc34)[nH]c21

>  <Name>  (257) 
nan

>  <Pocket>  (257) 
nan

>  <ATP_Site>  (257) 
nan

>  <Peripheral>  (257) 
nan

>  <Num_H_Atoms_ProtBoundConf>  (257) 
nan

>  <Num_Resolved_Atoms>  (257) 
nan

>  <Num_Not_Resolved_Atoms>  (257) 
nan

$$$$
CHEMBL3648089
     RDKit          3D

  0  0  0  0  0  0  0  0  0  0999 V3000
M  V30 BEGIN CTAB
M  V30 COUNTS 56 57 0 0 0
M  V30 BEGIN ATOM
M  V30 1 C 0.524760 1.312108 7.158910 0
M  V30 2 C 1.667006 0.568764 6.489581 0
M  V30 3 O 1.361314 0.550503 5.120150 0
M  V30 4 C 2.160144 -0.047355 4.167567 0
M  V30 5 O 3.062310 -0.461568 4.942121 0
M  V30 6 N 3.130377 -0.716909 3.412577 0
M  V30 7 S 3.828655 0.104175 2.245371 0
M  V30 8 O 3.955577 1.499152 2.727852 0
M  V30 9 C 5.380975 -0.701724 1.961902 0
M  V30 10 C 5.094436 -2.147259 1.601793 0
M  V30 11 C 2.871146 0.011997 0.784898 0
M  V30 12 C 2.016737 -1.057598 0.611680 0
M  V30 13 C 1.218288 -1.219766 -0.509349 0
M  V30 14 C 1.291564 -0.249415 -1.501061 0
M  V30 15 N 0.495479 -0.358555 -2.675773 0
M  V30 16 C -0.358539 -1.492443 -2.726442 0
M  V30 17 N -0.020742 -2.686618 -3.235691 0
M  V30 18 C -0.870987 -3.728965 -3.257678 0
M  V30 19 C -2.124199 -3.597522 -2.753045 0
M  V30 20 Br -3.439374 -4.988064 -2.714185 0
M  V30 21 C -2.501505 -2.368273 -2.218062 0
M  V30 22 N -3.785962 -2.066328 -1.637871 0
M  V30 23 C -4.340336 -0.875697 -1.054107 0 CFG=2
M  V30 24 C -5.730321 -1.198885 -0.523503 0
M  V30 25 C -4.415882 0.294465 -2.022247 0 CFG=2
M  V30 26 C -5.360084 -0.036095 -3.174222 0
M  V30 27 O -3.184390 0.679088 -2.516685 0
M  V30 28 N -1.598127 -1.401345 -2.239805 0
M  V30 29 C 2.150713 0.820450 -1.320663 0
M  V30 30 C 2.961862 0.992684 -0.190016 0
M  V30 31 H 0.265454 2.165411 6.497478 0
M  V30 32 H -0.348324 0.616608 7.103254 0
M  V30 33 H 0.756447 1.652579 8.175488 0
M  V30 34 H 1.621327 -0.472276 6.911685 0
M  V30 35 H 2.638453 1.043165 6.742529 0
M  V30 36 H 5.918179 -0.256624 1.079016 0
M  V30 37 H 6.033613 -0.666049 2.855639 0
M  V30 38 H 6.013451 -2.767151 1.644005 0
M  V30 39 H 4.363376 -2.619313 2.284460 0
M  V30 40 H 4.690739 -2.242616 0.575101 0
M  V30 41 H 1.971646 -1.792472 1.381512 0
M  V30 42 H 0.567459 -2.057392 -0.614486 0
M  V30 43 H 0.579588 0.372561 -3.407494 0
M  V30 44 H -0.625288 -4.699256 -3.661187 0
M  V30 45 H -4.395900 -2.935428 -1.680751 0
M  V30 46 H -3.719543 -0.564340 -0.201401 0
M  V30 47 H -6.220242 -2.026122 -1.101451 0
M  V30 48 H -6.363660 -0.295269 -0.514684 0
M  V30 49 H -5.617408 -1.536468 0.520927 0
M  V30 50 H -4.870444 1.172420 -1.521053 0
M  V30 51 H -6.312377 -0.396650 -2.698280 0
M  V30 52 H -4.889025 -0.814287 -3.783456 0
M  V30 53 H -5.554459 0.892602 -3.721426 0
M  V30 54 H -3.126781 0.587931 -3.503428 0
M  V30 55 H 2.188295 1.559062 -2.105701 0
M  V30 56 H 3.618033 1.840507 -0.087449 0
M  V30 END ATOM
M  V30 BEGIN BOND
M  V30 1 1 1 2
M  V30 2 1 2 3
M  V30 3 1 3 4
M  V30 4 2 4 5
M  V30 5 1 4 6
M  V30 6 2 6 7
M  V30 7 2 7 8
M  V30 8 1 7 9
M  V30 9 1 9 10
M  V30 10 1 7 11
M  V30 11 2 11 12
M  V30 12 1 12 13
M  V30 13 2 13 14
M  V30 14 1 14 15
M  V30 15 1 15 16
M  V30 16 2 16 17
M  V30 17 1 17 18
M  V30 18 2 18 19
M  V30 19 1 19 20
M  V30 20 1 19 21
M  V30 21 1 21 22
M  V30 22 1 22 23
M  V30 23 1 23 24
M  V30 24 1 23 25
M  V30 25 1 25 26
M  V30 26 1 25 27
M  V30 27 2 21 28
M  V30 28 1 14 29
M  V30 29 2 29 30
M  V30 30 1 30 11
M  V30 31 1 28 16
M  V30 32 1 1 31
M  V30 33 1 1 32
M  V30 34 1 1 33
M  V30 35 1 2 34
M  V30 36 1 2 35
M  V30 37 1 9 36
M  V30 38 1 9 37
M  V30 39 1 10 38
M  V30 40 1 10 39
M  V30 41 1 10 40
M  V30 42 1 12 41
M  V30 43 1 13 42
M  V30 44 1 15 43
M  V30 45 1 18 44
M  V30 46 1 22 45
M  V30 47 1 23 46 CFG=1
M  V30 48 1 24 47
M  V30 49 1 24 48
M  V30 50 1 24 49
M  V30 51 1 25 50 CFG=1
M  V30 52 1 26 51
M  V30 53 1 26 52
M  V30 54 1 26 53
M  V30 55 1 27 54
M  V30 56 1 29 55
M  V30 57 1 30 56
M  V30 END BOND
M  V30 END CTAB
M  END
>  <Dataset>  (258) 
ChEMBL_Kinases

>  <Ligand_Instance>  (258) 
nan

>  <PDB_ID>  (258) 
nan

>  <Standardized_SMILES>  (258) 
CCOC(=O)N=S(=O)(CC)c1ccc(Nc2ncc(Br)c(N[C@H](C)[C@H](C)O)n2)cc1

>  <Name>  (258) 
nan

>  <Pocket>  (258) 
nan

>  <ATP_Site>  (258) 
nan

>  <Peripheral>  (258) 
nan

>  <Num_H_Atoms_ProtBoundConf>  (258) 
nan

>  <Num_Resolved_Atoms>  (258) 
nan

>  <Num_Not_Resolved_Atoms>  (258) 
nan

$$$$
CHEMBL3948849
     RDKit          3D

  0  0  0  0  0  0  0  0  0  0999 V3000
M  V30 BEGIN CTAB
M  V30 COUNTS 53 57 0 0 0
M  V30 BEGIN ATOM
M  V30 1 N 4.844506 -1.331093 -1.492681 0
M  V30 2 C 3.791019 -1.126654 -0.539008 0 CFG=1
M  V30 3 C 4.015203 -1.846349 0.747587 0
M  V30 4 C 3.693834 -1.077949 1.983069 0
M  V30 5 C 2.435638 -0.250947 1.901495 0
M  V30 6 C 2.255295 0.395548 0.552846 0 CFG=1
M  V30 7 C 1.720578 1.758346 0.609293 0
M  V30 8 C 2.672286 2.750616 0.597562 0
M  V30 9 C 2.335687 4.082739 0.637334 0
M  V30 10 N 1.018096 4.383580 0.689015 0
M  V30 11 C 0.127078 3.401177 0.699024 0
M  V30 12 C 0.366269 2.052557 0.662412 0
M  V30 13 N -0.605088 1.023266 0.681994 0
M  V30 14 C -2.013532 1.205878 0.722482 0
M  V30 15 N -2.739891 2.330935 0.750034 0
M  V30 16 C -4.032703 2.071324 0.784368 0
M  V30 17 C -4.151611 0.713189 0.778856 0
M  V30 18 C -5.276937 -0.084004 0.805038 0
M  V30 19 C -5.141973 -1.455555 0.792378 0
M  V30 20 C -3.855993 -1.945754 0.753365 0
M  V30 21 C -3.551490 -3.361654 0.735719 0
M  V30 22 C -3.480506 -3.850552 -0.571995 0
M  V30 23 F -3.667143 -3.121848 -1.703783 0
M  V30 24 C -3.200164 -5.183867 -0.831733 0
M  V30 25 C -2.984991 -6.052693 0.237446 0
M  V30 26 C -3.056824 -5.564153 1.509895 0
M  V30 27 C -3.335622 -4.237449 1.774235 0
M  V30 28 F -3.431253 -3.645206 2.990837 0
M  V30 29 N -2.801423 -1.113999 0.729375 0
M  V30 30 N -2.912401 0.205629 0.741030 0
M  V30 31 C 3.593854 0.358143 -0.209733 0
M  V30 32 H 4.501272 -1.791804 -2.348292 0
M  V30 33 H 5.443660 -0.498731 -1.654097 0
M  V30 34 H 2.831327 -1.498219 -0.992521 0
M  V30 35 H 5.122466 -2.066410 0.789129 0
M  V30 36 H 3.551246 -2.874451 0.747613 0
M  V30 37 H 3.551370 -1.789491 2.824446 0
M  V30 38 H 4.539045 -0.420832 2.316716 0
M  V30 39 H 2.515510 0.552547 2.662447 0
M  V30 40 H 1.568840 -0.884819 2.208268 0
M  V30 41 H 1.590259 -0.251436 -0.047368 0
M  V30 42 H 3.733435 2.560932 0.557056 0
M  V30 43 H 3.077836 4.869259 0.628455 0
M  V30 44 H -0.890175 3.754279 0.741633 0
M  V30 45 H -0.248419 0.041643 0.668184 0
M  V30 46 H -4.822932 2.828397 0.811312 0
M  V30 47 H -6.260767 0.361427 0.835346 0
M  V30 48 H -5.987318 -2.137597 0.811506 0
M  V30 49 H -3.133726 -5.612262 -1.816053 0
M  V30 50 H -2.767406 -7.085828 0.049823 0
M  V30 51 H -2.899290 -6.188353 2.390325 0
M  V30 52 H 3.510726 0.987490 -1.102674 0
M  V30 53 H 4.429309 0.647075 0.468589 0
M  V30 END ATOM
M  V30 BEGIN BOND
M  V30 1 1 1 2
M  V30 2 1 2 3
M  V30 3 1 3 4
M  V30 4 1 4 5
M  V30 5 1 5 6
M  V30 6 1 6 7
M  V30 7 2 7 8
M  V30 8 1 8 9
M  V30 9 2 9 10
M  V30 10 1 10 11
M  V30 11 2 11 12
M  V30 12 1 12 13
M  V30 13 1 13 14
M  V30 14 2 14 15
M  V30 15 1 15 16
M  V30 16 2 16 17
M  V30 17 1 17 18
M  V30 18 2 18 19
M  V30 19 1 19 20
M  V30 20 1 20 21
M  V30 21 2 21 22
M  V30 22 1 22 23
M  V30 23 1 22 24
M  V30 24 2 24 25
M  V30 25 1 25 26
M  V30 26 2 26 27
M  V30 27 1 27 28
M  V30 28 2 20 29
M  V30 29 1 29 30
M  V30 30 1 6 31
M  V30 31 1 31 2
M  V30 32 1 12 7
M  V30 33 1 30 14
M  V30 34 1 30 17
M  V30 35 1 27 21
M  V30 36 1 1 32
M  V30 37 1 1 33
M  V30 38 1 2 34 CFG=3
M  V30 39 1 3 35
M  V30 40 1 3 36
M  V30 41 1 4 37
M  V30 42 1 4 38
M  V30 43 1 5 39
M  V30 44 1 5 40
M  V30 45 1 6 41 CFG=3
M  V30 46 1 8 42
M  V30 47 1 9 43
M  V30 48 1 11 44
M  V30 49 1 13 45
M  V30 50 1 16 46
M  V30 51 1 18 47
M  V30 52 1 19 48
M  V30 53 1 24 49
M  V30 54 1 25 50
M  V30 55 1 26 51
M  V30 56 1 31 52
M  V30 57 1 31 53
M  V30 END BOND
M  V30 END CTAB
M  END
>  <Dataset>  (259) 
ChEMBL_Kinases

>  <Ligand_Instance>  (259) 
nan

>  <PDB_ID>  (259) 
nan

>  <Standardized_SMILES>  (259) 
N[C@H]1CCC[C@@H](c2ccncc2Nc2ncc3ccc(-c4c(F)cccc4F)nn23)C1

>  <Name>  (259) 
nan

>  <Pocket>  (259) 
nan

>  <ATP_Site>  (259) 
nan

>  <Peripheral>  (259) 
nan

>  <Num_H_Atoms_ProtBoundConf>  (259) 
nan

>  <Num_Resolved_Atoms>  (259) 
nan

>  <Num_Not_Resolved_Atoms>  (259) 
nan

$$$$
CHEMBL3648091
     RDKit          3D

  0  0  0  0  0  0  0  0  0  0999 V3000
M  V30 BEGIN CTAB
M  V30 COUNTS 56 57 0 0 0
M  V30 BEGIN ATOM
M  V30 1 C 2.512386 -2.289347 7.647919 0
M  V30 2 C 3.640634 -2.202048 6.641064 0
M  V30 3 O 3.077370 -1.695153 5.438020 0
M  V30 4 C 3.803550 -1.480248 4.273903 0
M  V30 5 O 4.765688 -1.903937 4.928683 0
M  V30 6 N 2.845001 -0.955305 3.301847 0
M  V30 7 S 3.621236 -0.318128 2.067736 0
M  V30 8 C 4.757292 0.868001 2.754020 0
M  V30 9 O 4.447237 -1.435636 1.515851 0
M  V30 10 C 2.598413 0.438731 0.921037 0
M  V30 11 C 2.754453 1.770354 0.614480 0
M  V30 12 C 1.974948 2.432459 -0.304577 0
M  V30 13 C 0.977321 1.686955 -0.949469 0
M  V30 14 N 0.179268 2.334524 -1.923251 0
M  V30 15 C -1.015414 1.990221 -2.601322 0
M  V30 16 N -1.595947 2.659005 -3.594797 0
M  V30 17 C -2.722709 2.323458 -4.192928 0
M  V30 18 C -3.358852 1.163286 -3.741264 0
M  V30 19 Br -4.981944 0.821510 -4.726160 0
M  V30 20 C -2.774418 0.431674 -2.693000 0
M  V30 21 N -3.634852 -0.630409 -2.488425 0
M  V30 22 C -4.505045 -1.705026 -2.281125 0 CFG=2
M  V30 23 C -5.169211 -1.678407 -0.906167 0
M  V30 24 C -3.890362 -3.067750 -2.567297 0 CFG=2
M  V30 25 C -4.885408 -4.158208 -2.334438 0
M  V30 26 O -2.799648 -3.261443 -1.740227 0
M  V30 27 N -1.636368 0.901820 -2.197797 0
M  V30 28 C 0.804577 0.333144 -0.650311 0
M  V30 29 C 1.615478 -0.277223 0.281089 0
M  V30 30 C 1.414772 -1.717439 0.589378 0
M  V30 31 H 1.551053 -2.543630 7.127632 0
M  V30 32 H 2.313058 -1.304359 8.126043 0
M  V30 33 H 2.662511 -3.053484 8.426152 0
M  V30 34 H 4.112127 -3.177055 6.547688 0
M  V30 35 H 4.377943 -1.494025 7.074066 0
M  V30 36 H 4.193275 1.683531 3.257537 0
M  V30 37 H 5.264863 0.328310 3.607616 0
M  V30 38 H 5.507922 1.218379 2.038211 0
M  V30 39 H 3.539485 2.336846 1.132490 0
M  V30 40 H 2.095202 3.475697 -0.545699 0
M  V30 41 H 0.501306 3.293692 -2.257355 0
M  V30 42 H -2.992227 3.019908 -4.972116 0
M  V30 43 H -3.049933 -1.045151 -1.689970 0
M  V30 44 H -5.399655 -1.682058 -2.985410 0
M  V30 45 H -5.644174 -2.681447 -0.751248 0
M  V30 46 H -6.009332 -0.955066 -0.898998 0
M  V30 47 H -4.444642 -1.514848 -0.108668 0
M  V30 48 H -3.565720 -3.115191 -3.616250 0
M  V30 49 H -4.743910 -4.955445 -3.081727 0
M  V30 50 H -5.953406 -3.827835 -2.454607 0
M  V30 51 H -4.767780 -4.574096 -1.303096 0
M  V30 52 H -1.986152 -3.013717 -2.249911 0
M  V30 53 H 0.067382 -0.266317 -1.114440 0
M  V30 54 H 2.117465 -2.089556 1.339757 0
M  V30 55 H 1.703714 -2.269027 -0.353976 0
M  V30 56 H 0.353683 -1.979351 0.746654 0
M  V30 END ATOM
M  V30 BEGIN BOND
M  V30 1 1 1 2
M  V30 2 1 2 3
M  V30 3 1 3 4
M  V30 4 2 4 5
M  V30 5 1 4 6
M  V30 6 2 6 7
M  V30 7 1 7 8
M  V30 8 2 7 9
M  V30 9 1 7 10
M  V30 10 2 10 11
M  V30 11 1 11 12
M  V30 12 2 12 13
M  V30 13 1 13 14
M  V30 14 1 14 15
M  V30 15 2 15 16
M  V30 16 1 16 17
M  V30 17 2 17 18
M  V30 18 1 18 19
M  V30 19 1 18 20
M  V30 20 1 20 21
M  V30 21 1 21 22
M  V30 22 1 22 23
M  V30 23 1 22 24
M  V30 24 1 24 25
M  V30 25 1 24 26
M  V30 26 2 20 27
M  V30 27 1 13 28
M  V30 28 2 28 29
M  V30 29 1 29 30
M  V30 30 1 29 10
M  V30 31 1 27 15
M  V30 32 1 1 31
M  V30 33 1 1 32
M  V30 34 1 1 33
M  V30 35 1 2 34
M  V30 36 1 2 35
M  V30 37 1 8 36
M  V30 38 1 8 37
M  V30 39 1 8 38
M  V30 40 1 11 39
M  V30 41 1 12 40
M  V30 42 1 14 41
M  V30 43 1 17 42
M  V30 44 1 21 43
M  V30 45 1 22 44 CFG=3
M  V30 46 1 23 45
M  V30 47 1 23 46
M  V30 48 1 23 47
M  V30 49 1 24 48 CFG=3
M  V30 50 1 25 49
M  V30 51 1 25 50
M  V30 52 1 25 51
M  V30 53 1 26 52
M  V30 54 1 28 53
M  V30 55 1 30 54
M  V30 56 1 30 55
M  V30 57 1 30 56
M  V30 END BOND
M  V30 END CTAB
M  END
>  <Dataset>  (260) 
ChEMBL_Kinases

>  <Ligand_Instance>  (260) 
nan

>  <PDB_ID>  (260) 
nan

>  <Standardized_SMILES>  (260) 
CCOC(=O)N=S(C)(=O)c1ccc(Nc2ncc(Br)c(N[C@H](C)[C@H](C)O)n2)cc1C

>  <Name>  (260) 
nan

>  <Pocket>  (260) 
nan

>  <ATP_Site>  (260) 
nan

>  <Peripheral>  (260) 
nan

>  <Num_H_Atoms_ProtBoundConf>  (260) 
nan

>  <Num_Resolved_Atoms>  (260) 
nan

>  <Num_Not_Resolved_Atoms>  (260) 
nan

$$$$
CHEMBL3951271
     RDKit          3D

  0  0  0  0  0  0  0  0  0  0999 V3000
M  V30 BEGIN CTAB
M  V30 COUNTS 44 46 0 0 0
M  V30 BEGIN ATOM
M  V30 1 C 0.108413 -5.063262 -4.114281 0
M  V30 2 O -0.025072 -3.685116 -3.769537 0
M  V30 3 C -1.112655 -3.274136 -2.980857 0
M  V30 4 C -2.082730 -4.148309 -2.509360 0
M  V30 5 C -3.109210 -3.646434 -1.743418 0
M  V30 6 C -3.104030 -2.291017 -1.493103 0
M  V30 7 C -2.163723 -1.378790 -1.937940 0
M  V30 8 C -2.325277 0.053140 -1.567909 0
M  V30 9 N -1.678670 0.373840 -0.293307 0
M  V30 10 C -0.286394 0.553543 -0.091418 0
M  V30 11 O 0.449083 0.426824 -1.092455 0
M  V30 12 C 0.294188 0.871555 1.206829 0
M  V30 13 C -0.386354 1.050160 2.373731 0
M  V30 14 C 0.210784 1.350049 3.580296 0
M  V30 15 C 1.590244 1.482356 3.629711 0
M  V30 16 C 2.145049 1.804101 4.961622 0
M  V30 17 C 3.112716 2.759588 5.198665 0
M  V30 18 N 3.324664 2.724461 6.538365 0
M  V30 19 N 2.543556 1.811989 7.091918 0
M  V30 20 C 1.789584 1.210271 6.154990 0
M  V30 21 C 2.328344 1.311987 2.479478 0
M  V30 22 O 3.680581 1.458150 2.610613 0
M  V30 23 C 4.656715 1.340038 1.618651 0
M  V30 24 C 1.667127 1.014340 1.311160 0
M  V30 25 C -1.147257 -1.911240 -2.703145 0
M  V30 26 H -0.872041 -5.419846 -4.453786 0
M  V30 27 H 0.331097 -5.565999 -3.126874 0
M  V30 28 H 0.926542 -5.165012 -4.831072 0
M  V30 29 H -2.000129 -5.186465 -2.757823 0
M  V30 30 H -3.882290 -4.297260 -1.359219 0
M  V30 31 H -3.944806 -1.947481 -0.878452 0
M  V30 32 H -3.411672 0.233195 -1.436335 0
M  V30 33 H -1.941903 0.721506 -2.377225 0
M  V30 34 H -2.270053 0.487858 0.572618 0
M  V30 35 H -1.462100 0.953070 2.364360 0
M  V30 36 H -0.416183 1.476146 4.468354 0
M  V30 37 H 3.604563 3.403594 4.485319 0
M  V30 38 H 2.507903 1.580832 8.117170 0
M  V30 39 H 1.042749 0.423644 6.231488 0
M  V30 40 H 5.039527 2.289472 1.213345 0
M  V30 41 H 5.548312 0.800816 2.057478 0
M  V30 42 H 4.256780 0.707579 0.793873 0
M  V30 43 H 2.263972 0.882725 0.405768 0
M  V30 44 H -0.402061 -1.247282 -3.070700 0
M  V30 END ATOM
M  V30 BEGIN BOND
M  V30 1 1 1 2
M  V30 2 1 2 3
M  V30 3 2 3 4
M  V30 4 1 4 5
M  V30 5 2 5 6
M  V30 6 1 6 7
M  V30 7 1 7 8
M  V30 8 1 8 9
M  V30 9 1 9 10
M  V30 10 2 10 11
M  V30 11 1 10 12
M  V30 12 2 12 13
M  V30 13 1 13 14
M  V30 14 2 14 15
M  V30 15 1 15 16
M  V30 16 1 16 17
M  V30 17 2 17 18
M  V30 18 1 18 19
M  V30 19 1 19 20
M  V30 20 1 15 21
M  V30 21 1 21 22
M  V30 22 1 22 23
M  V30 23 2 21 24
M  V30 24 2 7 25
M  V30 25 1 25 3
M  V30 26 1 24 12
M  V30 27 2 20 16
M  V30 28 1 1 26
M  V30 29 1 1 27
M  V30 30 1 1 28
M  V30 31 1 4 29
M  V30 32 1 5 30
M  V30 33 1 6 31
M  V30 34 1 8 32
M  V30 35 1 8 33
M  V30 36 1 9 34
M  V30 37 1 13 35
M  V30 38 1 14 36
M  V30 39 1 17 37
M  V30 40 1 19 38
M  V30 41 1 20 39
M  V30 42 1 23 40
M  V30 43 1 23 41
M  V30 44 1 23 42
M  V30 45 1 24 43
M  V30 46 1 25 44
M  V30 END BOND
M  V30 END CTAB
M  END
>  <Dataset>  (261) 
ChEMBL_Kinases

>  <Ligand_Instance>  (261) 
nan

>  <PDB_ID>  (261) 
nan

>  <Standardized_SMILES>  (261) 
COc1cccc(CNC(=O)c2ccc(-c3cn[nH]c3)c(OC)c2)c1

>  <Name>  (261) 
nan

>  <Pocket>  (261) 
nan

>  <ATP_Site>  (261) 
nan

>  <Peripheral>  (261) 
nan

>  <Num_H_Atoms_ProtBoundConf>  (261) 
nan

>  <Num_Resolved_Atoms>  (261) 
nan

>  <Num_Not_Resolved_Atoms>  (261) 
nan

$$$$
CHEMBL3648092
     RDKit          3D

  0  0  0  0  0  0  0  0  0  0999 V3000
M  V30 BEGIN CTAB
M  V30 COUNTS 55 56 0 0 0
M  V30 BEGIN ATOM
M  V30 1 C 0.047628 -1.819409 4.572711 0
M  V30 2 C 1.404347 -1.191354 4.844829 0
M  V30 3 O 2.215392 -1.420239 3.724565 0
M  V30 4 C 3.530916 -0.981201 3.627249 0
M  V30 5 O 4.068129 -0.334546 4.579802 0
M  V30 6 N 4.197939 -1.308948 2.409229 0
M  V30 7 S 4.522181 -0.068576 1.491389 0
M  V30 8 O 5.229491 0.909755 2.384313 0
M  V30 9 C 5.590436 -0.575946 0.189211 0
M  V30 10 C 5.000000 -1.615786 -0.703224 0
M  V30 11 C 3.032926 0.612950 0.967771 0
M  V30 12 C 2.982808 1.973457 0.760595 0
M  V30 13 C 1.829967 2.592065 0.342085 0
M  V30 14 C 0.638887 1.901609 0.098107 0
M  V30 15 N -0.529076 2.566575 -0.331063 0
M  V30 16 C -1.804206 1.997773 -0.620100 0
M  V30 17 N -2.772002 2.817253 -1.011249 0
M  V30 18 C -4.019842 2.448283 -1.320081 0
M  V30 19 C -4.272277 1.119842 -1.210629 0
M  V30 20 Br -5.993654 0.416745 -1.609932 0
M  V30 21 C -3.346730 0.183293 -0.815618 0
M  V30 22 O -3.307688 -1.142720 -0.622577 0
M  V30 23 C -4.153266 -2.203137 -0.720657 0 CFG=2
M  V30 24 C -4.226874 -2.844972 0.681828 0
M  V30 25 C -3.629224 -3.315548 -1.633812 0 CFG=2
M  V30 26 C -3.293843 -2.760827 -2.995471 0
M  V30 27 O -4.544873 -4.352089 -1.678349 0
M  V30 28 N -2.139245 0.712062 -0.540295 0
M  V30 29 C 0.753878 0.546124 0.323184 0
M  V30 30 C 1.877834 -0.103923 0.737875 0
M  V30 31 H 0.055572 -2.407151 3.627690 0
M  V30 32 H -0.718105 -1.017017 4.480997 0
M  V30 33 H -0.233830 -2.554406 5.373085 0
M  V30 34 H 1.256541 -0.107499 5.076123 0
M  V30 35 H 1.871611 -1.607295 5.770418 0
M  V30 36 H 5.947408 0.322337 -0.379108 0
M  V30 37 H 6.497181 -1.003393 0.666254 0
M  V30 38 H 5.766138 -2.295166 -1.150208 0
M  V30 39 H 4.603982 -1.056002 -1.601646 0
M  V30 40 H 4.239962 -2.240777 -0.237822 0
M  V30 41 H 3.857657 2.585428 0.924860 0
M  V30 42 H 1.844451 3.668914 0.193502 0
M  V30 43 H -0.413784 3.602641 -0.441460 0
M  V30 44 H -4.811597 3.104206 -1.638149 0
M  V30 45 H -5.156406 -1.915791 -1.049722 0
M  V30 46 H -4.426926 -3.913010 0.573579 0
M  V30 47 H -5.070048 -2.358758 1.233215 0
M  V30 48 H -3.276171 -2.662308 1.201586 0
M  V30 49 H -2.682023 -3.690185 -1.187714 0
M  V30 50 H -2.386923 -3.294684 -3.387593 0
M  V30 51 H -3.102322 -1.664988 -2.891935 0
M  V30 52 H -4.176695 -2.961666 -3.643832 0
M  V30 53 H -4.292229 -4.974178 -2.407598 0
M  V30 54 H -0.079144 -0.095011 0.174924 0
M  V30 55 H 1.940825 -1.163740 0.906112 0
M  V30 END ATOM
M  V30 BEGIN BOND
M  V30 1 1 1 2
M  V30 2 1 2 3
M  V30 3 1 3 4
M  V30 4 2 4 5
M  V30 5 1 4 6
M  V30 6 2 6 7
M  V30 7 2 7 8
M  V30 8 1 7 9
M  V30 9 1 9 10
M  V30 10 1 7 11
M  V30 11 2 11 12
M  V30 12 1 12 13
M  V30 13 2 13 14
M  V30 14 1 14 15
M  V30 15 1 15 16
M  V30 16 2 16 17
M  V30 17 1 17 18
M  V30 18 2 18 19
M  V30 19 1 19 20
M  V30 20 1 19 21
M  V30 21 1 21 22
M  V30 22 1 22 23
M  V30 23 1 23 24
M  V30 24 1 23 25
M  V30 25 1 25 26
M  V30 26 1 25 27
M  V30 27 2 21 28
M  V30 28 1 14 29
M  V30 29 2 29 30
M  V30 30 1 30 11
M  V30 31 1 28 16
M  V30 32 1 1 31
M  V30 33 1 1 32
M  V30 34 1 1 33
M  V30 35 1 2 34
M  V30 36 1 2 35
M  V30 37 1 9 36
M  V30 38 1 9 37
M  V30 39 1 10 38
M  V30 40 1 10 39
M  V30 41 1 10 40
M  V30 42 1 12 41
M  V30 43 1 13 42
M  V30 44 1 15 43
M  V30 45 1 18 44
M  V30 46 1 23 45 CFG=3
M  V30 47 1 24 46
M  V30 48 1 24 47
M  V30 49 1 24 48
M  V30 50 1 25 49 CFG=1
M  V30 51 1 26 50
M  V30 52 1 26 51
M  V30 53 1 26 52
M  V30 54 1 27 53
M  V30 55 1 29 54
M  V30 56 1 30 55
M  V30 END BOND
M  V30 END CTAB
M  END
>  <Dataset>  (262) 
ChEMBL_Kinases

>  <Ligand_Instance>  (262) 
nan

>  <PDB_ID>  (262) 
nan

>  <Standardized_SMILES>  (262) 
CCOC(=O)N=S(=O)(CC)c1ccc(Nc2ncc(Br)c(O[C@H](C)[C@H](C)O)n2)cc1

>  <Name>  (262) 
nan

>  <Pocket>  (262) 
nan

>  <ATP_Site>  (262) 
nan

>  <Peripheral>  (262) 
nan

>  <Num_H_Atoms_ProtBoundConf>  (262) 
nan

>  <Num_Resolved_Atoms>  (262) 
nan

>  <Num_Not_Resolved_Atoms>  (262) 
nan

$$$$
CHEMBL3648093
     RDKit          3D

  0  0  0  0  0  0  0  0  0  0999 V3000
M  V30 BEGIN CTAB
M  V30 COUNTS 52 53 0 0 0
M  V30 BEGIN ATOM
M  V30 1 C 0.979030 -5.410571 1.657101 0
M  V30 2 C 1.916449 -5.057323 0.505080 0
M  V30 3 O 2.757594 -3.967778 0.892366 0
M  V30 4 C 3.715648 -3.408303 0.079294 0
M  V30 5 O 3.730075 -4.002325 -1.043024 0
M  V30 6 N 4.361997 -2.340820 0.801753 0
M  V30 7 S 4.769755 -1.010032 0.067796 0
M  V30 8 C 6.125605 -0.253452 0.929151 0
M  V30 9 O 5.264209 -1.446009 -1.294280 0
M  V30 10 C 3.417837 0.084273 -0.037075 0
M  V30 11 C 3.269730 0.968843 -1.082787 0
M  V30 12 C 2.193616 1.828644 -1.156105 0
M  V30 13 C 1.281567 1.734417 -0.106106 0
M  V30 14 N 0.138813 2.585781 -0.104169 0
M  V30 15 C -0.874561 2.586875 0.894043 0
M  V30 16 N -0.957309 3.323078 2.042363 0
M  V30 17 C -2.027751 3.165674 2.867786 0
M  V30 18 C -3.052923 2.261040 2.566008 0
M  V30 19 Br -4.527439 2.088028 3.764987 0
M  V30 20 C -2.934577 1.535357 1.398013 0
M  V30 21 O -3.953518 0.617952 1.072096 0
M  V30 22 C -3.898474 -0.157319 -0.103424 0 CFG=2
M  V30 23 C -5.071762 0.060095 -1.028144 0
M  V30 24 C -3.797479 -1.605596 0.301470 0 CFG=2
M  V30 25 C -4.998695 -2.039487 1.124834 0
M  V30 26 O -2.651161 -1.823219 1.062930 0
M  V30 27 N -1.860585 1.715639 0.602028 0
M  V30 28 C 1.405546 0.859494 0.951252 0
M  V30 29 C 2.488213 0.011392 1.002198 0
M  V30 30 H 1.543330 -5.238494 2.597524 0
M  V30 31 H 0.071504 -4.792864 1.680809 0
M  V30 32 H 0.649039 -6.463311 1.572801 0
M  V30 33 H 2.531903 -5.979223 0.337922 0
M  V30 34 H 1.370862 -4.867600 -0.429815 0
M  V30 35 H 5.769066 0.500702 1.647028 0
M  V30 36 H 6.700430 -1.009092 1.519562 0
M  V30 37 H 6.851601 0.177325 0.208038 0
M  V30 38 H 4.020197 0.991377 -1.871860 0
M  V30 39 H 2.046624 2.527548 -1.952195 0
M  V30 40 H -0.073209 3.296366 -0.833856 0
M  V30 41 H -2.024528 3.780850 3.755531 0
M  V30 42 H -2.972307 0.108491 -0.638979 0
M  V30 43 H -4.946812 -0.695760 -1.845014 0
M  V30 44 H -5.032652 1.049313 -1.525268 0
M  V30 45 H -6.043924 -0.055669 -0.545862 0
M  V30 46 H -3.746689 -2.301165 -0.563180 0
M  V30 47 H -5.239418 -1.327547 1.941996 0
M  V30 48 H -5.892197 -2.174321 0.489972 0
M  V30 49 H -4.792215 -3.007678 1.624060 0
M  V30 50 H -1.837988 -1.498305 0.597455 0
M  V30 51 H 0.655083 0.834453 1.744568 0
M  V30 52 H 2.547191 -0.656287 1.845017 0
M  V30 END ATOM
M  V30 BEGIN BOND
M  V30 1 1 1 2
M  V30 2 1 2 3
M  V30 3 1 3 4
M  V30 4 2 4 5
M  V30 5 1 4 6
M  V30 6 2 6 7
M  V30 7 1 7 8
M  V30 8 2 7 9
M  V30 9 1 7 10
M  V30 10 2 10 11
M  V30 11 1 11 12
M  V30 12 2 12 13
M  V30 13 1 13 14
M  V30 14 1 14 15
M  V30 15 2 15 16
M  V30 16 1 16 17
M  V30 17 2 17 18
M  V30 18 1 18 19
M  V30 19 1 18 20
M  V30 20 1 20 21
M  V30 21 1 21 22
M  V30 22 1 22 23
M  V30 23 1 22 24
M  V30 24 1 24 25
M  V30 25 1 24 26
M  V30 26 2 20 27
M  V30 27 1 13 28
M  V30 28 2 28 29
M  V30 29 1 29 10
M  V30 30 1 27 15
M  V30 31 1 1 30
M  V30 32 1 1 31
M  V30 33 1 1 32
M  V30 34 1 2 33
M  V30 35 1 2 34
M  V30 36 1 8 35
M  V30 37 1 8 36
M  V30 38 1 8 37
M  V30 39 1 11 38
M  V30 40 1 12 39
M  V30 41 1 14 40
M  V30 42 1 17 41
M  V30 43 1 22 42 CFG=3
M  V30 44 1 23 43
M  V30 45 1 23 44
M  V30 46 1 23 45
M  V30 47 1 24 46 CFG=3
M  V30 48 1 25 47
M  V30 49 1 25 48
M  V30 50 1 25 49
M  V30 51 1 26 50
M  V30 52 1 28 51
M  V30 53 1 29 52
M  V30 END BOND
M  V30 END CTAB
M  END
>  <Dataset>  (263) 
ChEMBL_Kinases

>  <Ligand_Instance>  (263) 
nan

>  <PDB_ID>  (263) 
nan

>  <Standardized_SMILES>  (263) 
CCOC(=O)N=S(C)(=O)c1ccc(Nc2ncc(Br)c(O[C@H](C)[C@H](C)O)n2)cc1

>  <Name>  (263) 
nan

>  <Pocket>  (263) 
nan

>  <ATP_Site>  (263) 
nan

>  <Peripheral>  (263) 
nan

>  <Num_H_Atoms_ProtBoundConf>  (263) 
nan

>  <Num_Resolved_Atoms>  (263) 
nan

>  <Num_Not_Resolved_Atoms>  (263) 
nan

$$$$
CHEMBL3648094
     RDKit          3D

  0  0  0  0  0  0  0  0  0  0999 V3000
M  V30 BEGIN CTAB
M  V30 COUNTS 51 52 0 0 0
M  V30 BEGIN ATOM
M  V30 1 C 3.975419 -5.502160 4.751482 0
M  V30 2 C 3.937860 -4.718701 3.425902 0
M  V30 3 S 3.162720 -3.186241 3.801140 0
M  V30 4 N 1.743190 -3.453382 4.452169 0
M  V30 5 O 3.929090 -2.446914 4.852062 0
M  V30 6 C 2.988474 -2.116000 2.434132 0
M  V30 7 C 4.060978 -1.433900 1.897470 0
M  V30 8 C 3.808116 -0.565145 0.852175 0
M  V30 9 C 2.559731 -0.313793 0.287576 0
M  V30 10 N 2.424228 0.619501 -0.803809 0
M  V30 11 C 1.170050 1.306346 -0.786628 0
M  V30 12 N 1.434926 2.607889 -0.948171 0
M  V30 13 C 0.562170 3.607888 -0.976871 0
M  V30 14 C -0.746357 3.291850 -0.825962 0
M  V30 15 Br -2.169647 4.566106 -0.836972 0
M  V30 16 C -1.085208 1.971958 -0.655933 0
M  V30 17 N -2.390147 1.470710 -0.439145 0
M  V30 18 C -2.725409 0.076490 -0.295635 0 CFG=2
M  V30 19 C -2.469439 -0.732014 -1.525212 0
M  V30 20 O -3.123674 -0.394908 -2.658990 0
M  V30 21 C -2.936048 0.800047 -3.250706 0
M  V30 22 C -4.086133 -0.123753 0.298020 0 CFG=2
M  V30 23 C -5.202997 0.486458 -0.490038 0
M  V30 24 O -4.077162 0.478375 1.560410 0
M  V30 25 N -0.125449 1.052793 -0.645416 0
M  V30 26 C 1.531130 -1.022094 0.862141 0
M  V30 27 C 1.704910 -1.909089 1.909111 0
M  V30 28 H 4.881003 -5.194727 5.297306 0
M  V30 29 H 3.101562 -5.183950 5.378567 0
M  V30 30 H 3.971762 -6.576760 4.545896 0
M  V30 31 H 3.434887 -5.351018 2.702797 0
M  V30 32 H 5.006335 -4.499300 3.133685 0
M  V30 33 H 1.385992 -2.692414 5.044830 0
M  V30 34 H 5.067253 -1.575964 2.286522 0
M  V30 35 H 4.701231 -0.050405 0.467322 0
M  V30 36 H 3.150736 0.765173 -1.528528 0
M  V30 37 H 0.714091 4.679665 -1.103585 0
M  V30 38 H -3.119600 2.245470 -0.374233 0
M  V30 39 H -1.991275 -0.311168 0.475769 0
M  V30 40 H -2.764901 -1.786470 -1.273456 0
M  V30 41 H -1.356220 -0.785158 -1.666083 0
M  V30 42 H -3.212899 1.653476 -2.620932 0
M  V30 43 H -1.881033 0.939501 -3.638082 0
M  V30 44 H -3.637151 0.870919 -4.137473 0
M  V30 45 H -4.266730 -1.200058 0.462630 0
M  V30 46 H -6.159689 0.108205 -0.019866 0
M  V30 47 H -5.240157 1.591105 -0.403088 0
M  V30 48 H -5.207599 0.200693 -1.552774 0
M  V30 49 H -3.558837 -0.078148 2.217948 0
M  V30 50 H 0.535719 -0.889633 0.486696 0
M  V30 51 H 0.837903 -2.424056 2.298489 0
M  V30 END ATOM
M  V30 BEGIN BOND
M  V30 1 1 1 2
M  V30 2 1 2 3
M  V30 3 2 3 4
M  V30 4 2 3 5
M  V30 5 1 3 6
M  V30 6 2 6 7
M  V30 7 1 7 8
M  V30 8 2 8 9
M  V30 9 1 9 10
M  V30 10 1 10 11
M  V30 11 2 11 12
M  V30 12 1 12 13
M  V30 13 2 13 14
M  V30 14 1 14 15
M  V30 15 1 14 16
M  V30 16 1 16 17
M  V30 17 1 17 18
M  V30 18 1 18 19
M  V30 19 1 19 20
M  V30 20 1 20 21
M  V30 21 1 18 22
M  V30 22 1 22 23
M  V30 23 1 22 24
M  V30 24 2 16 25
M  V30 25 1 9 26
M  V30 26 2 26 27
M  V30 27 1 27 6
M  V30 28 1 25 11
M  V30 29 1 1 28
M  V30 30 1 1 29
M  V30 31 1 1 30
M  V30 32 1 2 31
M  V30 33 1 2 32
M  V30 34 1 4 33
M  V30 35 1 7 34
M  V30 36 1 8 35
M  V30 37 1 10 36
M  V30 38 1 13 37
M  V30 39 1 17 38
M  V30 40 1 18 39 CFG=1
M  V30 41 1 19 40
M  V30 42 1 19 41
M  V30 43 1 21 42
M  V30 44 1 21 43
M  V30 45 1 21 44
M  V30 46 1 22 45 CFG=1
M  V30 47 1 23 46
M  V30 48 1 23 47
M  V30 49 1 23 48
M  V30 50 1 24 49
M  V30 51 1 26 50
M  V30 52 1 27 51
M  V30 END BOND
M  V30 END CTAB
M  END
>  <Dataset>  (264) 
ChEMBL_Kinases

>  <Ligand_Instance>  (264) 
nan

>  <PDB_ID>  (264) 
nan

>  <Standardized_SMILES>  (264) 
CCS(=N)(=O)c1ccc(Nc2ncc(Br)c(N[C@H](COC)[C@H](C)O)n2)cc1

>  <Name>  (264) 
nan

>  <Pocket>  (264) 
nan

>  <ATP_Site>  (264) 
nan

>  <Peripheral>  (264) 
nan

>  <Num_H_Atoms_ProtBoundConf>  (264) 
nan

>  <Num_Resolved_Atoms>  (264) 
nan

>  <Num_Not_Resolved_Atoms>  (264) 
nan

$$$$
CHEMBL3648095
     RDKit          3D

  0  0  0  0  0  0  0  0  0  0999 V3000
M  V30 BEGIN CTAB
M  V30 COUNTS 47 48 0 0 0
M  V30 BEGIN ATOM
M  V30 1 C -1.108956 -6.054360 -0.484952 0
M  V30 2 C -0.135833 -5.981390 0.641956 0
M  V30 3 S 1.384338 -5.186536 0.198435 0
M  V30 4 N 2.158373 -5.987158 -0.880671 0
M  V30 5 O 2.259607 -5.168506 1.423493 0
M  V30 6 C 1.057048 -3.550252 -0.322846 0
M  V30 7 C 0.795275 -3.370614 -1.674006 0
M  V30 8 C 0.521675 -2.140633 -2.229425 0
M  V30 9 C 0.495002 -0.993216 -1.441225 0
M  V30 10 N 0.248761 0.334066 -1.862140 0
M  V30 11 C -0.041249 1.557773 -1.205425 0
M  V30 12 N -0.069172 2.611764 -2.001517 0
M  V30 13 C -0.336481 3.841398 -1.575850 0
M  V30 14 C -0.588382 3.968105 -0.238366 0
M  V30 15 Br -0.968068 5.765040 0.315178 0
M  V30 16 C -0.577381 2.900208 0.664655 0
M  V30 17 N -0.853943 3.186038 2.017022 0
M  V30 18 C -0.996410 2.621299 3.302782 0 CFG=2
M  V30 19 C -1.173559 3.619923 4.426936 0
M  V30 20 C -0.067080 1.511059 3.678300 0 CFG=2
M  V30 21 C 1.392270 1.897243 3.552952 0
M  V30 22 O -0.283247 0.459473 2.809722 0
M  V30 23 N -0.292850 1.712851 0.102503 0
M  V30 24 C 0.761211 -1.221371 -0.107976 0
M  V30 25 C 1.038350 -2.434560 0.484707 0
M  V30 26 H -0.758934 -5.710624 -1.458011 0
M  V30 27 H -1.498950 -7.094137 -0.555217 0
M  V30 28 H -1.965863 -5.373188 -0.207242 0
M  V30 29 H -0.527891 -5.430220 1.525552 0
M  V30 30 H 0.111754 -7.000892 0.992490 0
M  V30 31 H 3.160437 -5.780490 -0.997480 0
M  V30 32 H 0.779125 -4.163488 -2.426642 0
M  V30 33 H 0.314626 -1.985672 -3.282832 0
M  V30 34 H 0.316923 0.316474 -2.922791 0
M  V30 35 H -0.348013 4.674229 -2.260713 0
M  V30 36 H -1.041155 4.217642 2.210295 0
M  V30 37 H -2.026061 2.096832 3.267743 0
M  V30 38 H -2.047796 4.276486 4.252522 0
M  V30 39 H -0.262044 4.285020 4.486429 0
M  V30 40 H -1.289890 3.143187 5.398165 0
M  V30 41 H -0.289420 1.154114 4.689795 0
M  V30 42 H 1.958475 0.963523 3.770212 0
M  V30 43 H 1.726321 2.658729 4.255686 0
M  V30 44 H 1.569396 2.220270 2.502850 0
M  V30 45 H 0.080724 -0.356613 3.228002 0
M  V30 46 H 0.767973 -0.364482 0.540209 0
M  V30 47 H 1.241051 -2.588617 1.518331 0
M  V30 END ATOM
M  V30 BEGIN BOND
M  V30 1 1 1 2
M  V30 2 1 2 3
M  V30 3 2 3 4
M  V30 4 2 3 5
M  V30 5 1 3 6
M  V30 6 2 6 7
M  V30 7 1 7 8
M  V30 8 2 8 9
M  V30 9 1 9 10
M  V30 10 1 10 11
M  V30 11 2 11 12
M  V30 12 1 12 13
M  V30 13 2 13 14
M  V30 14 1 14 15
M  V30 15 1 14 16
M  V30 16 1 16 17
M  V30 17 1 17 18
M  V30 18 1 18 19
M  V30 19 1 18 20
M  V30 20 1 20 21
M  V30 21 1 20 22
M  V30 22 2 16 23
M  V30 23 1 9 24
M  V30 24 2 24 25
M  V30 25 1 25 6
M  V30 26 1 23 11
M  V30 27 1 1 26
M  V30 28 1 1 27
M  V30 29 1 1 28
M  V30 30 1 2 29
M  V30 31 1 2 30
M  V30 32 1 4 31
M  V30 33 1 7 32
M  V30 34 1 8 33
M  V30 35 1 10 34
M  V30 36 1 13 35
M  V30 37 1 17 36
M  V30 38 1 18 37 CFG=3
M  V30 39 1 19 38
M  V30 40 1 19 39
M  V30 41 1 19 40
M  V30 42 1 20 41 CFG=1
M  V30 43 1 21 42
M  V30 44 1 21 43
M  V30 45 1 21 44
M  V30 46 1 22 45
M  V30 47 1 24 46
M  V30 48 1 25 47
M  V30 END BOND
M  V30 END CTAB
M  END
>  <Dataset>  (265) 
ChEMBL_Kinases

>  <Ligand_Instance>  (265) 
nan

>  <PDB_ID>  (265) 
nan

>  <Standardized_SMILES>  (265) 
CCS(=N)(=O)c1ccc(Nc2ncc(Br)c(N[C@H](C)[C@H](C)O)n2)cc1

>  <Name>  (265) 
nan

>  <Pocket>  (265) 
nan

>  <ATP_Site>  (265) 
nan

>  <Peripheral>  (265) 
nan

>  <Num_H_Atoms_ProtBoundConf>  (265) 
nan

>  <Num_Resolved_Atoms>  (265) 
nan

>  <Num_Not_Resolved_Atoms>  (265) 
nan

$$$$
CHEMBL3648096
     RDKit          3D

  0  0  0  0  0  0  0  0  0  0999 V3000
M  V30 BEGIN CTAB
M  V30 COUNTS 47 48 0 0 0
M  V30 BEGIN ATOM
M  V30 1 C -0.870847 -4.868749 3.033624 0
M  V30 2 C -0.737620 -3.724335 2.064978 0
M  V30 3 C 0.502321 -3.355049 1.596337 0
M  V30 4 C 0.628408 -2.303437 0.704242 0
M  V30 5 N 1.877554 -1.871509 0.176133 0
M  V30 6 C 1.874017 -0.780388 -0.734638 0
M  V30 7 N 1.691173 -1.130096 -2.026858 0
M  V30 8 C 1.665475 -0.181911 -3.006621 0
M  V30 9 C 1.832075 1.128445 -2.624833 0
M  V30 10 Br 1.798771 2.476292 -3.988913 0
M  V30 11 C 2.024371 1.532047 -1.297888 0
M  V30 12 N 2.199140 2.887805 -0.909064 0
M  V30 13 C 2.400986 3.408226 0.396572 0 CFG=2
M  V30 14 C 3.639720 2.768915 0.992465 0
M  V30 15 C 1.251118 3.392098 1.330623 0 CFG=2
M  V30 16 C 0.769345 2.066586 1.799207 0
M  V30 17 O 0.165952 4.121074 0.846318 0
M  V30 18 N 2.026061 0.500783 -0.455777 0
M  V30 19 C -0.566601 -1.684061 0.344130 0
M  V30 20 C -1.817160 -2.039107 0.802472 0
M  V30 21 C -1.908796 -3.098139 1.695915 0
M  V30 22 S -3.472339 -3.572312 2.292121 0
M  V30 23 C -4.742850 -2.528972 1.587676 0
M  V30 24 N -3.584064 -3.401029 3.840072 0
M  V30 25 O -3.789252 -5.004535 2.005723 0
M  V30 26 H -1.559982 -5.643646 2.616490 0
M  V30 27 H 0.102247 -5.358123 3.121992 0
M  V30 28 H -1.201770 -4.518657 4.032043 0
M  V30 29 H 1.395089 -3.882200 1.918442 0
M  V30 30 H 2.721020 -2.403735 0.507829 0
M  V30 31 H 1.522524 -0.407018 -4.054059 0
M  V30 32 H 2.164691 3.553892 -1.741709 0
M  V30 33 H 2.692068 4.500191 0.283837 0
M  V30 34 H 4.562148 3.306306 0.700402 0
M  V30 35 H 3.515775 2.750829 2.114013 0
M  V30 36 H 3.742630 1.706794 0.687325 0
M  V30 37 H 1.595969 3.969273 2.248049 0
M  V30 38 H 0.030068 1.629527 1.122939 0
M  V30 39 H 1.572249 1.388472 2.142408 0
M  V30 40 H 0.182614 2.276347 2.747573 0
M  V30 41 H -0.565519 3.492399 0.630290 0
M  V30 42 H -0.492971 -0.857655 -0.353661 0
M  V30 43 H -2.695897 -1.487012 0.457549 0
M  V30 44 H -4.416883 -1.471773 1.551000 0
M  V30 45 H -5.699290 -2.641911 2.137695 0
M  V30 46 H -4.925564 -2.895836 0.555888 0
M  V30 47 H -4.508090 -3.689377 4.231244 0
M  V30 END ATOM
M  V30 BEGIN BOND
M  V30 1 1 1 2
M  V30 2 2 2 3
M  V30 3 1 3 4
M  V30 4 1 4 5
M  V30 5 1 5 6
M  V30 6 2 6 7
M  V30 7 1 7 8
M  V30 8 2 8 9
M  V30 9 1 9 10
M  V30 10 1 9 11
M  V30 11 1 11 12
M  V30 12 1 12 13
M  V30 13 1 13 14
M  V30 14 1 13 15
M  V30 15 1 15 16
M  V30 16 1 15 17
M  V30 17 2 11 18
M  V30 18 2 4 19
M  V30 19 1 19 20
M  V30 20 2 20 21
M  V30 21 1 21 22
M  V30 22 1 22 23
M  V30 23 2 22 24
M  V30 24 2 22 25
M  V30 25 1 21 2
M  V30 26 1 18 6
M  V30 27 1 1 26
M  V30 28 1 1 27
M  V30 29 1 1 28
M  V30 30 1 3 29
M  V30 31 1 5 30
M  V30 32 1 8 31
M  V30 33 1 12 32
M  V30 34 1 13 33 CFG=3
M  V30 35 1 14 34
M  V30 36 1 14 35
M  V30 37 1 14 36
M  V30 38 1 15 37 CFG=1
M  V30 39 1 16 38
M  V30 40 1 16 39
M  V30 41 1 16 40
M  V30 42 1 17 41
M  V30 43 1 19 42
M  V30 44 1 20 43
M  V30 45 1 23 44
M  V30 46 1 23 45
M  V30 47 1 23 46
M  V30 48 1 24 47
M  V30 END BOND
M  V30 END CTAB
M  END
>  <Dataset>  (266) 
ChEMBL_Kinases

>  <Ligand_Instance>  (266) 
nan

>  <PDB_ID>  (266) 
nan

>  <Standardized_SMILES>  (266) 
Cc1cc(Nc2ncc(Br)c(N[C@H](C)[C@H](C)O)n2)ccc1S(C)(=N)=O

>  <Name>  (266) 
nan

>  <Pocket>  (266) 
nan

>  <ATP_Site>  (266) 
nan

>  <Peripheral>  (266) 
nan

>  <Num_H_Atoms_ProtBoundConf>  (266) 
nan

>  <Num_Resolved_Atoms>  (266) 
nan

>  <Num_Not_Resolved_Atoms>  (266) 
nan

$$$$
CHEMBL3648097
     RDKit          3D

  0  0  0  0  0  0  0  0  0  0999 V3000
M  V30 BEGIN CTAB
M  V30 COUNTS 39 40 0 0 0
M  V30 BEGIN ATOM
M  V30 1 C -0.341201 -4.618198 -0.033819 0
M  V30 2 C -0.309229 -5.522444 1.170542 0
M  V30 3 O -1.064262 -5.059787 2.250345 0
M  V30 4 C -0.868118 -3.862686 2.910099 0
M  V30 5 N 0.104283 -2.994895 2.564224 0
M  V30 6 C 0.272161 -1.824055 3.233306 0
M  V30 7 N 1.282067 -0.874202 2.908939 0
M  V30 8 C 1.036950 0.166609 1.969164 0
M  V30 9 C -0.199323 0.249189 1.368521 0
M  V30 10 C -0.445125 1.270043 0.444410 0
M  V30 11 C 0.585777 2.174352 0.165632 0
M  V30 12 S 0.238882 3.435080 -0.994375 0
M  V30 13 N -1.287715 3.770393 -0.998356 0
M  V30 14 O 0.967283 4.705428 -0.713744 0
M  V30 15 C 0.657767 2.869518 -2.631204 0
M  V30 16 C 2.140575 2.541415 -2.626744 0
M  V30 17 C 1.829426 2.072828 0.784642 0
M  V30 18 C 2.051385 1.059728 1.692235 0
M  V30 19 N -0.560744 -1.532450 4.268272 0
M  V30 20 C -1.545267 -2.385657 4.636596 0
M  V30 21 C -1.699289 -3.560645 3.950792 0
M  V30 22 Br -3.114509 -4.681433 4.555672 0
M  V30 23 H 0.526755 -4.897118 -0.672886 0
M  V30 24 H -1.269393 -4.798846 -0.619492 0
M  V30 25 H -0.234591 -3.549554 0.233212 0
M  V30 26 H -0.688176 -6.519136 0.881887 0
M  V30 27 H 0.755653 -5.645317 1.499489 0
M  V30 28 H 2.204294 -0.971969 3.385946 0
M  V30 29 H -1.024713 -0.444111 1.567108 0
M  V30 30 H -1.418090 1.353061 -0.042745 0
M  V30 31 H -1.569467 4.612157 -1.512459 0
M  V30 32 H 0.499116 3.650505 -3.374465 0
M  V30 33 H 0.076630 1.940091 -2.838719 0
M  V30 34 H 2.659923 3.445078 -2.210349 0
M  V30 35 H 2.390764 1.726324 -1.934406 0
M  V30 36 H 2.510927 2.284630 -3.632634 0
M  V30 37 H 2.567074 2.825987 0.500159 0
M  V30 38 H 3.021907 0.998531 2.160860 0
M  V30 39 H -2.153422 -2.049248 5.480459 0
M  V30 END ATOM
M  V30 BEGIN BOND
M  V30 1 1 1 2
M  V30 2 1 2 3
M  V30 3 1 3 4
M  V30 4 2 4 5
M  V30 5 1 5 6
M  V30 6 1 6 7
M  V30 7 1 7 8
M  V30 8 2 8 9
M  V30 9 1 9 10
M  V30 10 2 10 11
M  V30 11 1 11 12
M  V30 12 2 12 13
M  V30 13 2 12 14
M  V30 14 1 12 15
M  V30 15 1 15 16
M  V30 16 1 11 17
M  V30 17 2 17 18
M  V30 18 2 6 19
M  V30 19 1 19 20
M  V30 20 2 20 21
M  V30 21 1 21 22
M  V30 22 1 21 4
M  V30 23 1 18 8
M  V30 24 1 1 23
M  V30 25 1 1 24
M  V30 26 1 1 25
M  V30 27 1 2 26
M  V30 28 1 2 27
M  V30 29 1 7 28
M  V30 30 1 9 29
M  V30 31 1 10 30
M  V30 32 1 13 31
M  V30 33 1 15 32
M  V30 34 1 15 33
M  V30 35 1 16 34
M  V30 36 1 16 35
M  V30 37 1 16 36
M  V30 38 1 17 37
M  V30 39 1 18 38
M  V30 40 1 20 39
M  V30 END BOND
M  V30 END CTAB
M  END
>  <Dataset>  (267) 
ChEMBL_Kinases

>  <Ligand_Instance>  (267) 
nan

>  <PDB_ID>  (267) 
nan

>  <Standardized_SMILES>  (267) 
CCOc1nc(Nc2ccc(S(=N)(=O)CC)cc2)ncc1Br

>  <Name>  (267) 
nan

>  <Pocket>  (267) 
nan

>  <ATP_Site>  (267) 
nan

>  <Peripheral>  (267) 
nan

>  <Num_H_Atoms_ProtBoundConf>  (267) 
nan

>  <Num_Resolved_Atoms>  (267) 
nan

>  <Num_Not_Resolved_Atoms>  (267) 
nan

$$$$
CHEMBL3648100
     RDKit          3D

  0  0  0  0  0  0  0  0  0  0999 V3000
M  V30 BEGIN CTAB
M  V30 COUNTS 42 43 0 0 0
M  V30 BEGIN ATOM
M  V30 1 C -1.335808 -6.061618 1.172199 0
M  V30 2 C -1.412309 -4.576282 1.419476 0
M  V30 3 C -2.832173 -4.069254 1.517337 0
M  V30 4 C -3.626893 -4.315961 0.278783 0
M  V30 5 S -2.704336 -2.283306 1.792029 0
M  V30 6 C -2.021424 -1.416289 0.388555 0
M  V30 7 N -0.706318 -1.225060 0.214996 0
M  V30 8 C -0.142083 -0.575423 -0.819247 0
M  V30 9 N 1.277912 -0.500996 -0.781684 0
M  V30 10 C 1.979864 0.583197 -0.182386 0
M  V30 11 C 1.270494 1.629330 0.369864 0
M  V30 12 C 2.026700 2.649789 0.935319 0
M  V30 13 C 3.426019 2.652399 0.962630 0
M  V30 14 S 4.183179 4.026981 1.717973 0
M  V30 15 C 4.442552 3.786606 3.443914 0
M  V30 16 N 5.590972 4.270609 1.059470 0
M  V30 17 O 3.360216 5.241550 1.507422 0
M  V30 18 C 4.077493 1.570737 0.390193 0
M  V30 19 C 3.358817 0.540143 -0.180088 0
M  V30 20 N -0.988164 -0.073506 -1.764461 0
M  V30 21 C -2.315059 -0.219481 -1.668458 0
M  V30 22 C -2.881500 -0.897010 -0.586812 0
M  V30 23 Br -4.777027 -1.067552 -0.484704 0
M  V30 24 H -0.425925 -6.520934 1.607352 0
M  V30 25 H -2.193129 -6.614497 1.561703 0
M  V30 26 H -1.257925 -6.203640 0.065775 0
M  V30 27 H -0.848993 -3.995124 0.666252 0
M  V30 28 H -0.931773 -4.386061 2.401406 0
M  V30 29 H -3.279804 -4.520786 2.413573 0
M  V30 30 H -3.251957 -3.745223 -0.592542 0
M  V30 31 H -4.670453 -3.998440 0.470288 0
M  V30 32 H -3.623104 -5.378930 -0.042864 0
M  V30 33 H 1.769146 -1.300639 -1.225949 0
M  V30 34 H 0.188412 1.685709 0.380013 0
M  V30 35 H 1.466307 3.476684 1.371438 0
M  V30 36 H 3.598742 4.223553 4.036947 0
M  V30 37 H 5.337225 4.364740 3.744061 0
M  V30 38 H 4.510418 2.719123 3.748331 0
M  V30 39 H 6.039629 5.156767 1.367667 0
M  V30 40 H 5.155922 1.631459 0.443373 0
M  V30 41 H 3.938376 -0.274877 -0.609857 0
M  V30 42 H -2.907346 0.218965 -2.477575 0
M  V30 END ATOM
M  V30 BEGIN BOND
M  V30 1 1 1 2
M  V30 2 1 2 3
M  V30 3 1 3 4
M  V30 4 1 3 5
M  V30 5 1 5 6
M  V30 6 2 6 7
M  V30 7 1 7 8
M  V30 8 1 8 9
M  V30 9 1 9 10
M  V30 10 2 10 11
M  V30 11 1 11 12
M  V30 12 2 12 13
M  V30 13 1 13 14
M  V30 14 1 14 15
M  V30 15 2 14 16
M  V30 16 2 14 17
M  V30 17 1 13 18
M  V30 18 2 18 19
M  V30 19 2 8 20
M  V30 20 1 20 21
M  V30 21 2 21 22
M  V30 22 1 22 23
M  V30 23 1 22 6
M  V30 24 1 19 10
M  V30 25 1 1 24
M  V30 26 1 1 25
M  V30 27 1 1 26
M  V30 28 1 2 27
M  V30 29 1 2 28
M  V30 30 1 3 29
M  V30 31 1 4 30
M  V30 32 1 4 31
M  V30 33 1 4 32
M  V30 34 1 9 33
M  V30 35 1 11 34
M  V30 36 1 12 35
M  V30 37 1 15 36
M  V30 38 1 15 37
M  V30 39 1 15 38
M  V30 40 1 16 39
M  V30 41 1 18 40
M  V30 42 1 19 41
M  V30 43 1 21 42
M  V30 END BOND
M  V30 END CTAB
M  END
>  <Dataset>  (268) 
ChEMBL_Kinases

>  <Ligand_Instance>  (268) 
nan

>  <PDB_ID>  (268) 
nan

>  <Standardized_SMILES>  (268) 
CCC(C)Sc1nc(Nc2ccc(S(C)(=N)=O)cc2)ncc1Br

>  <Name>  (268) 
nan

>  <Pocket>  (268) 
nan

>  <ATP_Site>  (268) 
nan

>  <Peripheral>  (268) 
nan

>  <Num_H_Atoms_ProtBoundConf>  (268) 
nan

>  <Num_Resolved_Atoms>  (268) 
nan

>  <Num_Not_Resolved_Atoms>  (268) 
nan

$$$$
CHEMBL3648090
     RDKit          3D

  0  0  0  0  0  0  0  0  0  0999 V3000
M  V30 BEGIN CTAB
M  V30 COUNTS 59 60 0 0 0
M  V30 BEGIN ATOM
M  V30 1 C 3.436570 -6.705516 0.105220 0
M  V30 2 C 4.677091 -5.833103 -0.055224 0
M  V30 3 O 4.191128 -4.517997 -0.292751 0
M  V30 4 C 5.002563 -3.412794 -0.499771 0
M  V30 5 O 5.999280 -4.165647 -0.367374 0
M  V30 6 N 4.140492 -2.292669 -0.700476 0
M  V30 7 S 4.506861 -1.089488 0.263999 0
M  V30 8 C 4.583835 -1.773087 1.900922 0
M  V30 9 O 5.886318 -0.702827 -0.157985 0
M  V30 10 C 3.339673 0.183003 0.103689 0
M  V30 11 C 3.706982 1.444779 -0.302223 0
M  V30 12 C 2.807816 2.475679 -0.453230 0
M  V30 13 C 1.457006 2.216711 -0.177907 0
M  V30 14 N 0.523008 3.264402 -0.339702 0
M  V30 15 C -0.860106 3.357075 -0.182042 0
M  V30 16 N -1.649010 4.403136 -0.399847 0
M  V30 17 C -2.957937 4.454618 -0.242382 0
M  V30 18 C -3.585269 3.289569 0.200044 0
M  V30 19 Br -5.478806 3.494253 0.386777 0
M  V30 20 C -2.812248 2.159316 0.445981 0
M  V30 21 N -3.679028 1.152363 0.866843 0
M  V30 22 C -4.545545 0.137929 1.289981 0 CFG=2
M  V30 23 C -4.325988 -0.418460 2.684353 0
M  V30 24 C -4.596718 -0.990266 0.253194 0
M  V30 25 C -3.196284 -1.503645 0.000586 0
M  V30 26 C -5.540174 -2.080718 0.661551 0
M  V30 27 O -5.062309 -0.400974 -0.923030 0
M  V30 28 N -1.511953 2.292436 0.232478 0
M  V30 29 C 1.130646 0.939069 0.226827 0
M  V30 30 C 2.021224 -0.109255 0.384334 0
M  V30 31 C 1.525484 -1.443343 0.834214 0
M  V30 32 H 3.223532 -7.287661 -0.816060 0
M  V30 33 H 3.514035 -7.389235 0.984163 0
M  V30 34 H 2.517478 -6.091330 0.281992 0
M  V30 35 H 5.312988 -6.202481 -0.875267 0
M  V30 36 H 5.238385 -5.914979 0.905331 0
M  V30 37 H 3.715223 -1.428998 2.517149 0
M  V30 38 H 5.491035 -1.347192 2.412556 0
M  V30 39 H 4.699229 -2.855041 1.883307 0
M  V30 40 H 4.730384 1.707772 -0.530122 0
M  V30 41 H 3.117252 3.464636 -0.775214 0
M  V30 42 H 0.900232 4.208021 -0.646716 0
M  V30 43 H -3.367152 5.419041 -0.487340 0
M  V30 44 H -2.900699 0.432765 1.008325 0
M  V30 45 H -5.612765 0.539847 1.321637 0
M  V30 46 H -5.244308 -0.977593 2.953990 0
M  V30 47 H -4.240319 0.427096 3.386143 0
M  V30 48 H -3.497159 -1.127331 2.748433 0
M  V30 49 H -3.217557 -2.503307 -0.488066 0
M  V30 50 H -2.686161 -0.815502 -0.697729 0
M  V30 51 H -2.661307 -1.586784 0.965089 0
M  V30 52 H -4.974650 -2.886233 1.209041 0
M  V30 53 H -6.306189 -1.679581 1.354323 0
M  V30 54 H -6.011058 -2.499680 -0.262177 0
M  V30 55 H -4.355819 0.150144 -1.323478 0
M  V30 56 H 0.106210 0.689985 0.452170 0
M  V30 57 H 2.286648 -2.216047 0.760623 0
M  V30 58 H 1.073318 -1.362558 1.859225 0
M  V30 59 H 0.683459 -1.707257 0.161168 0
M  V30 END ATOM
M  V30 BEGIN BOND
M  V30 1 1 1 2
M  V30 2 1 2 3
M  V30 3 1 3 4
M  V30 4 2 4 5
M  V30 5 1 4 6
M  V30 6 2 6 7
M  V30 7 1 7 8
M  V30 8 2 7 9
M  V30 9 1 7 10
M  V30 10 2 10 11
M  V30 11 1 11 12
M  V30 12 2 12 13
M  V30 13 1 13 14
M  V30 14 1 14 15
M  V30 15 2 15 16
M  V30 16 1 16 17
M  V30 17 2 17 18
M  V30 18 1 18 19
M  V30 19 1 18 20
M  V30 20 1 20 21
M  V30 21 1 21 22
M  V30 22 1 22 23
M  V30 23 1 22 24
M  V30 24 1 24 25
M  V30 25 1 24 26
M  V30 26 1 24 27
M  V30 27 2 20 28
M  V30 28 1 13 29
M  V30 29 2 29 30
M  V30 30 1 30 31
M  V30 31 1 30 10
M  V30 32 1 28 15
M  V30 33 1 1 32
M  V30 34 1 1 33
M  V30 35 1 1 34
M  V30 36 1 2 35
M  V30 37 1 2 36
M  V30 38 1 8 37
M  V30 39 1 8 38
M  V30 40 1 8 39
M  V30 41 1 11 40
M  V30 42 1 12 41
M  V30 43 1 14 42
M  V30 44 1 17 43
M  V30 45 1 21 44
M  V30 46 1 22 45 CFG=1
M  V30 47 1 23 46
M  V30 48 1 23 47
M  V30 49 1 23 48
M  V30 50 1 25 49
M  V30 51 1 25 50
M  V30 52 1 25 51
M  V30 53 1 26 52
M  V30 54 1 26 53
M  V30 55 1 26 54
M  V30 56 1 27 55
M  V30 57 1 29 56
M  V30 58 1 31 57
M  V30 59 1 31 58
M  V30 60 1 31 59
M  V30 END BOND
M  V30 END CTAB
M  END
>  <Dataset>  (269) 
ChEMBL_Kinases

>  <Ligand_Instance>  (269) 
nan

>  <PDB_ID>  (269) 
nan

>  <Standardized_SMILES>  (269) 
CCOC(=O)N=S(C)(=O)c1ccc(Nc2ncc(Br)c(N[C@H](C)C(C)(C)O)n2)cc1C

>  <Name>  (269) 
nan

>  <Pocket>  (269) 
nan

>  <ATP_Site>  (269) 
nan

>  <Peripheral>  (269) 
nan

>  <Num_H_Atoms_ProtBoundConf>  (269) 
nan

>  <Num_Resolved_Atoms>  (269) 
nan

>  <Num_Not_Resolved_Atoms>  (269) 
nan

$$$$
CHEMBL364572
     RDKit          3D

  0  0  0  0  0  0  0  0  0  0999 V3000
M  V30 BEGIN CTAB
M  V30 COUNTS 56 60 0 0 0
M  V30 BEGIN ATOM
M  V30 1 C 5.762695 -1.599484 0.103519 0
M  V30 2 C 4.921735 -0.413138 -0.384262 0
M  V30 3 C 5.912455 0.681598 -0.697044 0
M  V30 4 S 3.819304 -0.024383 0.924609 0
M  V30 5 O 3.040248 -1.224331 1.371585 0
M  V30 6 O 4.685243 0.362588 2.116947 0
M  V30 7 N 2.767244 1.276831 0.631585 0
M  V30 8 C 3.050269 2.550387 0.389398 0
M  V30 9 N 4.322633 3.175770 0.318350 0
M  V30 10 N 1.927449 3.282566 0.200723 0
M  V30 11 C 0.848515 2.458971 0.323058 0
M  V30 12 C -0.506833 2.682479 0.226353 0
M  V30 13 C -1.382901 1.631283 0.401309 0
M  V30 14 C -0.880080 0.374764 0.670419 0
M  V30 15 C -1.801782 -0.762779 0.860260 0
M  V30 16 N -1.985261 -1.518609 1.952258 0
M  V30 17 C -2.914409 -2.463304 1.739074 0
M  V30 18 C -3.436467 -3.497105 2.620129 0
M  V30 19 C -4.405370 -4.390432 2.217732 0
M  V30 20 F -4.878263 -4.281437 0.936446 0
M  V30 21 C -4.939292 -5.388720 3.001368 0
M  V30 22 C -4.475201 -5.524730 4.314333 0
M  V30 23 C -3.497138 -4.651201 4.776396 0
M  V30 24 C -3.021327 -3.682302 3.920688 0
M  V30 25 F -2.072091 -2.870313 4.441080 0
M  V30 26 N -3.328374 -2.295313 0.471056 0
M  V30 27 C -2.667518 -1.266329 -0.088816 0
M  V30 28 C -2.845289 -0.780844 -1.454883 0
M  V30 29 C -4.129372 -0.327594 -1.770146 0
M  V30 30 C -4.424178 0.158548 -3.036213 0
M  V30 31 C -3.429222 0.194830 -4.002299 0
M  V30 32 C -2.155441 -0.252386 -3.696974 0
M  V30 33 C -1.872923 -0.732391 -2.439631 0
M  V30 34 C 0.482471 0.204106 0.757118 0
M  V30 35 C 1.405758 1.217395 0.591285 0
M  V30 36 H 6.505431 -1.925122 -0.636285 0
M  V30 37 H 5.133428 -2.465163 0.358385 0
M  V30 38 H 6.317978 -1.332034 1.021200 0
M  V30 39 H 4.406341 -0.671963 -1.330320 0
M  V30 40 H 5.552783 1.412096 -1.449108 0
M  V30 41 H 6.829420 0.226131 -1.182158 0
M  V30 42 H 6.284436 1.203981 0.207359 0
M  V30 43 H 4.835278 3.050568 1.232078 0
M  V30 44 H 4.829504 3.714499 -0.433738 0
M  V30 45 H -0.792604 3.701257 0.013293 0
M  V30 46 H -2.442917 1.832951 0.320303 0
M  V30 47 H -1.462829 -1.369481 2.832680 0
M  V30 48 H -5.699060 -6.053748 2.614866 0
M  V30 49 H -4.902416 -6.306870 4.909194 0
M  V30 50 H -3.135260 -4.752664 5.790219 0
M  V30 51 H -4.958893 -0.329941 -1.051929 0
M  V30 52 H -5.438887 0.512200 -3.270888 0
M  V30 53 H -3.672524 0.573035 -4.975832 0
M  V30 54 H -1.354712 -0.239998 -4.421333 0
M  V30 55 H -0.909165 -1.106057 -2.097469 0
M  V30 56 H 0.800886 -0.784533 0.965521 0
M  V30 END ATOM
M  V30 BEGIN BOND
M  V30 1 1 1 2
M  V30 2 1 2 3
M  V30 3 1 2 4
M  V30 4 2 4 5
M  V30 5 2 4 6
M  V30 6 1 4 7
M  V30 7 1 7 8
M  V30 8 1 8 9
M  V30 9 2 8 10
M  V30 10 1 10 11
M  V30 11 2 11 12
M  V30 12 1 12 13
M  V30 13 2 13 14
M  V30 14 1 14 15
M  V30 15 1 15 16
M  V30 16 1 16 17
M  V30 17 1 17 18
M  V30 18 2 18 19
M  V30 19 1 19 20
M  V30 20 1 19 21
M  V30 21 2 21 22
M  V30 22 1 22 23
M  V30 23 2 23 24
M  V30 24 1 24 25
M  V30 25 2 17 26
M  V30 26 1 26 27
M  V30 27 1 27 28
M  V30 28 2 28 29
M  V30 29 1 29 30
M  V30 30 2 30 31
M  V30 31 1 31 32
M  V30 32 2 32 33
M  V30 33 1 14 34
M  V30 34 2 34 35
M  V30 35 1 35 7
M  V30 36 1 35 11
M  V30 37 2 27 15
M  V30 38 1 33 28
M  V30 39 1 24 18
M  V30 40 1 1 36
M  V30 41 1 1 37
M  V30 42 1 1 38
M  V30 43 1 2 39
M  V30 44 1 3 40
M  V30 45 1 3 41
M  V30 46 1 3 42
M  V30 47 1 9 43
M  V30 48 1 9 44
M  V30 49 1 12 45
M  V30 50 1 13 46
M  V30 51 1 16 47
M  V30 52 1 21 48
M  V30 53 1 22 49
M  V30 54 1 23 50
M  V30 55 1 29 51
M  V30 56 1 30 52
M  V30 57 1 31 53
M  V30 58 1 32 54
M  V30 59 1 33 55
M  V30 60 1 34 56
M  V30 END BOND
M  V30 END CTAB
M  END
>  <Dataset>  (270) 
ChEMBL_Kinases

>  <Ligand_Instance>  (270) 
nan

>  <PDB_ID>  (270) 
nan

>  <Standardized_SMILES>  (270) 
CC(C)S(=O)(=O)n1c(N)nc2ccc(-c3[nH]c(-c4c(F)cccc4F)nc3-c3ccccc3)cc21

>  <Name>  (270) 
nan

>  <Pocket>  (270) 
nan

>  <ATP_Site>  (270) 
nan

>  <Peripheral>  (270) 
nan

>  <Num_H_Atoms_ProtBoundConf>  (270) 
nan

>  <Num_Resolved_Atoms>  (270) 
nan

>  <Num_Not_Resolved_Atoms>  (270) 
nan

$$$$
CHEMBL3949896
     RDKit          3D

  0  0  0  0  0  0  0  0  0  0999 V3000
M  V30 BEGIN CTAB
M  V30 COUNTS 57 61 0 0 0
M  V30 BEGIN ATOM
M  V30 1 C 2.720314 -5.273427 -0.572276 0
M  V30 2 C 2.619077 -3.848310 -0.091326 0
M  V30 3 N 3.729148 -3.266309 0.390234 0
M  V30 4 C 3.664370 -1.992739 0.821076 0
M  V30 5 C 4.863032 -1.504869 1.291998 0
M  V30 6 C 4.910129 -0.211851 1.757714 0
M  V30 7 C 3.744741 0.509833 1.719854 0
M  V30 8 C 2.513128 0.032469 1.244808 0
M  V30 9 C 1.325819 0.873426 1.241246 0
M  V30 10 C 1.397190 2.171587 1.701002 0
M  V30 11 C 0.198617 2.837896 1.635698 0
M  V30 12 C -0.671068 1.878249 1.097276 0
M  V30 13 N 0.045963 0.732787 0.881254 0
M  V30 14 C -2.071390 2.401245 0.940113 0
M  V30 15 C -3.046707 1.683471 1.842375 0
M  V30 16 C -3.420173 0.372221 1.216398 0
M  V30 17 O -4.118746 0.676134 0.028432 0
M  V30 18 C -3.107219 1.073912 -0.869676 0
M  V30 19 C -2.500030 2.378977 -0.486131 0
M  V30 20 N -1.891113 3.770017 1.425775 0
M  V30 21 C -0.566997 4.048164 1.850328 0
M  V30 22 O -0.139215 5.122144 2.316923 0
M  V30 23 C 2.473322 -1.251938 0.783529 0
M  V30 24 N 1.403571 -1.859465 0.302455 0
M  V30 25 C 1.424225 -3.124925 -0.135915 0
M  V30 26 N 0.281838 -3.840197 -0.665267 0
M  V30 27 C -1.073049 -3.396411 -0.853365 0
M  V30 28 C -1.922816 -4.531308 -1.444965 0
M  V30 29 C -1.723743 -3.012581 0.447829 0
M  V30 30 C -1.063143 -2.236402 -1.852657 0
M  V30 31 H 3.726043 -5.675259 -0.362963 0
M  V30 32 H 1.969499 -5.924291 -0.131767 0
M  V30 33 H 2.509414 -5.251306 -1.670369 0
M  V30 34 H 5.772430 -2.089309 1.313926 0
M  V30 35 H 5.823254 0.217704 2.137633 0
M  V30 36 H 3.839300 1.525437 2.099915 0
M  V30 37 H 2.244695 2.731094 2.096564 0
M  V30 38 H -0.233698 -0.193256 0.494057 0
M  V30 39 H -3.954555 2.324385 1.897113 0
M  V30 40 H -2.594111 1.561562 2.853459 0
M  V30 41 H -4.044287 -0.258798 1.888013 0
M  V30 42 H -2.556022 -0.225573 0.893485 0
M  V30 43 H -2.378795 0.239384 -0.886860 0
M  V30 44 H -3.585956 1.099510 -1.869273 0
M  V30 45 H -3.285726 3.171428 -0.615146 0
M  V30 46 H -1.639348 2.552377 -1.164451 0
M  V30 47 H -2.733335 4.418123 1.420887 0
M  V30 48 H 0.431713 -4.832066 -0.966009 0
M  V30 49 H -2.846234 -4.081437 -1.851514 0
M  V30 50 H -1.355647 -4.989656 -2.295868 0
M  V30 51 H -2.094031 -5.242831 -0.613890 0
M  V30 52 H -1.947837 -3.948154 1.037162 0
M  V30 53 H -1.083972 -2.352190 1.059539 0
M  V30 54 H -2.696067 -2.508716 0.248000 0
M  V30 55 H -0.358881 -1.472733 -1.529406 0
M  V30 56 H -2.102810 -1.886478 -1.911084 0
M  V30 57 H -0.762098 -2.634505 -2.844803 0
M  V30 END ATOM
M  V30 BEGIN BOND
M  V30 1 1 1 2
M  V30 2 2 2 3
M  V30 3 1 3 4
M  V30 4 2 4 5
M  V30 5 1 5 6
M  V30 6 2 6 7
M  V30 7 1 7 8
M  V30 8 1 8 9
M  V30 9 2 9 10
M  V30 10 1 10 11
M  V30 11 2 11 12
M  V30 12 1 12 13
M  V30 13 1 12 14
M  V30 14 1 14 15
M  V30 15 1 15 16
M  V30 16 1 16 17
M  V30 17 1 17 18
M  V30 18 1 18 19
M  V30 19 1 14 20
M  V30 20 1 20 21
M  V30 21 2 21 22
M  V30 22 2 8 23
M  V30 23 1 23 24
M  V30 24 2 24 25
M  V30 25 1 25 26
M  V30 26 1 26 27
M  V30 27 1 27 28
M  V30 28 1 27 29
M  V30 29 1 27 30
M  V30 30 1 25 2
M  V30 31 1 23 4
M  V30 32 1 13 9
M  V30 33 1 19 14
M  V30 34 1 21 11
M  V30 35 1 1 31
M  V30 36 1 1 32
M  V30 37 1 1 33
M  V30 38 1 5 34
M  V30 39 1 6 35
M  V30 40 1 7 36
M  V30 41 1 10 37
M  V30 42 1 13 38
M  V30 43 1 15 39
M  V30 44 1 15 40
M  V30 45 1 16 41
M  V30 46 1 16 42
M  V30 47 1 18 43
M  V30 48 1 18 44
M  V30 49 1 19 45
M  V30 50 1 19 46
M  V30 51 1 20 47
M  V30 52 1 26 48
M  V30 53 1 28 49
M  V30 54 1 28 50
M  V30 55 1 28 51
M  V30 56 1 29 52
M  V30 57 1 29 53
M  V30 58 1 29 54
M  V30 59 1 30 55
M  V30 60 1 30 56
M  V30 61 1 30 57
M  V30 END BOND
M  V30 END CTAB
M  END
>  <Dataset>  (271) 
ChEMBL_Kinases

>  <Ligand_Instance>  (271) 
nan

>  <PDB_ID>  (271) 
nan

>  <Standardized_SMILES>  (271) 
Cc1nc2cccc(-c3cc4c([nH]3)C3(CCOCC3)NC4=O)c2nc1NC(C)(C)C

>  <Name>  (271) 
nan

>  <Pocket>  (271) 
nan

>  <ATP_Site>  (271) 
nan

>  <Peripheral>  (271) 
nan

>  <Num_H_Atoms_ProtBoundConf>  (271) 
nan

>  <Num_Resolved_Atoms>  (271) 
nan

>  <Num_Not_Resolved_Atoms>  (271) 
nan

$$$$
CHEMBL3646211
     RDKit          3D

  0  0  0  0  0  0  0  0  0  0999 V3000
M  V30 BEGIN CTAB
M  V30 COUNTS 64 68 0 0 0
M  V30 BEGIN ATOM
M  V30 1 C 9.607518 1.905042 -2.713285 0
M  V30 2 O 8.459238 2.115308 -3.514222 0
M  V30 3 C 7.386944 2.819186 -2.980550 0
M  V30 4 C 6.334827 2.955765 -3.856427 0
M  V30 5 C 5.177801 3.634196 -3.485340 0
M  V30 6 C 5.173740 4.147706 -2.192787 0
M  V30 7 N 3.958214 4.844745 -1.843271 0
M  V30 8 C 2.940393 4.016186 -1.261976 0
M  V30 9 O 3.206703 2.799948 -1.121518 0
M  V30 10 N 1.664847 4.459517 -0.836270 0
M  V30 11 C 0.752628 3.493553 -0.271646 0
M  V30 12 C -0.084078 2.865001 -1.174513 0
M  V30 13 C -0.972168 1.928596 -0.650190 0
M  V30 14 C -1.056266 1.608211 0.671460 0
M  V30 15 C -1.964003 0.619730 1.227790 0
M  V30 16 C -2.775838 1.148384 2.254362 0
M  V30 17 S -3.862252 -0.334051 2.739857 0
M  V30 18 C -3.153794 -1.390771 1.603762 0
M  V30 19 C -3.388599 -2.722897 1.308940 0
M  V30 20 C -4.436948 -3.384250 2.084772 0
M  V30 21 C -5.729631 -3.061833 2.486004 0
M  V30 22 N -6.222242 -4.088113 3.197600 0
M  V30 23 N -5.333043 -5.061336 3.286940 0
M  V30 24 C -5.450421 -6.343900 3.959522 0
M  V30 25 C -5.999372 -7.370535 3.014969 0 CFG=2
M  V30 26 O -7.244752 -7.053230 2.526509 0
M  V30 27 C -5.944001 -8.766952 3.551288 0
M  V30 28 O -4.687799 -9.103817 4.052305 0
M  V30 29 C -4.215445 -4.663622 2.611187 0
M  V30 30 C -2.700299 -3.431014 0.345973 0
M  V30 31 N -1.778811 -2.675934 -0.268311 0
M  V30 32 C -1.509707 -1.390831 -0.026465 0
M  V30 33 N -0.461805 -0.964752 -0.876006 0
M  V30 34 C -2.206399 -0.696141 0.938075 0
M  V30 35 C -0.170513 2.294236 1.516454 0
M  V30 36 C 0.740937 3.236103 1.085574 0
M  V30 37 C 6.213395 4.021580 -1.304838 0
M  V30 38 C 7.352998 3.340423 -1.703170 0
M  V30 39 H 10.225648 1.050879 -3.089500 0
M  V30 40 H 9.372781 1.630871 -1.663363 0
M  V30 41 H 10.226489 2.841656 -2.656659 0
M  V30 42 H 6.330829 2.551807 -4.881087 0
M  V30 43 H 4.339200 3.752753 -4.159008 0
M  V30 44 H 3.669329 5.863986 -1.934590 0
M  V30 45 H 1.474511 5.494380 -0.969061 0
M  V30 46 H -0.060162 3.078888 -2.227936 0
M  V30 47 H -1.616309 1.465961 -1.368450 0
M  V30 48 H -2.870021 2.112586 2.739790 0
M  V30 49 H -6.115798 -2.100044 2.185073 0
M  V30 50 H -4.493998 -6.632940 4.391993 0
M  V30 51 H -6.164719 -6.205504 4.795248 0
M  V30 52 H -5.301214 -7.355093 2.127343 0
M  V30 53 H -7.883301 -7.813691 2.678746 0
M  V30 54 H -6.164076 -9.524074 2.770942 0
M  V30 55 H -6.663353 -8.944081 4.373408 0
M  V30 56 H -4.014999 -8.734000 3.400553 0
M  V30 57 H -3.313331 -5.277224 2.519975 0
M  V30 58 H -2.927739 -4.468603 0.160310 0
M  V30 59 H 0.511136 -0.780866 -0.504289 0
M  V30 60 H -0.542061 -0.795261 -1.918194 0
M  V30 61 H -0.199751 2.071345 2.592009 0
M  V30 62 H 1.403147 3.740546 1.762830 0
M  V30 63 H 6.153663 4.442891 -0.309507 0
M  V30 64 H 8.212566 3.198016 -1.065421 0
M  V30 END ATOM
M  V30 BEGIN BOND
M  V30 1 1 1 2
M  V30 2 1 2 3
M  V30 3 2 3 4
M  V30 4 1 4 5
M  V30 5 2 5 6
M  V30 6 1 6 7
M  V30 7 1 7 8
M  V30 8 2 8 9
M  V30 9 1 8 10
M  V30 10 1 10 11
M  V30 11 2 11 12
M  V30 12 1 12 13
M  V30 13 2 13 14
M  V30 14 1 14 15
M  V30 15 2 15 16
M  V30 16 1 16 17
M  V30 17 1 17 18
M  V30 18 2 18 19
M  V30 19 1 19 20
M  V30 20 1 20 21
M  V30 21 2 21 22
M  V30 22 1 22 23
M  V30 23 1 23 24
M  V30 24 1 24 25
M  V30 25 1 25 26
M  V30 26 1 25 27
M  V30 27 1 27 28
M  V30 28 1 23 29
M  V30 29 1 19 30
M  V30 30 2 30 31
M  V30 31 1 31 32
M  V30 32 1 32 33
M  V30 33 2 32 34
M  V30 34 1 14 35
M  V30 35 2 35 36
M  V30 36 1 6 37
M  V30 37 2 37 38
M  V30 38 1 38 3
M  V30 39 1 36 11
M  V30 40 1 34 15
M  V30 41 1 34 18
M  V30 42 2 29 20
M  V30 43 1 1 39
M  V30 44 1 1 40
M  V30 45 1 1 41
M  V30 46 1 4 42
M  V30 47 1 5 43
M  V30 48 1 7 44
M  V30 49 1 10 45
M  V30 50 1 12 46
M  V30 51 1 13 47
M  V30 52 1 16 48
M  V30 53 1 21 49
M  V30 54 1 24 50
M  V30 55 1 24 51
M  V30 56 1 25 52 CFG=3
M  V30 57 1 26 53
M  V30 58 1 27 54
M  V30 59 1 27 55
M  V30 60 1 28 56
M  V30 61 1 29 57
M  V30 62 1 30 58
M  V30 63 1 33 59
M  V30 64 1 33 60
M  V30 65 1 35 61
M  V30 66 1 36 62
M  V30 67 1 37 63
M  V30 68 1 38 64
M  V30 END BOND
M  V30 END CTAB
M  END
>  <Dataset>  (272) 
ChEMBL_Kinases

>  <Ligand_Instance>  (272) 
nan

>  <PDB_ID>  (272) 
nan

>  <Standardized_SMILES>  (272) 
COc1ccc(NC(=O)Nc2ccc(-c3csc4c(-c5cnn(C[C@H](O)CO)c5)cnc(N)c34)cc2)cc1

>  <Name>  (272) 
nan

>  <Pocket>  (272) 
nan

>  <ATP_Site>  (272) 
nan

>  <Peripheral>  (272) 
nan

>  <Num_H_Atoms_ProtBoundConf>  (272) 
nan

>  <Num_Resolved_Atoms>  (272) 
nan

>  <Num_Not_Resolved_Atoms>  (272) 
nan

$$$$
CHEMBL3979343
     RDKit          3D

  0  0  0  0  0  0  0  0  0  0999 V3000
M  V30 BEGIN CTAB
M  V30 COUNTS 68 72 0 0 0
M  V30 BEGIN ATOM
M  V30 1 C 5.768157 -3.531271 3.000735 0
M  V30 2 C 4.549977 -4.031168 3.099125 0
M  V30 3 C 3.290421 -3.495713 3.528739 0
M  V30 4 O 2.197743 -4.125569 3.558659 0
M  V30 5 N 3.043665 -2.168045 3.994178 0
M  V30 6 C 1.650809 -1.926808 4.345114 0
M  V30 7 C 1.160993 -0.851378 3.391872 0
M  V30 8 N 1.959480 0.332704 3.491029 0
M  V30 9 S 1.381308 1.609946 2.526583 0
M  V30 10 O 2.279484 2.805257 2.654085 0
M  V30 11 O 1.397263 1.220622 1.053831 0
M  V30 12 C -0.236891 2.078734 3.010044 0
M  V30 13 C -0.454850 2.874993 4.111351 0
M  V30 14 C -1.738162 3.214970 4.461921 0
M  V30 15 C -2.822561 2.775051 3.731544 0
M  V30 16 C -2.669652 1.965735 2.604965 0
M  V30 17 N -3.747405 1.462747 1.826533 0
M  V30 18 C -3.463873 0.916267 0.547557 0
M  V30 19 N -3.910879 1.822139 -0.374402 0
M  V30 20 C -3.789725 1.623826 -1.702732 0
M  V30 21 C -3.198272 0.475704 -2.190987 0
M  V30 22 C -2.751501 -0.429797 -1.233560 0
M  V30 23 N -2.876089 -0.226017 0.114587 0
M  V30 24 N -2.093861 -1.669961 -1.428097 0
M  V30 25 C -2.216214 -2.719320 -0.445356 0
M  V30 26 C -1.270353 -1.984058 -2.570754 0
M  V30 27 C -0.327037 -2.967345 -2.283016 0
M  V30 28 C 0.533073 -3.352967 -3.289344 0
M  V30 29 C 0.490597 -2.804756 -4.555803 0
M  V30 30 C 1.469067 -3.291761 -5.581040 0
M  V30 31 C -0.447306 -1.816861 -4.870394 0
M  V30 32 C -1.306111 -1.439886 -3.843160 0
M  V30 33 C -2.198679 -0.407321 -4.380595 0
M  V30 34 O -2.222708 -0.104941 -5.589206 0
M  V30 35 N -3.126178 0.359433 -3.606147 0
M  V30 36 C -4.165163 1.150731 -4.259623 0
M  V30 37 C -1.351921 1.671990 2.323162 0
M  V30 38 C 3.365250 0.078669 3.244167 0
M  V30 39 C 3.867525 -0.964756 4.210143 0
M  V30 40 H 6.654161 -4.042341 2.656592 0
M  V30 41 H 6.444000 -2.709064 3.114519 0
M  V30 42 H 4.510397 -5.069297 2.786349 0
M  V30 43 H 1.017930 -2.809767 4.350876 0
M  V30 44 H 1.582312 -1.495520 5.387702 0
M  V30 45 H 0.091949 -0.586099 3.617370 0
M  V30 46 H 1.213045 -1.249130 2.378243 0
M  V30 47 H 0.354431 3.242614 4.712202 0
M  V30 48 H -1.970339 3.845603 5.330143 0
M  V30 49 H -3.853839 3.028687 3.987073 0
M  V30 50 H -4.691500 1.542715 2.279392 0
M  V30 51 H -4.123931 2.304328 -2.477207 0
M  V30 52 H -2.323233 -3.728963 -0.931500 0
M  V30 53 H -3.178653 -2.597619 0.103588 0
M  V30 54 H -1.419052 -2.686004 0.320192 0
M  V30 55 H -0.345983 -3.355837 -1.275243 0
M  V30 56 H 1.252904 -4.130423 -3.003825 0
M  V30 57 H 1.388876 -4.392115 -5.683865 0
M  V30 58 H 1.234584 -2.783317 -6.527960 0
M  V30 59 H 2.496882 -3.074197 -5.219935 0
M  V30 60 H -0.498816 -1.375150 -5.849990 0
M  V30 61 H -4.342847 0.648867 -5.253320 0
M  V30 62 H -5.147013 1.061150 -3.742313 0
M  V30 63 H -3.860736 2.171857 -4.500545 0
M  V30 64 H -1.184232 1.040908 1.446202 0
M  V30 65 H 3.396194 -0.401657 2.225231 0
M  V30 66 H 3.911519 1.017500 3.244440 0
M  V30 67 H 3.620476 -0.572458 5.243557 0
M  V30 68 H 4.933873 -1.155957 4.191091 0
M  V30 END ATOM
M  V30 BEGIN BOND
M  V30 1 2 1 2
M  V30 2 1 2 3
M  V30 3 2 3 4
M  V30 4 1 3 5
M  V30 5 1 5 6
M  V30 6 1 6 7
M  V30 7 1 7 8
M  V30 8 1 8 9
M  V30 9 2 9 10
M  V30 10 2 9 11
M  V30 11 1 9 12
M  V30 12 2 12 13
M  V30 13 1 13 14
M  V30 14 2 14 15
M  V30 15 1 15 16
M  V30 16 1 16 17
M  V30 17 1 17 18
M  V30 18 2 18 19
M  V30 19 1 19 20
M  V30 20 2 20 21
M  V30 21 1 21 22
M  V30 22 2 22 23
M  V30 23 1 22 24
M  V30 24 1 24 25
M  V30 25 1 24 26
M  V30 26 2 26 27
M  V30 27 1 27 28
M  V30 28 2 28 29
M  V30 29 1 29 30
M  V30 30 1 29 31
M  V30 31 2 31 32
M  V30 32 1 32 33
M  V30 33 2 33 34
M  V30 34 1 33 35
M  V30 35 1 35 36
M  V30 36 2 16 37
M  V30 37 1 8 38
M  V30 38 1 38 39
M  V30 39 1 39 5
M  V30 40 1 37 12
M  V30 41 1 23 18
M  V30 42 1 32 26
M  V30 43 1 35 21
M  V30 44 1 1 40
M  V30 45 1 1 41
M  V30 46 1 2 42
M  V30 47 1 6 43
M  V30 48 1 6 44
M  V30 49 1 7 45
M  V30 50 1 7 46
M  V30 51 1 13 47
M  V30 52 1 14 48
M  V30 53 1 15 49
M  V30 54 1 17 50
M  V30 55 1 20 51
M  V30 56 1 25 52
M  V30 57 1 25 53
M  V30 58 1 25 54
M  V30 59 1 27 55
M  V30 60 1 28 56
M  V30 61 1 30 57
M  V30 62 1 30 58
M  V30 63 1 30 59
M  V30 64 1 31 60
M  V30 65 1 36 61
M  V30 66 1 36 62
M  V30 67 1 36 63
M  V30 68 1 37 64
M  V30 69 1 38 65
M  V30 70 1 38 66
M  V30 71 1 39 67
M  V30 72 1 39 68
M  V30 END BOND
M  V30 END CTAB
M  END
>  <Dataset>  (273) 
ChEMBL_Kinases

>  <Ligand_Instance>  (273) 
nan

>  <PDB_ID>  (273) 
nan

>  <Standardized_SMILES>  (273) 
C=CC(=O)N1CCN(S(=O)(=O)c2cccc(Nc3ncc4c(n3)N(C)c3ccc(C)cc3C(=O)N4C)c2)CC1

>  <Name>  (273) 
nan

>  <Pocket>  (273) 
nan

>  <ATP_Site>  (273) 
nan

>  <Peripheral>  (273) 
nan

>  <Num_H_Atoms_ProtBoundConf>  (273) 
nan

>  <Num_Resolved_Atoms>  (273) 
nan

>  <Num_Not_Resolved_Atoms>  (273) 
nan

$$$$
CHEMBL3979182
     RDKit          3D

  0  0  0  0  0  0  0  0  0  0999 V3000
M  V30 BEGIN CTAB
M  V30 COUNTS 49 52 0 0 0
M  V30 BEGIN ATOM
M  V30 1 C 1.496032 -5.316068 1.854284 0
M  V30 2 C 1.643308 -3.832779 1.668881 0
M  V30 3 N 2.832724 -3.253125 1.885564 0
M  V30 4 C 2.951102 -1.924038 1.716084 0
M  V30 5 C 4.230874 -1.452984 1.970729 0
M  V30 6 C 4.421103 -0.076249 1.811111 0
M  V30 7 C 3.353162 0.703622 1.421482 0
M  V30 8 F 3.704078 2.005875 1.314534 0
M  V30 9 C 2.087222 0.221822 1.172068 0
M  V30 10 C 1.014062 1.114022 0.764460 0
M  V30 11 C -0.300697 0.832708 0.494030 0
M  V30 12 C -1.029917 1.947031 0.137218 0
M  V30 13 C -0.119232 2.976830 0.188703 0
M  V30 14 N 1.078560 2.438970 0.564351 0
M  V30 15 C -0.774611 4.263636 -0.177489 0 CFG=1
M  V30 16 C -0.047659 4.861864 -1.358021 0
M  V30 17 N -2.122451 3.883759 -0.440819 0
M  V30 18 C -2.316785 2.493377 -0.261289 0
M  V30 19 O -3.387777 1.859388 -0.415761 0
M  V30 20 C 1.894680 -1.131652 1.327313 0
M  V30 21 N 0.717474 -1.732601 1.116837 0
M  V30 22 C 0.546965 -3.053999 1.271756 0
M  V30 23 N -0.714534 -3.728547 1.052960 0
M  V30 24 C -1.957009 -3.144869 0.644717 0
M  V30 25 C -3.042774 -4.228114 0.569922 0
M  V30 26 C -2.439266 -2.179348 1.705623 0
M  V30 27 C -1.860355 -2.475658 -0.711902 0
M  V30 28 H 2.371299 -5.675331 2.400164 0
M  V30 29 H 0.622391 -5.524528 2.539995 0
M  V30 30 H 1.248893 -5.843908 0.924727 0
M  V30 31 H 5.051723 -2.085786 2.275343 0
M  V30 32 H 5.416241 0.292484 2.008693 0
M  V30 33 H -0.798368 -0.115589 0.530320 0
M  V30 34 H 1.890399 3.084545 0.654280 0
M  V30 35 H -0.749886 4.986643 0.664884 0
M  V30 36 H -0.772673 5.326227 -2.040421 0
M  V30 37 H 0.569933 4.086204 -1.893018 0
M  V30 38 H 0.692095 5.600641 -0.954938 0
M  V30 39 H -2.859540 4.565728 -0.729714 0
M  V30 40 H -0.721671 -4.762469 1.210501 0
M  V30 41 H -2.819088 -4.994594 1.322520 0
M  V30 42 H -3.049177 -4.655637 -0.471183 0
M  V30 43 H -4.012579 -3.740519 0.730703 0
M  V30 44 H -1.585515 -1.652335 2.196405 0
M  V30 45 H -2.994528 -2.748680 2.481870 0
M  V30 46 H -3.149660 -1.416006 1.283139 0
M  V30 47 H -2.147768 -3.164125 -1.550277 0
M  V30 48 H -2.628318 -1.674900 -0.721922 0
M  V30 49 H -0.839580 -2.068390 -0.903819 0
M  V30 END ATOM
M  V30 BEGIN BOND
M  V30 1 1 1 2
M  V30 2 2 2 3
M  V30 3 1 3 4
M  V30 4 2 4 5
M  V30 5 1 5 6
M  V30 6 2 6 7
M  V30 7 1 7 8
M  V30 8 1 7 9
M  V30 9 1 9 10
M  V30 10 2 10 11
M  V30 11 1 11 12
M  V30 12 2 12 13
M  V30 13 1 13 14
M  V30 14 1 13 15
M  V30 15 1 15 16
M  V30 16 1 15 17
M  V30 17 1 17 18
M  V30 18 2 18 19
M  V30 19 2 9 20
M  V30 20 1 20 21
M  V30 21 2 21 22
M  V30 22 1 22 23
M  V30 23 1 23 24
M  V30 24 1 24 25
M  V30 25 1 24 26
M  V30 26 1 24 27
M  V30 27 1 22 2
M  V30 28 1 20 4
M  V30 29 1 14 10
M  V30 30 1 18 12
M  V30 31 1 1 28
M  V30 32 1 1 29
M  V30 33 1 1 30
M  V30 34 1 5 31
M  V30 35 1 6 32
M  V30 36 1 11 33
M  V30 37 1 14 34
M  V30 38 1 15 35 CFG=1
M  V30 39 1 16 36
M  V30 40 1 16 37
M  V30 41 1 16 38
M  V30 42 1 17 39
M  V30 43 1 23 40
M  V30 44 1 25 41
M  V30 45 1 25 42
M  V30 46 1 25 43
M  V30 47 1 26 44
M  V30 48 1 26 45
M  V30 49 1 26 46
M  V30 50 1 27 47
M  V30 51 1 27 48
M  V30 52 1 27 49
M  V30 END BOND
M  V30 END CTAB
M  END
>  <Dataset>  (274) 
ChEMBL_Kinases

>  <Ligand_Instance>  (274) 
nan

>  <PDB_ID>  (274) 
nan

>  <Standardized_SMILES>  (274) 
Cc1nc2ccc(F)c(-c3cc4c([nH]3)[C@@H](C)NC4=O)c2nc1NC(C)(C)C

>  <Name>  (274) 
nan

>  <Pocket>  (274) 
nan

>  <ATP_Site>  (274) 
nan

>  <Peripheral>  (274) 
nan

>  <Num_H_Atoms_ProtBoundConf>  (274) 
nan

>  <Num_Resolved_Atoms>  (274) 
nan

>  <Num_Not_Resolved_Atoms>  (274) 
nan

$$$$
CHEMBL3979164
     RDKit          3D

  0  0  0  0  0  0  0  0  0  0999 V3000
M  V30 BEGIN CTAB
M  V30 COUNTS 38 41 0 0 0
M  V30 BEGIN ATOM
M  V30 1 C -0.410292 -1.984091 3.625716 0
M  V30 2 C -0.322514 -1.224010 2.564429 0
M  V30 3 C 0.500749 -1.572617 1.405239 0
M  V30 4 N 1.259858 -2.648383 1.222552 0
M  V30 5 N 1.872191 -2.635148 0.038073 0
M  V30 6 C 1.503842 -1.506196 -0.587647 0
M  V30 7 C 1.806911 -0.941621 -1.832222 0
M  V30 8 C 1.245860 0.267840 -2.185742 0
M  V30 9 C 1.521997 0.909719 -3.473951 0
M  V30 10 C 1.769577 0.146123 -4.596274 0
M  V30 11 C 2.023164 0.809006 -5.781557 0
M  V30 12 N 2.044912 2.145465 -5.915203 0
M  V30 13 C 1.803284 2.915213 -4.820261 0
M  V30 14 C 1.540853 2.293427 -3.594975 0
M  V30 15 C 0.382787 0.962864 -1.356132 0
M  V30 16 C 0.101559 0.381446 -0.133925 0
M  V30 17 C 0.645573 -0.828823 0.253249 0
M  V30 18 C -1.198181 -1.715234 4.811551 0
M  V30 19 C -1.954785 -0.579408 4.921336 0
M  V30 20 C -2.670918 -0.433175 6.113106 0
M  V30 21 C -2.677861 -1.320080 7.165116 0
M  V30 22 C -1.901601 -2.457877 7.020083 0
M  V30 23 C -1.179945 -2.627425 5.845171 0
M  V30 24 H 0.190776 -2.897063 3.554333 0
M  V30 25 H -0.884128 -0.301018 2.548742 0
M  V30 26 H 2.528431 -3.347625 -0.376286 0
M  V30 27 H 2.468158 -1.446294 -2.501534 0
M  V30 28 H 1.757657 -0.926559 -4.514718 0
M  V30 29 H 2.210915 0.182357 -6.630671 0
M  V30 30 H 1.818263 4.006396 -4.917710 0
M  V30 31 H 1.351240 2.918873 -2.736205 0
M  V30 32 H -0.068013 1.912722 -1.614210 0
M  V30 33 H -0.576539 0.904505 0.544425 0
M  V30 34 H -2.016199 0.173113 4.156225 0
M  V30 35 H -3.278975 0.466498 6.217416 0
M  V30 36 H -3.274835 -1.098034 8.042495 0
M  V30 37 H -1.878321 -3.177244 7.817781 0
M  V30 38 H -0.580734 -3.548776 5.784364 0
M  V30 END ATOM
M  V30 BEGIN BOND
M  V30 1 2 1 2
M  V30 2 1 2 3
M  V30 3 2 3 4
M  V30 4 1 4 5
M  V30 5 1 5 6
M  V30 6 2 6 7
M  V30 7 1 7 8
M  V30 8 1 8 9
M  V30 9 2 9 10
M  V30 10 1 10 11
M  V30 11 2 11 12
M  V30 12 1 12 13
M  V30 13 2 13 14
M  V30 14 2 8 15
M  V30 15 1 15 16
M  V30 16 2 16 17
M  V30 17 1 1 18
M  V30 18 2 18 19
M  V30 19 1 19 20
M  V30 20 2 20 21
M  V30 21 1 21 22
M  V30 22 2 22 23
M  V30 23 1 17 3
M  V30 24 1 23 18
M  V30 25 1 17 6
M  V30 26 1 14 9
M  V30 27 1 1 24
M  V30 28 1 2 25
M  V30 29 1 5 26
M  V30 30 1 7 27
M  V30 31 1 10 28
M  V30 32 1 11 29
M  V30 33 1 13 30
M  V30 34 1 14 31
M  V30 35 1 15 32
M  V30 36 1 16 33
M  V30 37 1 19 34
M  V30 38 1 20 35
M  V30 39 1 21 36
M  V30 40 1 22 37
M  V30 41 1 23 38
M  V30 END BOND
M  V30 END CTAB
M  END
>  <Dataset>  (275) 
ChEMBL_Kinases

>  <Ligand_Instance>  (275) 
nan

>  <PDB_ID>  (275) 
nan

>  <Standardized_SMILES>  (275) 
C(=C/c1n[nH]c2cc(-c3ccncc3)ccc12)\c1ccccc1

>  <Name>  (275) 
nan

>  <Pocket>  (275) 
nan

>  <ATP_Site>  (275) 
nan

>  <Peripheral>  (275) 
nan

>  <Num_H_Atoms_ProtBoundConf>  (275) 
nan

>  <Num_Resolved_Atoms>  (275) 
nan

>  <Num_Not_Resolved_Atoms>  (275) 
nan

$$$$
CHEMBL3950192
     RDKit          3D

  0  0  0  0  0  0  0  0  0  0999 V3000
M  V30 BEGIN CTAB
M  V30 COUNTS 42 45 0 0 0
M  V30 BEGIN ATOM
M  V30 1 N 2.106637 -4.959319 1.697886 0
M  V30 2 C 1.699084 -4.035543 0.650455 0 CFG=1
M  V30 3 C 0.222583 -3.814055 0.619495 0
M  V30 4 C -0.126443 -2.928069 -0.534791 0
M  V30 5 C 1.011506 -2.064319 -1.006528 0
M  V30 6 N 1.903347 -1.687138 0.040156 0
M  V30 7 C 2.557274 -0.452105 0.400443 0
M  V30 8 C 3.936445 -0.426826 0.390804 0
M  V30 9 C 4.682555 0.686348 0.709554 0
M  V30 10 N 3.967767 1.796893 1.045577 0
M  V30 11 C 2.623663 1.758909 1.051028 0
M  V30 12 C 1.822465 0.681104 0.743448 0
M  V30 13 N 0.426252 0.683194 0.762506 0
M  V30 14 C -0.437161 1.764284 1.091292 0
M  V30 15 N -0.117140 3.008267 1.451954 0
M  V30 16 C -1.222712 3.701435 1.670513 0
M  V30 17 C -2.292508 2.867421 1.440438 0
M  V30 18 C -3.645800 3.131402 1.536641 0
M  V30 19 C -4.482418 2.076139 1.238599 0
M  V30 20 C -3.968524 0.857709 0.873983 0
M  V30 21 Cl -5.066215 -0.477457 0.497714 0
M  V30 22 N -2.635820 0.692736 0.807121 0
M  V30 23 N -1.785018 1.678988 1.084723 0
M  V30 24 C 2.314181 -2.685279 1.015200 0
M  V30 25 H 3.130762 -5.145347 1.533031 0
M  V30 26 H 1.600301 -5.858857 1.594000 0
M  V30 27 H 2.060146 -4.435410 -0.294819 0
M  V30 28 H -0.049927 -3.293336 1.584892 0
M  V30 29 H -0.336229 -4.792516 0.565378 0
M  V30 30 H -0.416026 -3.617004 -1.376949 0
M  V30 31 H -1.010115 -2.335003 -0.222519 0
M  V30 32 H 0.649981 -1.228574 -1.624953 0
M  V30 33 H 1.611655 -2.698592 -1.723205 0
M  V30 34 H 4.529209 -1.291693 0.127375 0
M  V30 35 H 5.742703 0.697593 0.699802 0
M  V30 36 H 2.193119 2.695469 1.332301 0
M  V30 37 H -0.024480 -0.243310 0.497038 0
M  V30 38 H -1.171859 4.742739 1.975363 0
M  V30 39 H -3.976550 4.125573 1.832870 0
M  V30 40 H -5.543364 2.242115 1.301967 0
M  V30 41 H 1.969081 -2.422999 2.028136 0
M  V30 42 H 3.412482 -2.788113 0.923798 0
M  V30 END ATOM
M  V30 BEGIN BOND
M  V30 1 1 1 2
M  V30 2 1 2 3
M  V30 3 1 3 4
M  V30 4 1 4 5
M  V30 5 1 5 6
M  V30 6 1 6 7
M  V30 7 2 7 8
M  V30 8 1 8 9
M  V30 9 2 9 10
M  V30 10 1 10 11
M  V30 11 2 11 12
M  V30 12 1 12 13
M  V30 13 1 13 14
M  V30 14 2 14 15
M  V30 15 1 15 16
M  V30 16 2 16 17
M  V30 17 1 17 18
M  V30 18 2 18 19
M  V30 19 1 19 20
M  V30 20 1 20 21
M  V30 21 2 20 22
M  V30 22 1 22 23
M  V30 23 1 6 24
M  V30 24 1 24 2
M  V30 25 1 12 7
M  V30 26 1 23 14
M  V30 27 1 23 17
M  V30 28 1 1 25
M  V30 29 1 1 26
M  V30 30 1 2 27 CFG=3
M  V30 31 1 3 28
M  V30 32 1 3 29
M  V30 33 1 4 30
M  V30 34 1 4 31
M  V30 35 1 5 32
M  V30 36 1 5 33
M  V30 37 1 8 34
M  V30 38 1 9 35
M  V30 39 1 11 36
M  V30 40 1 13 37
M  V30 41 1 16 38
M  V30 42 1 18 39
M  V30 43 1 19 40
M  V30 44 1 24 41
M  V30 45 1 24 42
M  V30 END BOND
M  V30 END CTAB
M  END
>  <Dataset>  (276) 
ChEMBL_Kinases

>  <Ligand_Instance>  (276) 
nan

>  <PDB_ID>  (276) 
nan

>  <Standardized_SMILES>  (276) 
N[C@H]1CCCN(c2ccncc2Nc2ncc3ccc(Cl)nn23)C1

>  <Name>  (276) 
nan

>  <Pocket>  (276) 
nan

>  <ATP_Site>  (276) 
nan

>  <Peripheral>  (276) 
nan

>  <Num_H_Atoms_ProtBoundConf>  (276) 
nan

>  <Num_Resolved_Atoms>  (276) 
nan

>  <Num_Not_Resolved_Atoms>  (276) 
nan

$$$$
CHEMBL3978002
     RDKit          3D

  0  0  0  0  0  0  0  0  0  0999 V3000
M  V30 BEGIN CTAB
M  V30 COUNTS 49 53 0 0 0
M  V30 BEGIN ATOM
M  V30 1 C 1.643166 -1.258301 6.314639 0
M  V30 2 C 2.722265 -0.653616 5.468534 0
M  V30 3 C 2.396269 0.167858 4.409908 0
M  V30 4 C 3.640607 0.524976 3.879443 0
M  V30 5 C 3.738436 1.431801 2.687620 0 CFG=1
M  V30 6 C 3.817218 2.879703 3.110333 0
M  V30 7 O 4.881489 1.035350 1.989290 0
M  V30 8 C 2.543962 1.304932 1.845349 0
M  V30 9 C 1.550300 1.193758 1.166458 0
M  V30 10 C 0.355334 1.075597 0.372459 0
M  V30 11 C -0.427185 2.152595 0.002771 0
M  V30 12 C -1.568056 2.005959 -0.759662 0
M  V30 13 C -1.934378 0.738406 -1.163317 0
M  V30 14 C -1.130229 -0.349174 -0.780913 0
M  V30 15 C 0.008871 -0.182615 -0.017040 0
M  V30 16 C -1.368092 -1.780928 -1.122257 0
M  V30 17 N -0.599985 -2.830279 -0.750793 0
M  V30 18 C -1.117213 -3.971667 -1.238977 0
M  V30 19 C -0.594144 -5.321885 -1.067866 0
M  V30 20 N -1.268946 -6.425943 -1.655406 0
M  V30 21 O 0.449849 -5.557642 -0.409416 0
M  V30 22 C -2.251796 -3.627035 -1.942943 0
M  V30 23 N -2.407687 -2.271557 -1.871164 0
M  V30 24 C -3.487700 -1.470143 -2.480323 0
M  V30 25 C -4.070787 -0.482472 -1.485021 0
M  V30 26 C -3.194600 0.650014 -1.995922 0
M  V30 27 C -2.910317 -0.250366 -3.186926 0
M  V30 28 N 4.591494 -0.061594 4.598955 0
M  V30 29 O 4.036974 -0.763118 5.545219 0
M  V30 30 H 2.119963 -1.999006 6.962625 0
M  V30 31 H 0.926261 -1.772272 5.653274 0
M  V30 32 H 1.069491 -0.469279 6.838410 0
M  V30 33 H 1.413354 0.487172 4.041802 0
M  V30 34 H 3.017638 3.070329 3.852649 0
M  V30 35 H 3.656973 3.507874 2.220032 0
M  V30 36 H 4.844972 3.074952 3.531888 0
M  V30 37 H 5.406195 1.816935 1.681453 0
M  V30 38 H -0.126908 3.133192 0.326043 0
M  V30 39 H -2.194782 2.816944 -1.062462 0
M  V30 40 H 0.556030 -1.080843 0.222557 0
M  V30 41 H -1.784210 -7.194007 -2.135991 0
M  V30 42 H -1.225283 -7.375856 -1.182148 0
M  V30 43 H -2.948497 -4.261552 -2.484216 0
M  V30 44 H -4.181182 -2.081629 -3.047066 0
M  V30 45 H -5.143980 -0.267451 -1.628313 0
M  V30 46 H -3.852355 -0.744061 -0.416216 0
M  V30 47 H -3.664107 1.605038 -2.183892 0
M  V30 48 H -1.833240 -0.367140 -3.358305 0
M  V30 49 H -3.508554 0.090595 -4.049553 0
M  V30 END ATOM
M  V30 BEGIN BOND
M  V30 1 1 1 2
M  V30 2 2 2 3
M  V30 3 1 3 4
M  V30 4 1 4 5
M  V30 5 1 5 6
M  V30 6 1 5 7
M  V30 7 1 5 8 CFG=3
M  V30 8 3 8 9
M  V30 9 1 9 10
M  V30 10 1 10 11
M  V30 11 2 11 12
M  V30 12 1 12 13
M  V30 13 2 13 14
M  V30 14 1 14 15
M  V30 15 1 14 16
M  V30 16 2 16 17
M  V30 17 1 17 18
M  V30 18 1 18 19
M  V30 19 1 19 20
M  V30 20 2 19 21
M  V30 21 2 18 22
M  V30 22 1 22 23
M  V30 23 1 23 24
M  V30 24 1 24 25
M  V30 25 1 25 26
M  V30 26 1 26 27
M  V30 27 2 4 28
M  V30 28 1 28 29
M  V30 29 1 29 2
M  V30 30 2 15 10
M  V30 31 1 23 16
M  V30 32 1 27 24
M  V30 33 1 26 13
M  V30 34 1 1 30
M  V30 35 1 1 31
M  V30 36 1 1 32
M  V30 37 1 3 33
M  V30 38 1 6 34
M  V30 39 1 6 35
M  V30 40 1 6 36
M  V30 41 1 7 37
M  V30 42 1 11 38
M  V30 43 1 12 39
M  V30 44 1 15 40
M  V30 45 1 20 41
M  V30 46 1 20 42
M  V30 47 1 22 43
M  V30 48 1 24 44
M  V30 49 1 25 45
M  V30 50 1 25 46
M  V30 51 1 26 47
M  V30 52 1 27 48
M  V30 53 1 27 49
M  V30 END BOND
M  V30 END CTAB
M  END
>  <Dataset>  (277) 
ChEMBL_Kinases

>  <Ligand_Instance>  (277) 
nan

>  <PDB_ID>  (277) 
nan

>  <Standardized_SMILES>  (277) 
Cc1cc([C@@](C)(O)C#Cc2ccc3c(c2)-c2nc(C(N)=O)cn2C2CC3C2)no1

>  <Name>  (277) 
nan

>  <Pocket>  (277) 
nan

>  <ATP_Site>  (277) 
nan

>  <Peripheral>  (277) 
nan

>  <Num_H_Atoms_ProtBoundConf>  (277) 
nan

>  <Num_Resolved_Atoms>  (277) 
nan

>  <Num_Not_Resolved_Atoms>  (277) 
nan

$$$$
CHEMBL397771
     RDKit          3D

  0  0  0  0  0  0  0  0  0  0999 V3000
M  V30 BEGIN CTAB
M  V30 COUNTS 75 82 0 0 0
M  V30 BEGIN ATOM
M  V30 1 O -1.626171 1.085722 4.024018 0
M  V30 2 C -0.484204 0.652950 3.631374 0
M  V30 3 N 0.438478 0.079285 4.586902 0
M  V30 4 C 1.568558 -0.275204 3.797808 0
M  V30 5 O 2.527109 -0.806077 4.408230 0
M  V30 6 C 1.352317 0.068104 2.405876 0
M  V30 7 C 0.149743 0.607007 2.318644 0
M  V30 8 C -0.701516 1.160037 1.241051 0
M  V30 9 C -1.632046 0.545782 0.434443 0
M  V30 10 N -2.185407 1.405565 -0.414537 0
M  V30 11 C -1.596326 2.624887 -0.153613 0
M  V30 12 C -1.691481 3.936707 -0.634253 0
M  V30 13 C -0.978150 5.019493 -0.182432 0
M  V30 14 C -0.081281 4.804138 0.840587 0
M  V30 15 C 0.061262 3.533731 1.358962 0
M  V30 16 C -0.665767 2.487599 0.881423 0
M  V30 17 C -3.193511 1.289975 -1.418959 0
M  V30 18 C -2.908145 0.639149 -2.702695 0
M  V30 19 C -2.880700 -0.813209 -2.859963 0
M  V30 20 C -1.964645 -1.673244 -2.131268 0
M  V30 21 C -0.617498 -1.828439 -2.367522 0
M  V30 22 C 0.122117 -2.725620 -1.623932 0
M  V30 23 N -0.531558 -3.423601 -0.677632 0
M  V30 24 C -1.813455 -3.356677 -0.365439 0
M  V30 25 N -2.425158 -4.137684 0.657811 0
M  V30 26 C -1.740434 -5.110085 1.487769 0
M  V30 27 C -2.438894 -4.976240 2.824396 0
M  V30 28 C -3.748793 -4.261248 2.572090 0
M  V30 29 C -3.820083 -4.104027 1.050485 0
M  V30 30 C -2.534838 -2.457566 -1.116342 0
M  V30 31 C 1.558426 -3.047283 -1.699368 0
M  V30 32 C 2.428233 -2.171981 -2.492146 0
M  V30 33 C 2.555437 -0.750782 -2.168864 0
M  V30 34 N 2.980906 -0.464776 -0.810431 0
M  V30 35 C 1.918860 -0.377364 0.003727 0
M  V30 36 C 2.259031 -0.094199 1.304472 0
M  V30 37 C 3.634642 -0.010583 1.235873 0
M  V30 38 C 4.675662 0.241979 2.093194 0
M  V30 39 C 6.008275 0.270573 1.737091 0
M  V30 40 C 6.351198 0.030549 0.422693 0
M  V30 41 C 5.368814 -0.232410 -0.512444 0
M  V30 42 C 4.068829 -0.237870 -0.054814 0
M  V30 43 H 0.257465 -0.027002 5.629676 0
M  V30 44 H -1.696318 -0.494892 0.687984 0
M  V30 45 H -2.389119 4.110401 -1.432077 0
M  V30 46 H -1.128878 5.977598 -0.620441 0
M  V30 47 H 0.467813 5.669307 1.179946 0
M  V30 48 H 0.792329 3.504070 2.150544 0
M  V30 49 H -4.077073 0.659539 -0.976419 0
M  V30 50 H -3.730204 2.275683 -1.539135 0
M  V30 51 H -1.945037 1.099544 -3.085602 0
M  V30 52 H -3.690784 1.026994 -3.450236 0
M  V30 53 H -2.823478 -1.064578 -3.996020 0
M  V30 54 H -3.961840 -1.166275 -2.668674 0
M  V30 55 H -0.281646 -1.188281 -3.169452 0
M  V30 56 H -0.653991 -4.937936 1.575623 0
M  V30 57 H -1.979162 -6.133186 1.124144 0
M  V30 58 H -2.653124 -5.969285 3.277713 0
M  V30 59 H -1.776197 -4.400265 3.528183 0
M  V30 60 H -4.628222 -4.833833 2.891909 0
M  V30 61 H -3.728314 -3.247604 3.060807 0
M  V30 62 H -4.428357 -4.917399 0.607848 0
M  V30 63 H -4.333154 -3.163763 0.858919 0
M  V30 64 H -3.609284 -2.379097 -0.877919 0
M  V30 65 H 1.661050 -4.082438 -2.161208 0
M  V30 66 H 1.916293 -3.223406 -0.656284 0
M  V30 67 H 3.450892 -2.628367 -2.518814 0
M  V30 68 H 2.087733 -2.247726 -3.566898 0
M  V30 69 H 1.700231 -0.165602 -2.485344 0
M  V30 70 H 3.414648 -0.349733 -2.799033 0
M  V30 71 H 0.863252 -0.480134 -0.161319 0
M  V30 72 H 4.481530 0.449047 3.132160 0
M  V30 73 H 6.793939 0.472360 2.441160 0
M  V30 74 H 7.387388 0.047480 0.121275 0
M  V30 75 H 5.627898 -0.419398 -1.534433 0
M  V30 END ATOM
M  V30 BEGIN BOND
M  V30 1 2 1 2
M  V30 2 1 2 3
M  V30 3 1 3 4
M  V30 4 2 4 5
M  V30 5 1 4 6
M  V30 6 2 6 7
M  V30 7 1 7 8
M  V30 8 2 8 9
M  V30 9 1 9 10
M  V30 10 1 10 11
M  V30 11 2 11 12
M  V30 12 1 12 13
M  V30 13 2 13 14
M  V30 14 1 14 15
M  V30 15 2 15 16
M  V30 16 1 10 17
M  V30 17 1 17 18
M  V30 18 1 18 19
M  V30 19 1 19 20
M  V30 20 1 20 21
M  V30 21 2 21 22
M  V30 22 1 22 23
M  V30 23 2 23 24
M  V30 24 1 24 25
M  V30 25 1 25 26
M  V30 26 1 26 27
M  V30 27 1 27 28
M  V30 28 1 28 29
M  V30 29 1 24 30
M  V30 30 1 22 31
M  V30 31 1 31 32
M  V30 32 1 32 33
M  V30 33 1 33 34
M  V30 34 1 34 35
M  V30 35 2 35 36
M  V30 36 1 36 37
M  V30 37 2 37 38
M  V30 38 1 38 39
M  V30 39 2 39 40
M  V30 40 1 40 41
M  V30 41 2 41 42
M  V30 42 1 7 2
M  V30 43 1 16 8
M  V30 44 2 30 20
M  V30 45 1 42 34
M  V30 46 1 36 6
M  V30 47 1 42 37
M  V30 48 1 16 11
M  V30 49 1 29 25
M  V30 50 1 3 43
M  V30 51 1 9 44
M  V30 52 1 12 45
M  V30 53 1 13 46
M  V30 54 1 14 47
M  V30 55 1 15 48
M  V30 56 1 17 49
M  V30 57 1 17 50
M  V30 58 1 18 51
M  V30 59 1 18 52
M  V30 60 1 19 53
M  V30 61 1 19 54
M  V30 62 1 21 55
M  V30 63 1 26 56
M  V30 64 1 26 57
M  V30 65 1 27 58
M  V30 66 1 27 59
M  V30 67 1 28 60
M  V30 68 1 28 61
M  V30 69 1 29 62
M  V30 70 1 29 63
M  V30 71 1 30 64
M  V30 72 1 31 65
M  V30 73 1 31 66
M  V30 74 1 32 67
M  V30 75 1 32 68
M  V30 76 1 33 69
M  V30 77 1 33 70
M  V30 78 1 35 71
M  V30 79 1 38 72
M  V30 80 1 39 73
M  V30 81 1 40 74
M  V30 82 1 41 75
M  V30 END BOND
M  V30 END CTAB
M  END
>  <Dataset>  (278) 
ChEMBL_Kinases

>  <Ligand_Instance>  (278) 
nan

>  <PDB_ID>  (278) 
nan

>  <Standardized_SMILES>  (278) 
O=C1NC(=O)C2=C1c1cn(c3ccccc13)CCCc1cc(nc(N3CCCC3)c1)CCCn1cc2c2ccccc21

>  <Name>  (278) 
nan

>  <Pocket>  (278) 
nan

>  <ATP_Site>  (278) 
nan

>  <Peripheral>  (278) 
nan

>  <Num_H_Atoms_ProtBoundConf>  (278) 
nan

>  <Num_Resolved_Atoms>  (278) 
nan

>  <Num_Not_Resolved_Atoms>  (278) 
nan

$$$$
CHEMBL3648082
     RDKit          3D

  0  0  0  0  0  0  0  0  0  0999 V3000
M  V30 BEGIN CTAB
M  V30 COUNTS 47 48 0 0 0
M  V30 BEGIN ATOM
M  V30 1 C -0.588719 -6.108634 2.626935 0
M  V30 2 O -1.616668 -5.145213 2.514808 0
M  V30 3 C -1.387374 -3.943989 1.870740 0
M  V30 4 C -0.195443 -3.560436 1.291716 0
M  V30 5 C -0.045589 -2.340011 0.665110 0
M  V30 6 N 1.191574 -2.005419 0.094586 0
M  V30 7 C 1.429919 -0.770703 -0.570154 0
M  V30 8 N 1.150026 -0.883916 -1.871120 0
M  V30 9 C 1.291564 0.149635 -2.732964 0
M  V30 10 C 1.742501 1.319407 -2.173889 0
M  V30 11 Br 2.007034 2.885029 -3.214660 0
M  V30 12 C 2.051569 1.517122 -0.850407 0
M  V30 13 O 2.491025 2.449175 0.018339 0
M  V30 14 C 2.855454 3.768953 -0.114396 0 CFG=2
M  V30 15 C 4.313663 3.993060 0.287876 0
M  V30 16 C 1.947854 4.674102 0.705767 0 CFG=2
M  V30 17 C 1.959492 4.364580 2.163355 0
M  V30 18 O 0.650752 4.488906 0.228769 0
M  V30 19 N 1.876906 0.414212 -0.055487 0
M  V30 20 C -1.092643 -1.441480 0.590049 0
M  V30 21 C -2.292714 -1.810270 1.164834 0
M  V30 22 C -2.429025 -3.043232 1.792829 0
M  V30 23 S -3.988187 -3.468606 2.513958 0
M  V30 24 C -4.541490 -4.956221 1.679390 0
M  V30 25 N -5.019736 -2.362915 2.238313 0
M  V30 26 O -3.880631 -3.717333 3.979956 0
M  V30 27 H 0.417644 -5.694533 2.748611 0
M  V30 28 H -0.634789 -6.876419 1.817502 0
M  V30 29 H -0.785906 -6.688110 3.575298 0
M  V30 30 H 0.623065 -4.236533 1.337846 0
M  V30 31 H 2.016915 -2.637341 0.119398 0
M  V30 32 H 1.106518 0.200711 -3.789242 0
M  V30 33 H 2.758857 4.100178 -1.160444 0
M  V30 34 H 4.713112 3.020262 0.584173 0
M  V30 35 H 4.330931 4.700457 1.137351 0
M  V30 36 H 4.891603 4.464018 -0.518523 0
M  V30 37 H 2.267738 5.717599 0.496822 0
M  V30 38 H 2.128101 5.309348 2.719373 0
M  V30 39 H 1.005269 3.929188 2.529282 0
M  V30 40 H 2.761176 3.667478 2.475245 0
M  V30 41 H 0.311920 3.627412 0.582893 0
M  V30 42 H -1.003208 -0.476845 0.104421 0
M  V30 43 H -3.107996 -1.100993 1.101839 0
M  V30 44 H -5.060435 -4.678443 0.715528 0
M  V30 45 H -5.198537 -5.557707 2.329466 0
M  V30 46 H -3.638585 -5.548247 1.413776 0
M  V30 47 H -5.194420 -1.651552 2.956728 0
M  V30 END ATOM
M  V30 BEGIN BOND
M  V30 1 1 1 2
M  V30 2 1 2 3
M  V30 3 2 3 4
M  V30 4 1 4 5
M  V30 5 1 5 6
M  V30 6 1 6 7
M  V30 7 2 7 8
M  V30 8 1 8 9
M  V30 9 2 9 10
M  V30 10 1 10 11
M  V30 11 1 10 12
M  V30 12 1 12 13
M  V30 13 1 13 14
M  V30 14 1 14 15
M  V30 15 1 14 16
M  V30 16 1 16 17
M  V30 17 1 16 18
M  V30 18 2 12 19
M  V30 19 2 5 20
M  V30 20 1 20 21
M  V30 21 2 21 22
M  V30 22 1 22 23
M  V30 23 1 23 24
M  V30 24 2 23 25
M  V30 25 2 23 26
M  V30 26 1 22 3
M  V30 27 1 19 7
M  V30 28 1 1 27
M  V30 29 1 1 28
M  V30 30 1 1 29
M  V30 31 1 4 30
M  V30 32 1 6 31
M  V30 33 1 9 32
M  V30 34 1 14 33 CFG=3
M  V30 35 1 15 34
M  V30 36 1 15 35
M  V30 37 1 15 36
M  V30 38 1 16 37 CFG=1
M  V30 39 1 17 38
M  V30 40 1 17 39
M  V30 41 1 17 40
M  V30 42 1 18 41
M  V30 43 1 20 42
M  V30 44 1 21 43
M  V30 45 1 24 44
M  V30 46 1 24 45
M  V30 47 1 24 46
M  V30 48 1 25 47
M  V30 END BOND
M  V30 END CTAB
M  END
>  <Dataset>  (279) 
ChEMBL_Kinases

>  <Ligand_Instance>  (279) 
nan

>  <PDB_ID>  (279) 
nan

>  <Standardized_SMILES>  (279) 
COc1cc(Nc2ncc(Br)c(O[C@H](C)[C@H](C)O)n2)ccc1S(C)(=N)=O

>  <Name>  (279) 
nan

>  <Pocket>  (279) 
nan

>  <ATP_Site>  (279) 
nan

>  <Peripheral>  (279) 
nan

>  <Num_H_Atoms_ProtBoundConf>  (279) 
nan

>  <Num_Resolved_Atoms>  (279) 
nan

>  <Num_Not_Resolved_Atoms>  (279) 
nan

$$$$
CHEMBL3648072
     RDKit          3D

  0  0  0  0  0  0  0  0  0  0999 V3000
M  V30 BEGIN CTAB
M  V30 COUNTS 47 48 0 0 0
M  V30 BEGIN ATOM
M  V30 1 C -0.560004 -4.271304 2.969821 0
M  V30 2 C -0.590763 -3.103749 1.947998 0 CFG=1
M  V30 3 N -0.777370 -3.704763 0.658033 0
M  V30 4 C -0.633189 -3.172212 -0.681261 0
M  V30 5 N -0.223606 -1.927423 -0.876528 0
M  V30 6 C -0.030068 -1.329082 -2.053356 0
M  V30 7 N 0.423773 0.001894 -2.232806 0
M  V30 8 C 0.838987 0.945734 -1.266615 0
M  V30 9 C 1.116418 2.271497 -1.581882 0
M  V30 10 C 1.529837 3.194708 -0.652183 0
M  V30 11 C 1.693765 2.844132 0.669645 0
M  V30 12 S 2.218825 4.027590 1.838165 0
M  V30 13 C 4.005468 4.021011 1.929590 0
M  V30 14 N 1.662985 5.443317 1.578399 0
M  V30 15 O 1.682419 3.580987 3.188491 0
M  V30 16 C 1.432844 1.541121 1.039898 0
M  V30 17 C 1.020749 0.653891 0.068513 0
M  V30 18 N -0.274249 -2.058784 -3.153570 0
M  V30 19 C -0.691928 -3.327622 -3.051972 0
M  V30 20 C -0.879366 -3.908809 -1.835819 0
M  V30 21 Br -1.472694 -5.712253 -1.641734 0
M  V30 22 C -1.833970 -2.327540 2.362979 0
M  V30 23 C -1.662309 -1.719848 3.731446 0
M  V30 24 C -2.200599 -1.235995 1.403568 0
M  V30 25 O -2.934898 -3.197276 2.427877 0
M  V30 26 H -1.589260 -4.598493 3.160284 0
M  V30 27 H -0.034591 -5.116063 2.437183 0
M  V30 28 H -0.016601 -3.993625 3.873634 0
M  V30 29 H 0.316869 -2.521721 2.082463 0
M  V30 30 H -1.078123 -4.724185 0.608534 0
M  V30 31 H 0.472174 0.380030 -3.227865 0
M  V30 32 H 0.999293 2.587402 -2.614754 0
M  V30 33 H 1.720908 4.199678 -0.990053 0
M  V30 34 H 4.402862 3.539147 1.015381 0
M  V30 35 H 4.371126 5.055617 2.033165 0
M  V30 36 H 4.334692 3.445640 2.828054 0
M  V30 37 H 1.540153 6.061269 2.413733 0
M  V30 38 H 1.565223 1.279461 2.076821 0
M  V30 39 H 0.850480 -0.327095 0.446947 0
M  V30 40 H -0.904977 -3.965861 -3.891671 0
M  V30 41 H -0.990213 -2.278210 4.389952 0
M  V30 42 H -2.691298 -1.633622 4.181879 0
M  V30 43 H -1.261135 -0.676109 3.601980 0
M  V30 44 H -2.630796 -1.631520 0.445453 0
M  V30 45 H -3.050659 -0.676142 1.915920 0
M  V30 46 H -1.393490 -0.514999 1.201854 0
M  V30 47 H -3.203611 -3.364092 3.346005 0
M  V30 END ATOM
M  V30 BEGIN BOND
M  V30 1 1 1 2
M  V30 2 1 2 3
M  V30 3 1 3 4
M  V30 4 2 4 5
M  V30 5 1 5 6
M  V30 6 1 6 7
M  V30 7 1 7 8
M  V30 8 2 8 9
M  V30 9 1 9 10
M  V30 10 2 10 11
M  V30 11 1 11 12
M  V30 12 1 12 13
M  V30 13 2 12 14
M  V30 14 2 12 15
M  V30 15 1 11 16
M  V30 16 2 16 17
M  V30 17 2 6 18
M  V30 18 1 18 19
M  V30 19 2 19 20
M  V30 20 1 20 21
M  V30 21 1 2 22
M  V30 22 1 22 23
M  V30 23 1 22 24
M  V30 24 1 22 25
M  V30 25 1 20 4
M  V30 26 1 17 8
M  V30 27 1 1 26
M  V30 28 1 1 27
M  V30 29 1 1 28
M  V30 30 1 2 29 CFG=3
M  V30 31 1 3 30
M  V30 32 1 7 31
M  V30 33 1 9 32
M  V30 34 1 10 33
M  V30 35 1 13 34
M  V30 36 1 13 35
M  V30 37 1 13 36
M  V30 38 1 14 37
M  V30 39 1 16 38
M  V30 40 1 17 39
M  V30 41 1 19 40
M  V30 42 1 23 41
M  V30 43 1 23 42
M  V30 44 1 23 43
M  V30 45 1 24 44
M  V30 46 1 24 45
M  V30 47 1 24 46
M  V30 48 1 25 47
M  V30 END BOND
M  V30 END CTAB
M  END
>  <Dataset>  (280) 
ChEMBL_Kinases

>  <Ligand_Instance>  (280) 
nan

>  <PDB_ID>  (280) 
nan

>  <Standardized_SMILES>  (280) 
C[C@@H](Nc1nc(Nc2ccc(S(C)(=N)=O)cc2)ncc1Br)C(C)(C)O

>  <Name>  (280) 
nan

>  <Pocket>  (280) 
nan

>  <ATP_Site>  (280) 
nan

>  <Peripheral>  (280) 
nan

>  <Num_H_Atoms_ProtBoundConf>  (280) 
nan

>  <Num_Resolved_Atoms>  (280) 
nan

>  <Num_Not_Resolved_Atoms>  (280) 
nan

$$$$
CHEMBL3648073
     RDKit          3D

  0  0  0  0  0  0  0  0  0  0999 V3000
M  V30 BEGIN CTAB
M  V30 COUNTS 43 44 0 0 0
M  V30 BEGIN ATOM
M  V30 1 C -2.440681 -5.888758 -0.924505 0
M  V30 2 C -3.054683 -4.652184 -0.311921 0 CFG=2
M  V30 3 O -4.429979 -4.739404 -0.544209 0
M  V30 4 C -2.496829 -3.421901 -0.996138 0 CFG=1
M  V30 5 C -2.758721 -3.518637 -2.491518 0
M  V30 6 O -3.087214 -2.238926 -0.530830 0
M  V30 7 C -2.396053 -1.205166 0.059673 0
M  V30 8 N -1.072941 -1.266922 0.232230 0
M  V30 9 C -0.329820 -0.300066 0.799241 0
M  V30 10 N 1.071467 -0.468646 0.933545 0
M  V30 11 C 2.002022 0.438205 1.500759 0
M  V30 12 C 1.712870 1.671547 2.035731 0
M  V30 13 C 2.617868 2.552116 2.586640 0
M  V30 14 C 3.941875 2.168048 2.607631 0
M  V30 15 S 5.124183 3.260470 3.300194 0
M  V30 16 C 5.768493 4.352690 2.033185 0
M  V30 17 N 4.493987 4.088478 4.454433 0
M  V30 18 O 6.314333 2.541288 3.865203 0
M  V30 19 C 4.292358 0.941780 2.085309 0
M  V30 20 C 3.337945 0.107113 1.548431 0
M  V30 21 N -1.050435 0.746841 1.180866 0
M  V30 22 C -2.364048 0.925398 1.064574 0
M  V30 23 C -3.086505 -0.089138 0.478332 0
M  V30 24 Br -4.964096 0.087534 0.275306 0
M  V30 25 H -2.438143 -6.678041 -0.138451 0
M  V30 26 H -3.065967 -6.285676 -1.755483 0
M  V30 27 H -1.424660 -5.689947 -1.319329 0
M  V30 28 H -2.787189 -4.640117 0.760065 0
M  V30 29 H -4.907576 -4.539209 0.297131 0
M  V30 30 H -1.416362 -3.402791 -0.822169 0
M  V30 31 H -2.073037 -2.803722 -2.976201 0
M  V30 32 H -2.482922 -4.523777 -2.831506 0
M  V30 33 H -3.842932 -3.279237 -2.682875 0
M  V30 34 H 1.468176 -1.374627 0.568874 0
M  V30 35 H 0.693016 2.015327 2.042064 0
M  V30 36 H 2.324170 3.500632 2.987228 0
M  V30 37 H 6.572511 4.949725 2.503424 0
M  V30 38 H 4.969745 5.021430 1.643344 0
M  V30 39 H 6.221357 3.707380 1.254782 0
M  V30 40 H 4.772267 3.883694 5.412326 0
M  V30 41 H 5.338616 0.654965 2.109720 0
M  V30 42 H 3.708530 -0.834711 1.162685 0
M  V30 43 H -2.800028 1.847561 1.431001 0
M  V30 END ATOM
M  V30 BEGIN BOND
M  V30 1 1 1 2
M  V30 2 1 2 3
M  V30 3 1 2 4
M  V30 4 1 4 5
M  V30 5 1 4 6
M  V30 6 1 6 7
M  V30 7 2 7 8
M  V30 8 1 8 9
M  V30 9 1 9 10
M  V30 10 1 10 11
M  V30 11 2 11 12
M  V30 12 1 12 13
M  V30 13 2 13 14
M  V30 14 1 14 15
M  V30 15 1 15 16
M  V30 16 2 15 17
M  V30 17 2 15 18
M  V30 18 1 14 19
M  V30 19 2 19 20
M  V30 20 2 9 21
M  V30 21 1 21 22
M  V30 22 2 22 23
M  V30 23 1 23 24
M  V30 24 1 23 7
M  V30 25 1 20 11
M  V30 26 1 1 25
M  V30 27 1 1 26
M  V30 28 1 1 27
M  V30 29 1 2 28 CFG=1
M  V30 30 1 3 29
M  V30 31 1 4 30 CFG=3
M  V30 32 1 5 31
M  V30 33 1 5 32
M  V30 34 1 5 33
M  V30 35 1 10 34
M  V30 36 1 12 35
M  V30 37 1 13 36
M  V30 38 1 16 37
M  V30 39 1 16 38
M  V30 40 1 16 39
M  V30 41 1 17 40
M  V30 42 1 19 41
M  V30 43 1 20 42
M  V30 44 1 22 43
M  V30 END BOND
M  V30 END CTAB
M  END
>  <Dataset>  (281) 
ChEMBL_Kinases

>  <Ligand_Instance>  (281) 
nan

>  <PDB_ID>  (281) 
nan

>  <Standardized_SMILES>  (281) 
C[C@H](O)[C@@H](C)Oc1nc(Nc2ccc(S(C)(=N)=O)cc2)ncc1Br

>  <Name>  (281) 
nan

>  <Pocket>  (281) 
nan

>  <ATP_Site>  (281) 
nan

>  <Peripheral>  (281) 
nan

>  <Num_H_Atoms_ProtBoundConf>  (281) 
nan

>  <Num_Resolved_Atoms>  (281) 
nan

>  <Num_Not_Resolved_Atoms>  (281) 
nan

$$$$
CHEMBL3648074
     RDKit          3D

  0  0  0  0  0  0  0  0  0  0999 V3000
M  V30 BEGIN CTAB
M  V30 COUNTS 51 53 0 0 0
M  V30 BEGIN ATOM
M  V30 1 C -1.909085 -1.968202 1.988386 0
M  V30 2 C -3.172658 -2.240356 1.207198 0 CFG=1
M  V30 3 N -3.599185 -1.163378 0.362934 0
M  V30 4 C -2.786659 -0.544171 -0.654099 0
M  V30 5 N -1.519112 -0.922107 -0.896809 0
M  V30 6 C -0.737243 -0.358689 -1.831896 0
M  V30 7 N 0.562101 -0.936906 -1.887139 0
M  V30 8 C 1.538966 -0.274514 -1.059538 0
M  V30 9 C 1.190046 0.832422 -0.312389 0
M  V30 10 C 2.079466 1.525319 0.508279 0
M  V30 11 C 3.389283 1.068916 0.571744 0
M  V30 12 S 4.623948 1.843504 1.563465 0
M  V30 13 N 4.292535 3.337922 1.681632 0
M  V30 14 O 5.980668 1.707354 0.917889 0
M  V30 15 C 4.645029 1.120687 3.193187 0
M  V30 16 C 3.770131 1.659468 4.252320 0
M  V30 17 C 5.310043 1.864281 4.301452 0
M  V30 18 C 3.744705 -0.041825 -0.176115 0
M  V30 19 C 2.846011 -0.710982 -0.981309 0
M  V30 20 N -1.188657 0.651162 -2.608365 0
M  V30 21 C -2.456523 1.089067 -2.424365 0
M  V30 22 C -3.247358 0.502596 -1.462214 0
M  V30 23 Br -5.049020 1.100560 -1.175973 0
M  V30 24 C -3.233047 -3.601902 0.613398 0
M  V30 25 C -4.672421 -4.003382 0.367247 0
M  V30 26 C -2.442837 -3.844879 -0.615487 0
M  V30 27 O -2.770802 -4.495765 1.607347 0
M  V30 28 H -1.961225 -0.966436 2.460150 0
M  V30 29 H -0.980398 -2.155602 1.441585 0
M  V30 30 H -1.898904 -2.694010 2.841208 0
M  V30 31 H -3.956086 -2.277646 2.041935 0
M  V30 32 H -4.574022 -0.734837 0.430796 0
M  V30 33 H 0.900627 -1.764084 -2.437566 0
M  V30 34 H 0.189709 1.237362 -0.317382 0
M  V30 35 H 1.818537 2.383315 1.090377 0
M  V30 36 H 4.775474 4.047195 1.089161 0
M  V30 37 H 4.864200 0.033366 3.198796 0
M  V30 38 H 3.181341 2.567798 3.995039 0
M  V30 39 H 3.363190 0.970316 5.020961 0
M  V30 40 H 5.852369 1.296666 5.113414 0
M  V30 41 H 5.671252 2.897030 4.192328 0
M  V30 42 H 4.771225 -0.385407 -0.115348 0
M  V30 43 H 3.170984 -1.565473 -1.539709 0
M  V30 44 H -2.852875 1.895464 -3.026652 0
M  V30 45 H -4.640740 -4.981643 -0.164415 0
M  V30 46 H -5.146344 -4.196428 1.353417 0
M  V30 47 H -5.222581 -3.259089 -0.224770 0
M  V30 48 H -2.851342 -3.291179 -1.500193 0
M  V30 49 H -2.556169 -4.928528 -0.925093 0
M  V30 50 H -1.370578 -3.679576 -0.569214 0
M  V30 51 H -3.488267 -4.771484 2.225057 0
M  V30 END ATOM
M  V30 BEGIN BOND
M  V30 1 1 1 2
M  V30 2 1 2 3
M  V30 3 1 3 4
M  V30 4 2 4 5
M  V30 5 1 5 6
M  V30 6 1 6 7
M  V30 7 1 7 8
M  V30 8 2 8 9
M  V30 9 1 9 10
M  V30 10 2 10 11
M  V30 11 1 11 12
M  V30 12 2 12 13
M  V30 13 2 12 14
M  V30 14 1 12 15
M  V30 15 1 15 16
M  V30 16 1 16 17
M  V30 17 1 11 18
M  V30 18 2 18 19
M  V30 19 2 6 20
M  V30 20 1 20 21
M  V30 21 2 21 22
M  V30 22 1 22 23
M  V30 23 1 2 24
M  V30 24 1 24 25
M  V30 25 1 24 26
M  V30 26 1 24 27
M  V30 27 1 22 4
M  V30 28 1 19 8
M  V30 29 1 17 15
M  V30 30 1 1 28
M  V30 31 1 1 29
M  V30 32 1 1 30
M  V30 33 1 2 31 CFG=1
M  V30 34 1 3 32
M  V30 35 1 7 33
M  V30 36 1 9 34
M  V30 37 1 10 35
M  V30 38 1 13 36
M  V30 39 1 15 37
M  V30 40 1 16 38
M  V30 41 1 16 39
M  V30 42 1 17 40
M  V30 43 1 17 41
M  V30 44 1 18 42
M  V30 45 1 19 43
M  V30 46 1 21 44
M  V30 47 1 25 45
M  V30 48 1 25 46
M  V30 49 1 25 47
M  V30 50 1 26 48
M  V30 51 1 26 49
M  V30 52 1 26 50
M  V30 53 1 27 51
M  V30 END BOND
M  V30 END CTAB
M  END
>  <Dataset>  (282) 
ChEMBL_Kinases

>  <Ligand_Instance>  (282) 
nan

>  <PDB_ID>  (282) 
nan

>  <Standardized_SMILES>  (282) 
C[C@@H](Nc1nc(Nc2ccc(S(=N)(=O)C3CC3)cc2)ncc1Br)C(C)(C)O

>  <Name>  (282) 
nan

>  <Pocket>  (282) 
nan

>  <ATP_Site>  (282) 
nan

>  <Peripheral>  (282) 
nan

>  <Num_H_Atoms_ProtBoundConf>  (282) 
nan

>  <Num_Resolved_Atoms>  (282) 
nan

>  <Num_Not_Resolved_Atoms>  (282) 
nan

$$$$
CHEMBL3648076
     RDKit          3D

  0  0  0  0  0  0  0  0  0  0999 V3000
M  V30 BEGIN CTAB
M  V30 COUNTS 54 56 0 0 0
M  V30 BEGIN ATOM
M  V30 1 C -4.325931 -4.759787 -0.773523 0
M  V30 2 C -2.966508 -4.085716 -0.705446 0 CFG=1
M  V30 3 N -2.381527 -4.114210 0.597949 0
M  V30 4 C -1.233517 -3.634165 1.323132 0
M  V30 5 N -0.350933 -2.884127 0.649010 0
M  V30 6 C 0.757653 -2.350243 1.173871 0
M  V30 7 N 1.782401 -1.554608 0.622173 0
M  V30 8 C 1.724507 -0.148835 0.497138 0
M  V30 9 C 2.738379 0.687658 0.031550 0
M  V30 10 C 2.524358 2.048577 -0.045230 0
M  V30 11 C 1.319994 2.643888 0.326346 0
M  V30 12 S 1.029967 4.352795 0.236030 0
M  V30 13 N -0.470152 4.548913 -0.143166 0
M  V30 14 O 1.846583 4.945668 -0.885475 0
M  V30 15 C 1.296460 5.210174 1.741936 0
M  V30 16 C 2.667063 5.129999 2.308983 0
M  V30 17 C 3.315052 3.878809 2.696662 0
M  V30 18 C 2.730792 4.814507 3.797169 0
M  V30 19 C 0.293073 1.841988 0.792976 0
M  V30 20 C 0.542538 0.476945 0.857392 0
M  V30 21 N 0.982357 -2.595303 2.465818 0
M  V30 22 C 0.144196 -3.339337 3.210638 0
M  V30 23 C -0.987808 -3.878725 2.656522 0
M  V30 24 Br -2.241365 -4.946234 3.613160 0
M  V30 25 C -2.025681 -4.648148 -1.743386 0
M  V30 26 C -2.688883 -4.423880 -3.096190 0
M  V30 27 C -1.624229 -6.068879 -1.536115 0
M  V30 28 O -0.876899 -3.869031 -1.732550 0
M  V30 29 H -4.712348 -4.689113 0.287575 0
M  V30 30 H -5.041910 -4.198931 -1.376368 0
M  V30 31 H -4.303649 -5.814105 -1.028703 0
M  V30 32 H -3.148120 -3.028543 -0.988059 0
M  V30 33 H -2.983112 -4.670255 1.251384 0
M  V30 34 H 2.676431 -1.990626 0.264161 0
M  V30 35 H 3.653330 0.196369 -0.246396 0
M  V30 36 H 3.326907 2.678239 -0.409718 0
M  V30 37 H -0.672415 5.190377 -0.918723 0
M  V30 38 H 1.025765 6.282852 1.594934 0
M  V30 39 H 0.527957 4.848408 2.486883 0
M  V30 40 H 3.356359 5.965288 2.019032 0
M  V30 41 H 2.864755 2.885317 2.689741 0
M  V30 42 H 4.437791 3.844922 2.722564 0
M  V30 43 H 3.453016 5.367991 4.418062 0
M  V30 44 H 1.827513 4.474344 4.304099 0
M  V30 45 H -0.654110 2.244054 1.092411 0
M  V30 46 H -0.296824 -0.127068 1.233462 0
M  V30 47 H 0.247717 -3.588241 4.259382 0
M  V30 48 H -3.786714 -4.487438 -2.954637 0
M  V30 49 H -2.303631 -5.112759 -3.876634 0
M  V30 50 H -2.454263 -3.390609 -3.421235 0
M  V30 51 H -0.748771 -6.205451 -0.878490 0
M  V30 52 H -1.324003 -6.473810 -2.548477 0
M  V30 53 H -2.423182 -6.740350 -1.194708 0
M  V30 54 H -0.175471 -4.263008 -2.310213 0
M  V30 END ATOM
M  V30 BEGIN BOND
M  V30 1 1 1 2
M  V30 2 1 2 3
M  V30 3 1 3 4
M  V30 4 2 4 5
M  V30 5 1 5 6
M  V30 6 1 6 7
M  V30 7 1 7 8
M  V30 8 2 8 9
M  V30 9 1 9 10
M  V30 10 2 10 11
M  V30 11 1 11 12
M  V30 12 2 12 13
M  V30 13 2 12 14
M  V30 14 1 12 15
M  V30 15 1 15 16
M  V30 16 1 16 17
M  V30 17 1 17 18
M  V30 18 1 11 19
M  V30 19 2 19 20
M  V30 20 2 6 21
M  V30 21 1 21 22
M  V30 22 2 22 23
M  V30 23 1 23 24
M  V30 24 1 2 25
M  V30 25 1 25 26
M  V30 26 1 25 27
M  V30 27 1 25 28
M  V30 28 1 23 4
M  V30 29 1 20 8
M  V30 30 1 18 16
M  V30 31 1 1 29
M  V30 32 1 1 30
M  V30 33 1 1 31
M  V30 34 1 2 32 CFG=3
M  V30 35 1 3 33
M  V30 36 1 7 34
M  V30 37 1 9 35
M  V30 38 1 10 36
M  V30 39 1 13 37
M  V30 40 1 15 38
M  V30 41 1 15 39
M  V30 42 1 16 40
M  V30 43 1 17 41
M  V30 44 1 17 42
M  V30 45 1 18 43
M  V30 46 1 18 44
M  V30 47 1 19 45
M  V30 48 1 20 46
M  V30 49 1 22 47
M  V30 50 1 26 48
M  V30 51 1 26 49
M  V30 52 1 26 50
M  V30 53 1 27 51
M  V30 54 1 27 52
M  V30 55 1 27 53
M  V30 56 1 28 54
M  V30 END BOND
M  V30 END CTAB
M  END
>  <Dataset>  (283) 
ChEMBL_Kinases

>  <Ligand_Instance>  (283) 
nan

>  <PDB_ID>  (283) 
nan

>  <Standardized_SMILES>  (283) 
C[C@@H](Nc1nc(Nc2ccc(S(=N)(=O)CC3CC3)cc2)ncc1Br)C(C)(C)O

>  <Name>  (283) 
nan

>  <Pocket>  (283) 
nan

>  <ATP_Site>  (283) 
nan

>  <Peripheral>  (283) 
nan

>  <Num_H_Atoms_ProtBoundConf>  (283) 
nan

>  <Num_Resolved_Atoms>  (283) 
nan

>  <Num_Not_Resolved_Atoms>  (283) 
nan

$$$$
CHEMBL3648078
     RDKit          3D

  0  0  0  0  0  0  0  0  0  0999 V3000
M  V30 BEGIN CTAB
M  V30 COUNTS 57 59 0 0 0
M  V30 BEGIN ATOM
M  V30 1 C -2.956994 -5.165407 0.379662 0
M  V30 2 C -1.805142 -4.201481 -0.001836 0 CFG=1
M  V30 3 N -0.527839 -4.878374 0.024755 0
M  V30 4 C 0.852118 -4.436364 -0.010256 0
M  V30 5 N 1.178525 -3.147657 -0.042786 0
M  V30 6 C 2.438693 -2.711970 -0.054035 0
M  V30 7 N 2.849432 -1.358655 -0.075606 0
M  V30 8 C 2.062593 -0.187121 -0.019410 0
M  V30 9 C 2.592746 1.092784 -0.190719 0
M  V30 10 C 1.829601 2.232543 -0.127449 0
M  V30 11 C 0.477146 2.180211 0.112072 0
M  V30 12 S -0.381972 3.680042 0.169630 0
M  V30 13 N -1.847085 3.381034 -0.275925 0
M  V30 14 O 0.138740 4.707042 -0.786352 0
M  V30 15 C -0.437859 4.374960 1.801808 0
M  V30 16 C 0.911481 4.572885 2.408960 0
M  V30 17 C 1.205285 3.383545 3.284080 0
M  V30 18 C -0.111486 2.688233 3.499341 0
M  V30 19 C -1.153503 3.453113 2.737885 0
M  V30 20 C -0.101269 0.940983 0.289466 0
M  V30 21 C 0.707230 -0.169774 0.216609 0
M  V30 22 N 3.400671 -3.642901 -0.031102 0
M  V30 23 C 3.158100 -4.957643 0.002141 0
M  V30 24 C 1.850264 -5.363645 0.012903 0
M  V30 25 Br 1.472720 -7.226507 0.060252 0
M  V30 26 C -2.206034 -3.732726 -1.385203 0
M  V30 27 C -2.467464 -4.977100 -2.241636 0
M  V30 28 C -1.181716 -2.923174 -2.097218 0
M  V30 29 O -3.433825 -3.101030 -1.272058 0
M  V30 30 H -2.878345 -5.416069 1.458995 0
M  V30 31 H -3.874180 -4.648364 0.101428 0
M  V30 32 H -2.816194 -6.068883 -0.234274 0
M  V30 33 H -1.782224 -3.353107 0.693504 0
M  V30 34 H -0.653194 -5.937138 0.080458 0
M  V30 35 H 3.878799 -1.143582 -0.142175 0
M  V30 36 H 3.662112 1.184406 -0.383126 0
M  V30 37 H 2.339298 3.183193 -0.274940 0
M  V30 38 H -2.449696 4.224828 -0.413011 0
M  V30 39 H -1.004928 5.328119 1.738374 0
M  V30 40 H 1.695876 4.735573 1.642241 0
M  V30 41 H 0.832857 5.457136 3.107055 0
M  V30 42 H 1.915790 2.727681 2.728863 0
M  V30 43 H 1.673215 3.692721 4.251002 0
M  V30 44 H -0.351107 2.669636 4.593560 0
M  V30 45 H -0.051532 1.657852 3.097040 0
M  V30 46 H -1.743358 4.050796 3.481252 0
M  V30 47 H -1.836402 2.743325 2.214207 0
M  V30 48 H -1.146513 0.922071 0.473216 0
M  V30 49 H 0.166261 -1.083589 0.374301 0
M  V30 50 H 3.933470 -5.696216 0.020603 0
M  V30 51 H -1.676080 -5.705627 -2.012883 0
M  V30 52 H -2.470722 -4.647273 -3.295872 0
M  V30 53 H -3.491243 -5.375953 -2.028631 0
M  V30 54 H -0.848587 -2.021111 -1.557381 0
M  V30 55 H -1.561638 -2.549337 -3.087700 0
M  V30 56 H -0.285501 -3.513525 -2.358862 0
M  V30 57 H -3.627374 -2.437161 -1.964126 0
M  V30 END ATOM
M  V30 BEGIN BOND
M  V30 1 1 1 2
M  V30 2 1 2 3
M  V30 3 1 3 4
M  V30 4 2 4 5
M  V30 5 1 5 6
M  V30 6 1 6 7
M  V30 7 1 7 8
M  V30 8 2 8 9
M  V30 9 1 9 10
M  V30 10 2 10 11
M  V30 11 1 11 12
M  V30 12 2 12 13
M  V30 13 2 12 14
M  V30 14 1 12 15
M  V30 15 1 15 16
M  V30 16 1 16 17
M  V30 17 1 17 18
M  V30 18 1 18 19
M  V30 19 1 11 20
M  V30 20 2 20 21
M  V30 21 2 6 22
M  V30 22 1 22 23
M  V30 23 2 23 24
M  V30 24 1 24 25
M  V30 25 1 2 26
M  V30 26 1 26 27
M  V30 27 1 26 28
M  V30 28 1 26 29
M  V30 29 1 24 4
M  V30 30 1 21 8
M  V30 31 1 19 15
M  V30 32 1 1 30
M  V30 33 1 1 31
M  V30 34 1 1 32
M  V30 35 1 2 33 CFG=1
M  V30 36 1 3 34
M  V30 37 1 7 35
M  V30 38 1 9 36
M  V30 39 1 10 37
M  V30 40 1 13 38
M  V30 41 1 15 39
M  V30 42 1 16 40
M  V30 43 1 16 41
M  V30 44 1 17 42
M  V30 45 1 17 43
M  V30 46 1 18 44
M  V30 47 1 18 45
M  V30 48 1 19 46
M  V30 49 1 19 47
M  V30 50 1 20 48
M  V30 51 1 21 49
M  V30 52 1 23 50
M  V30 53 1 27 51
M  V30 54 1 27 52
M  V30 55 1 27 53
M  V30 56 1 28 54
M  V30 57 1 28 55
M  V30 58 1 28 56
M  V30 59 1 29 57
M  V30 END BOND
M  V30 END CTAB
M  END
>  <Dataset>  (284) 
ChEMBL_Kinases

>  <Ligand_Instance>  (284) 
nan

>  <PDB_ID>  (284) 
nan

>  <Standardized_SMILES>  (284) 
C[C@@H](Nc1nc(Nc2ccc(S(=N)(=O)C3CCCC3)cc2)ncc1Br)C(C)(C)O

>  <Name>  (284) 
nan

>  <Pocket>  (284) 
nan

>  <ATP_Site>  (284) 
nan

>  <Peripheral>  (284) 
nan

>  <Num_H_Atoms_ProtBoundConf>  (284) 
nan

>  <Num_Resolved_Atoms>  (284) 
nan

>  <Num_Not_Resolved_Atoms>  (284) 
nan

$$$$
CHEMBL3950251
     RDKit          3D

  0  0  0  0  0  0  0  0  0  0999 V3000
M  V30 BEGIN CTAB
M  V30 COUNTS 55 59 0 0 0
M  V30 BEGIN ATOM
M  V30 1 N -0.803923 -2.791016 2.481006 0
M  V30 2 C 0.476985 -3.222668 1.943927 0 CFG=2
M  V30 3 C 1.583137 -2.280427 2.280495 0
M  V30 4 N 2.514190 -2.075285 1.194361 0
M  V30 5 C 3.318336 -0.918718 1.017429 0
M  V30 6 C 4.688460 -1.166017 1.156368 0
M  V30 7 C 5.641003 -0.165113 1.038158 0
M  V30 8 N 5.165730 1.063863 0.780531 0
M  V30 9 C 3.849414 1.285908 0.649536 0
M  V30 10 C 2.858071 0.340489 0.754676 0
M  V30 11 N 1.474619 0.571292 0.601994 0
M  V30 12 C 0.842002 1.814930 0.353581 0
M  V30 13 N 1.404399 3.024612 0.214574 0
M  V30 14 C 0.504698 3.989024 -0.013847 0
M  V30 15 C -0.705504 3.340097 -0.018501 0
M  V30 16 C -1.970313 3.854682 -0.208773 0
M  V30 17 C -3.042122 2.988345 -0.167565 0
M  V30 18 C -2.767850 1.655475 0.063537 0
M  V30 19 C -3.928792 0.776540 0.098762 0
M  V30 20 C -4.692494 0.435666 1.195639 0
M  V30 21 F -4.304430 0.990706 2.367202 0
M  V30 22 C -5.770278 -0.416009 1.064948 0
M  V30 23 C -6.063799 -0.920849 -0.206830 0
M  V30 24 C -5.308568 -0.590684 -1.322815 0
M  V30 25 C -4.236284 0.266241 -1.149294 0
M  V30 26 F -3.554996 0.533404 -2.295425 0
M  V30 27 N -1.510253 1.209054 0.242592 0
M  V30 28 N -0.474759 2.037812 0.204074 0
M  V30 29 C 2.787122 -3.001065 0.120981 0
M  V30 30 C 1.738494 -4.113422 0.083912 0 CFG=2
M  V30 31 N 1.691304 -4.732117 -1.213856 0
M  V30 32 C 0.416838 -3.422298 0.450754 0 CFG=1
M  V30 33 O -0.649208 -4.294416 0.125571 0
M  V30 34 H -0.937689 -3.243871 3.432130 0
M  V30 35 H -1.532527 -3.241609 1.867896 0
M  V30 36 H 0.661932 -4.255570 2.370374 0
M  V30 37 H 2.198223 -2.793548 3.086211 0
M  V30 38 H 1.215994 -1.325240 2.722390 0
M  V30 39 H 5.091353 -2.156968 1.365486 0
M  V30 40 H 6.692721 -0.381688 1.149773 0
M  V30 41 H 3.604642 2.307342 0.445308 0
M  V30 42 H 0.830151 -0.243809 0.669397 0
M  V30 43 H 0.720753 5.049938 -0.160096 0
M  V30 44 H -2.091166 4.924352 -0.385539 0
M  V30 45 H -4.049139 3.387896 -0.317608 0
M  V30 46 H -6.352178 -0.666450 1.941828 0
M  V30 47 H -6.919913 -1.594932 -0.299475 0
M  V30 48 H -5.582099 -1.011909 -2.286041 0
M  V30 49 H 3.792746 -3.434632 0.298742 0
M  V30 50 H 2.852588 -2.508531 -0.875546 0
M  V30 51 H 1.918060 -4.854976 0.885130 0
M  V30 52 H 2.652537 -4.709898 -1.642020 0
M  V30 53 H 1.095644 -4.110868 -1.808662 0
M  V30 54 H 0.295334 -2.450367 -0.033286 0
M  V30 55 H -1.384114 -3.693632 -0.206848 0
M  V30 END ATOM
M  V30 BEGIN BOND
M  V30 1 1 1 2
M  V30 2 1 2 3
M  V30 3 1 3 4
M  V30 4 1 4 5
M  V30 5 2 5 6
M  V30 6 1 6 7
M  V30 7 2 7 8
M  V30 8 1 8 9
M  V30 9 2 9 10
M  V30 10 1 10 11
M  V30 11 1 11 12
M  V30 12 2 12 13
M  V30 13 1 13 14
M  V30 14 2 14 15
M  V30 15 1 15 16
M  V30 16 2 16 17
M  V30 17 1 17 18
M  V30 18 1 18 19
M  V30 19 2 19 20
M  V30 20 1 20 21
M  V30 21 1 20 22
M  V30 22 2 22 23
M  V30 23 1 23 24
M  V30 24 2 24 25
M  V30 25 1 25 26
M  V30 26 2 18 27
M  V30 27 1 27 28
M  V30 28 1 4 29
M  V30 29 1 29 30
M  V30 30 1 30 31
M  V30 31 1 30 32
M  V30 32 1 32 33
M  V30 33 1 32 2
M  V30 34 1 10 5
M  V30 35 1 28 12
M  V30 36 1 28 15
M  V30 37 1 25 19
M  V30 38 1 1 34
M  V30 39 1 1 35
M  V30 40 1 2 36 CFG=1
M  V30 41 1 3 37
M  V30 42 1 3 38
M  V30 43 1 6 39
M  V30 44 1 7 40
M  V30 45 1 9 41
M  V30 46 1 11 42
M  V30 47 1 14 43
M  V30 48 1 16 44
M  V30 49 1 17 45
M  V30 50 1 22 46
M  V30 51 1 23 47
M  V30 52 1 24 48
M  V30 53 1 29 49
M  V30 54 1 29 50
M  V30 55 1 30 51 CFG=1
M  V30 56 1 31 52
M  V30 57 1 31 53
M  V30 58 1 32 54 CFG=3
M  V30 59 1 33 55
M  V30 END BOND
M  V30 END CTAB
M  END
>  <Dataset>  (285) 
ChEMBL_Kinases

>  <Ligand_Instance>  (285) 
nan

>  <PDB_ID>  (285) 
nan

>  <Standardized_SMILES>  (285) 
N[C@@H]1CN(c2ccncc2Nc2ncc3ccc(-c4c(F)cccc4F)nn23)C[C@H](N)[C@H]1O

>  <Name>  (285) 
nan

>  <Pocket>  (285) 
nan

>  <ATP_Site>  (285) 
nan

>  <Peripheral>  (285) 
nan

>  <Num_H_Atoms_ProtBoundConf>  (285) 
nan

>  <Num_Resolved_Atoms>  (285) 
nan

>  <Num_Not_Resolved_Atoms>  (285) 
nan

$$$$
CHEMBL3648079
     RDKit          3D

  0  0  0  0  0  0  0  0  0  0999 V3000
M  V30 BEGIN CTAB
M  V30 COUNTS 70 71 0 0 0
M  V30 BEGIN ATOM
M  V30 1 C 2.057061 -2.844685 -0.021869 0
M  V30 2 C 3.428994 -3.028401 -0.624032 0 CFG=1
M  V30 3 N 3.788212 -1.986427 -1.522470 0
M  V30 4 C 3.731772 -0.547077 -1.393418 0
M  V30 5 N 3.243954 0.038183 -0.290526 0
M  V30 6 C 3.126929 1.349128 -0.059022 0
M  V30 7 N 2.553181 1.616867 1.212430 0
M  V30 8 C 1.164353 1.931943 1.133651 0
M  V30 9 C 0.515358 2.113007 -0.080491 0
M  V30 10 C -0.829898 2.422140 -0.232039 0
M  V30 11 C -1.582553 2.560066 0.916547 0
M  V30 12 S -3.282565 2.959306 0.814924 0
M  V30 13 O -3.741179 2.530059 -0.570270 0
M  V30 14 C -3.426156 4.746804 0.939630 0
M  V30 15 C -2.671595 5.371501 -0.183187 0
M  V30 16 O -2.008549 5.667346 -1.154524 0
M  V30 17 N -4.155710 2.236393 1.843476 0
M  V30 18 S -5.115829 0.900686 1.298164 0
M  V30 19 O -5.808866 1.283938 0.002868 0
M  V30 20 O -6.196127 0.639759 2.306109 0
M  V30 21 C -4.115319 -0.536708 1.035694 0
M  V30 22 C -4.963957 -1.721658 0.551915 0
M  V30 23 Si -3.865333 -3.182359 0.293776 0 VAL=4
M  V30 24 C -2.062705 -2.698418 0.262812 0
M  V30 25 C -4.252783 -3.971355 -1.353854 0
M  V30 26 C -4.085821 -4.484229 1.610592 0
M  V30 27 C -0.987371 2.389535 2.173487 0
M  V30 28 C 0.356085 2.083680 2.242880 0
M  V30 29 N 3.543272 2.200904 -1.038962 0
M  V30 30 C 4.050194 1.695597 -2.190628 0
M  V30 31 C 4.147644 0.339341 -2.375843 0
M  V30 32 Br 4.864854 -0.398403 -4.005304 0
M  V30 33 C 4.430855 -3.321539 0.438712 0
M  V30 34 C 3.969430 -4.455173 1.354334 0
M  V30 35 C 4.685409 -2.136947 1.331152 0
M  V30 36 O 5.614687 -3.706103 -0.204169 0
M  V30 37 H 1.354603 -2.545977 -0.844351 0
M  V30 38 H 1.986225 -2.072635 0.745460 0
M  V30 39 H 1.687842 -3.822728 0.351728 0
M  V30 40 H 3.314034 -3.957602 -1.302045 0
M  V30 41 H 4.179535 -2.235037 -2.485440 0
M  V30 42 H 2.968033 1.620720 2.172548 0
M  V30 43 H 1.069735 2.015985 -1.027199 0
M  V30 44 H -1.262362 2.547599 -1.214938 0
M  V30 45 H -2.937307 5.104452 1.875757 0
M  V30 46 H -4.472625 5.074440 0.967164 0
M  V30 47 H -2.695330 6.461357 -0.218413 0
M  V30 48 H -3.698581 -0.856583 2.013319 0
M  V30 49 H -3.340751 -0.376805 0.275203 0
M  V30 50 H -5.441807 -1.458923 -0.408902 0
M  V30 51 H -5.715272 -1.996986 1.345407 0
M  V30 52 H -1.472885 -3.633141 0.172195 0
M  V30 53 H -1.815315 -2.114449 1.172768 0
M  V30 54 H -1.832033 -2.105361 -0.662064 0
M  V30 55 H -5.323107 -3.848448 -1.628987 0
M  V30 56 H -3.906663 -5.024002 -1.423224 0
M  V30 57 H -3.650508 -3.429028 -2.136677 0
M  V30 58 H -3.780613 -4.122980 2.596514 0
M  V30 59 H -3.398466 -5.328037 1.345985 0
M  V30 60 H -5.111011 -4.942575 1.588210 0
M  V30 61 H -1.615976 2.506159 3.045774 0
M  V30 62 H 0.777237 1.960451 3.227258 0
M  V30 63 H 4.371911 2.377965 -2.950826 0
M  V30 64 H 4.896130 -4.884939 1.805056 0
M  V30 65 H 3.378523 -4.066947 2.203104 0
M  V30 66 H 3.474349 -5.266462 0.793592 0
M  V30 67 H 5.350565 -2.488219 2.187593 0
M  V30 68 H 3.727477 -1.778081 1.726158 0
M  V30 69 H 5.319498 -1.363204 0.839900 0
M  V30 70 H 5.776761 -4.640999 0.008331 0
M  V30 END ATOM
M  V30 BEGIN BOND
M  V30 1 1 1 2
M  V30 2 1 2 3
M  V30 3 1 3 4
M  V30 4 2 4 5
M  V30 5 1 5 6
M  V30 6 1 6 7
M  V30 7 1 7 8
M  V30 8 2 8 9
M  V30 9 1 9 10
M  V30 10 2 10 11
M  V30 11 1 11 12
M  V30 12 2 12 13
M  V30 13 1 12 14
M  V30 14 1 14 15
M  V30 15 2 15 16
M  V30 16 2 12 17
M  V30 17 1 17 18
M  V30 18 2 18 19
M  V30 19 2 18 20
M  V30 20 1 18 21
M  V30 21 1 21 22
M  V30 22 1 22 23
M  V30 23 1 23 24
M  V30 24 1 23 25
M  V30 25 1 23 26
M  V30 26 1 11 27
M  V30 27 2 27 28
M  V30 28 2 6 29
M  V30 29 1 29 30
M  V30 30 2 30 31
M  V30 31 1 31 32
M  V30 32 1 2 33
M  V30 33 1 33 34
M  V30 34 1 33 35
M  V30 35 1 33 36
M  V30 36 1 31 4
M  V30 37 1 28 8
M  V30 38 1 1 37
M  V30 39 1 1 38
M  V30 40 1 1 39
M  V30 41 1 2 40 CFG=3
M  V30 42 1 3 41
M  V30 43 1 7 42
M  V30 44 1 9 43
M  V30 45 1 10 44
M  V30 46 1 14 45
M  V30 47 1 14 46
M  V30 48 1 15 47
M  V30 49 1 21 48
M  V30 50 1 21 49
M  V30 51 1 22 50
M  V30 52 1 22 51
M  V30 53 1 24 52
M  V30 54 1 24 53
M  V30 55 1 24 54
M  V30 56 1 25 55
M  V30 57 1 25 56
M  V30 58 1 25 57
M  V30 59 1 26 58
M  V30 60 1 26 59
M  V30 61 1 26 60
M  V30 62 1 27 61
M  V30 63 1 28 62
M  V30 64 1 30 63
M  V30 65 1 34 64
M  V30 66 1 34 65
M  V30 67 1 34 66
M  V30 68 1 35 67
M  V30 69 1 35 68
M  V30 70 1 35 69
M  V30 71 1 36 70
M  V30 END BOND
M  V30 END CTAB
M  END
>  <Dataset>  (286) 
ChEMBL_Kinases

>  <Ligand_Instance>  (286) 
nan

>  <PDB_ID>  (286) 
nan

>  <Standardized_SMILES>  (286) 
C[C@@H](Nc1nc(Nc2ccc(S(=O)(CC=O)=NS(=O)(=O)CC[Si](C)(C)C)cc2)ncc1Br)C(C)(C)O

>  <Name>  (286) 
nan

>  <Pocket>  (286) 
nan

>  <ATP_Site>  (286) 
nan

>  <Peripheral>  (286) 
nan

>  <Num_H_Atoms_ProtBoundConf>  (286) 
nan

>  <Num_Resolved_Atoms>  (286) 
nan

>  <Num_Not_Resolved_Atoms>  (286) 
nan

$$$$
CHEMBL3648080
     RDKit          3D

  0  0  0  0  0  0  0  0  0  0999 V3000
M  V30 BEGIN CTAB
M  V30 COUNTS 67 68 0 0 0
M  V30 BEGIN ATOM
M  V30 1 C 2.012481 -5.814655 1.386795 0
M  V30 2 C 0.938913 -4.816350 0.992678 0 CFG=2
M  V30 3 O 0.851633 -4.832557 -0.380083 0
M  V30 4 C 1.276729 -3.423697 1.474167 0 CFG=1
M  V30 5 C 1.193312 -3.299082 2.952336 0
M  V30 6 N 2.538888 -2.962386 0.941205 0
M  V30 7 C 3.008176 -1.663034 1.301776 0
M  V30 8 N 2.374962 -0.817304 2.108040 0
M  V30 9 C 2.803874 0.426649 2.454015 0
M  V30 10 N 1.795241 0.933771 3.340103 0
M  V30 11 C 0.552953 1.246024 2.690914 0
M  V30 12 C -0.573115 1.439433 3.469815 0
M  V30 13 C -1.814153 1.713260 2.928601 0
M  V30 14 C -1.957527 1.802215 1.564421 0
M  V30 15 S -3.460628 2.068599 0.713378 0
M  V30 16 O -4.548469 1.355323 1.509037 0
M  V30 17 C -3.801501 3.776256 0.707926 0
M  V30 18 C -5.070809 4.121442 0.004263 0
M  V30 19 O -5.632734 5.208737 -0.193956 0
M  V30 20 N -3.444089 1.431983 -0.692859 0
M  V30 21 S -3.449033 -0.289892 -0.802096 0
M  V30 22 O -3.390020 -0.915969 0.562155 0
M  V30 23 O -4.648067 -0.804736 -1.528890 0
M  V30 24 C -1.956823 -0.816330 -1.667582 0
M  V30 25 C -2.027156 -0.163470 -3.021064 0
M  V30 26 Si -0.565424 -0.550291 -4.088792 0 VAL=4
M  V30 27 C 0.846236 0.550107 -3.496519 0
M  V30 28 C -0.096856 -2.342392 -4.017920 0
M  V30 29 C -0.958544 -0.070538 -5.856171 0
M  V30 30 C -0.855900 1.617134 0.777191 0
M  V30 31 C 0.409491 1.338553 1.304262 0
M  V30 32 N 3.973406 0.799354 1.914364 0
M  V30 33 C 4.668387 -0.008897 1.089429 0
M  V30 34 C 4.231227 -1.268636 0.741198 0
M  V30 35 Br 5.290089 -2.317024 -0.421670 0
M  V30 36 H 2.315570 -5.699935 2.431264 0
M  V30 37 H 2.873397 -5.714662 0.669397 0
M  V30 38 H 1.579168 -6.833229 1.242499 0
M  V30 39 H -0.021634 -5.129278 1.438353 0
M  V30 40 H -0.097187 -4.898743 -0.637496 0
M  V30 41 H 0.513480 -2.693319 1.052428 0
M  V30 42 H 0.898279 -2.264622 3.266542 0
M  V30 43 H 0.376161 -3.990701 3.300554 0
M  V30 44 H 2.173876 -3.562321 3.425225 0
M  V30 45 H 3.073427 -3.582185 0.311734 0
M  V30 46 H 1.872435 1.087069 4.368456 0
M  V30 47 H -0.441701 1.368417 4.554748 0
M  V30 48 H -2.702282 1.866916 3.532562 0
M  V30 49 H -3.931935 4.154585 1.762916 0
M  V30 50 H -3.015079 4.411866 0.256075 0
M  V30 51 H -5.646747 3.284711 -0.434684 0
M  V30 52 H -1.975736 -1.924400 -1.747406 0
M  V30 53 H -1.072022 -0.574684 -1.077574 0
M  V30 54 H -2.988558 -0.499213 -3.486668 0
M  V30 55 H -2.064807 0.937103 -2.856825 0
M  V30 56 H 0.370384 1.533050 -3.247338 0
M  V30 57 H 1.587304 0.721805 -4.300562 0
M  V30 58 H 1.291328 0.182009 -2.564059 0
M  V30 59 H 0.939593 -2.455369 -4.442229 0
M  V30 60 H -0.807136 -2.920643 -4.617800 0
M  V30 61 H -0.084943 -2.700659 -2.957058 0
M  V30 62 H -0.604983 -0.824166 -6.566913 0
M  V30 63 H -2.064736 0.073845 -5.982330 0
M  V30 64 H -0.496721 0.913666 -6.110539 0
M  V30 65 H -0.857986 1.669278 -0.292931 0
M  V30 66 H 1.318099 1.184386 0.719408 0
M  V30 67 H 5.581389 0.459278 0.755820 0
M  V30 END ATOM
M  V30 BEGIN BOND
M  V30 1 1 1 2
M  V30 2 1 2 3
M  V30 3 1 2 4
M  V30 4 1 4 5
M  V30 5 1 4 6
M  V30 6 1 6 7
M  V30 7 2 7 8
M  V30 8 1 8 9
M  V30 9 1 9 10
M  V30 10 1 10 11
M  V30 11 2 11 12
M  V30 12 1 12 13
M  V30 13 2 13 14
M  V30 14 1 14 15
M  V30 15 2 15 16
M  V30 16 1 15 17
M  V30 17 1 17 18
M  V30 18 2 18 19
M  V30 19 2 15 20
M  V30 20 1 20 21
M  V30 21 2 21 22
M  V30 22 2 21 23
M  V30 23 1 21 24
M  V30 24 1 24 25
M  V30 25 1 25 26
M  V30 26 1 26 27
M  V30 27 1 26 28
M  V30 28 1 26 29
M  V30 29 1 14 30
M  V30 30 2 30 31
M  V30 31 2 9 32
M  V30 32 1 32 33
M  V30 33 2 33 34
M  V30 34 1 34 35
M  V30 35 1 34 7
M  V30 36 1 31 11
M  V30 37 1 1 36
M  V30 38 1 1 37
M  V30 39 1 1 38
M  V30 40 1 2 39 CFG=1
M  V30 41 1 3 40
M  V30 42 1 4 41 CFG=3
M  V30 43 1 5 42
M  V30 44 1 5 43
M  V30 45 1 5 44
M  V30 46 1 6 45
M  V30 47 1 10 46
M  V30 48 1 12 47
M  V30 49 1 13 48
M  V30 50 1 17 49
M  V30 51 1 17 50
M  V30 52 1 18 51
M  V30 53 1 24 52
M  V30 54 1 24 53
M  V30 55 1 25 54
M  V30 56 1 25 55
M  V30 57 1 27 56
M  V30 58 1 27 57
M  V30 59 1 27 58
M  V30 60 1 28 59
M  V30 61 1 28 60
M  V30 62 1 28 61
M  V30 63 1 29 62
M  V30 64 1 29 63
M  V30 65 1 29 64
M  V30 66 1 30 65
M  V30 67 1 31 66
M  V30 68 1 33 67
M  V30 END BOND
M  V30 END CTAB
M  END
>  <Dataset>  (287) 
ChEMBL_Kinases

>  <Ligand_Instance>  (287) 
nan

>  <PDB_ID>  (287) 
nan

>  <Standardized_SMILES>  (287) 
C[C@H](O)[C@@H](C)Nc1nc(Nc2ccc(S(=O)(CC=O)=NS(=O)(=O)CC[Si](C)(C)C)cc2)ncc1Br

>  <Name>  (287) 
nan

>  <Pocket>  (287) 
nan

>  <ATP_Site>  (287) 
nan

>  <Peripheral>  (287) 
nan

>  <Num_H_Atoms_ProtBoundConf>  (287) 
nan

>  <Num_Resolved_Atoms>  (287) 
nan

>  <Num_Not_Resolved_Atoms>  (287) 
nan

$$$$
CHEMBL3648081
     RDKit          3D

  0  0  0  0  0  0  0  0  0  0999 V3000
M  V30 BEGIN CTAB
M  V30 COUNTS 68 69 0 0 0
M  V30 BEGIN ATOM
M  V30 1 C 5.250258 0.262498 3.957516 0
M  V30 2 C 3.966118 -0.491045 4.188754 0 CFG=2
M  V30 3 O 4.199057 -1.858923 3.955716 0
M  V30 4 C 2.870988 0.030821 3.316086 0 CFG=1
M  V30 5 C 1.591674 -0.753646 3.544075 0
M  V30 6 O 2.684501 1.407427 3.598006 0
M  V30 7 C 2.695259 2.350755 2.547577 0
M  V30 8 N 2.879611 1.873113 1.307185 0
M  V30 9 C 2.916272 2.610594 0.198610 0
M  V30 10 N 3.122618 1.904630 -1.005545 0
M  V30 11 C 2.061170 1.068977 -1.453228 0
M  V30 12 C 2.061875 0.381706 -2.636127 0
M  V30 13 C 1.052148 -0.450286 -3.076814 0
M  V30 14 C -0.082144 -0.629649 -2.271640 0
M  V30 15 S -1.367408 -1.662263 -2.793027 0
M  V30 16 O -1.809036 -1.445915 -4.194368 0
M  V30 17 C -0.932013 -3.370590 -2.468519 0
M  V30 18 C 0.331114 -3.714422 -3.232672 0
M  V30 19 O 0.082311 -3.526980 -4.570359 0
M  V30 20 N -2.619507 -1.380279 -1.896209 0
M  V30 21 S -4.189435 -1.779826 -2.415449 0
M  V30 22 O -4.977078 -0.574869 -2.838409 0
M  V30 23 O -4.049910 -2.639314 -3.664536 0
M  V30 24 C -5.028163 -2.720468 -1.227750 0
M  V30 25 C -5.273455 -2.128763 0.100979 0
M  V30 26 Si -3.851464 -1.631711 1.119260 0 VAL=4
M  V30 27 C -2.350009 -2.680838 0.932517 0
M  V30 28 C -4.384114 -1.787170 2.932281 0
M  V30 29 C -3.512482 0.195476 0.858573 0
M  V30 30 C -0.096322 0.055641 -1.079953 0
M  V30 31 C 0.931345 0.875702 -0.678223 0
M  V30 32 N 2.751597 3.937643 0.385078 0
M  V30 33 C 2.564142 4.474896 1.599920 0
M  V30 34 C 2.525722 3.698058 2.758756 0
M  V30 35 Br 2.264994 4.372810 4.514768 0
M  V30 36 H 5.945440 -0.387541 3.403467 0
M  V30 37 H 5.653321 0.602573 4.941558 0
M  V30 38 H 5.041632 1.138852 3.297154 0
M  V30 39 H 3.630103 -0.364326 5.257223 0
M  V30 40 H 3.708225 -2.364813 4.638261 0
M  V30 41 H 3.153613 -0.096829 2.249020 0
M  V30 42 H 0.902171 -0.087334 4.095406 0
M  V30 43 H 1.863134 -1.675717 4.094783 0
M  V30 44 H 1.118221 -0.985394 2.553360 0
M  V30 45 H 3.999246 1.967458 -1.569962 0
M  V30 46 H 2.957398 0.526678 -3.259650 0
M  V30 47 H 1.167762 -0.943111 -4.040064 0
M  V30 48 H -0.777028 -3.462535 -1.385683 0
M  V30 49 H -1.776681 -4.017722 -2.753244 0
M  V30 50 H 1.134182 -3.045528 -2.873406 0
M  V30 51 H 0.573084 -4.777825 -3.004871 0
M  V30 52 H 0.817781 -3.902904 -5.107878 0
M  V30 53 H -4.566545 -3.729010 -1.111358 0
M  V30 54 H -6.052254 -2.959620 -1.654758 0
M  V30 55 H -5.870601 -2.904057 0.676579 0
M  V30 56 H -5.986541 -1.266563 0.048829 0
M  V30 57 H -2.547006 -3.515870 0.203810 0
M  V30 58 H -1.424005 -2.115248 0.702674 0
M  V30 59 H -2.071407 -3.245637 1.874756 0
M  V30 60 H -5.477115 -1.661518 3.045678 0
M  V30 61 H -4.095227 -2.779507 3.342506 0
M  V30 62 H -3.890365 -1.004903 3.534225 0
M  V30 63 H -4.229443 0.812140 1.480972 0
M  V30 64 H -3.725622 0.520854 -0.184519 0
M  V30 65 H -2.519565 0.483039 1.226495 0
M  V30 66 H -0.983446 -0.108383 -0.499930 0
M  V30 67 H 0.794428 1.354642 0.278472 0
M  V30 68 H 2.435654 5.541003 1.722033 0
M  V30 END ATOM
M  V30 BEGIN BOND
M  V30 1 1 1 2
M  V30 2 1 2 3
M  V30 3 1 2 4
M  V30 4 1 4 5
M  V30 5 1 4 6
M  V30 6 1 6 7
M  V30 7 2 7 8
M  V30 8 1 8 9
M  V30 9 1 9 10
M  V30 10 1 10 11
M  V30 11 2 11 12
M  V30 12 1 12 13
M  V30 13 2 13 14
M  V30 14 1 14 15
M  V30 15 2 15 16
M  V30 16 1 15 17
M  V30 17 1 17 18
M  V30 18 1 18 19
M  V30 19 2 15 20
M  V30 20 1 20 21
M  V30 21 2 21 22
M  V30 22 2 21 23
M  V30 23 1 21 24
M  V30 24 1 24 25
M  V30 25 1 25 26
M  V30 26 1 26 27
M  V30 27 1 26 28
M  V30 28 1 26 29
M  V30 29 1 14 30
M  V30 30 2 30 31
M  V30 31 2 9 32
M  V30 32 1 32 33
M  V30 33 2 33 34
M  V30 34 1 34 35
M  V30 35 1 34 7
M  V30 36 1 31 11
M  V30 37 1 1 36
M  V30 38 1 1 37
M  V30 39 1 1 38
M  V30 40 1 2 39 CFG=1
M  V30 41 1 3 40
M  V30 42 1 4 41 CFG=3
M  V30 43 1 5 42
M  V30 44 1 5 43
M  V30 45 1 5 44
M  V30 46 1 10 45
M  V30 47 1 12 46
M  V30 48 1 13 47
M  V30 49 1 17 48
M  V30 50 1 17 49
M  V30 51 1 18 50
M  V30 52 1 18 51
M  V30 53 1 19 52
M  V30 54 1 24 53
M  V30 55 1 24 54
M  V30 56 1 25 55
M  V30 57 1 25 56
M  V30 58 1 27 57
M  V30 59 1 27 58
M  V30 60 1 27 59
M  V30 61 1 28 60
M  V30 62 1 28 61
M  V30 63 1 28 62
M  V30 64 1 29 63
M  V30 65 1 29 64
M  V30 66 1 29 65
M  V30 67 1 30 66
M  V30 68 1 31 67
M  V30 69 1 33 68
M  V30 END BOND
M  V30 END CTAB
M  END
>  <Dataset>  (288) 
ChEMBL_Kinases

>  <Ligand_Instance>  (288) 
nan

>  <PDB_ID>  (288) 
nan

>  <Standardized_SMILES>  (288) 
C[C@H](O)[C@@H](C)Oc1nc(Nc2ccc(S(=O)(CCO)=NS(=O)(=O)CC[Si](C)(C)C)cc2)ncc1Br

>  <Name>  (288) 
nan

>  <Pocket>  (288) 
nan

>  <ATP_Site>  (288) 
nan

>  <Peripheral>  (288) 
nan

>  <Num_H_Atoms_ProtBoundConf>  (288) 
nan

>  <Num_Resolved_Atoms>  (288) 
nan

>  <Num_Not_Resolved_Atoms>  (288) 
nan

$$$$
CHEMBL3648071
     RDKit          3D

  0  0  0  0  0  0  0  0  0  0999 V3000
M  V30 BEGIN CTAB
M  V30 COUNTS 44 45 0 0 0
M  V30 BEGIN ATOM
M  V30 1 C -3.685683 -4.955305 0.301028 0
M  V30 2 C -2.792677 -3.762194 0.246288 0 CFG=1
M  V30 3 O -1.588855 -4.042030 0.891536 0
M  V30 4 C -2.424339 -3.416683 -1.211009 0 CFG=1
M  V30 5 C -3.780808 -3.217471 -1.898646 0
M  V30 6 N -1.573561 -2.320627 -1.362561 0
M  V30 7 C -0.721008 -1.222366 -1.514384 0
M  V30 8 N 0.482345 -0.916204 -1.036933 0
M  V30 9 C 1.180135 0.188769 -1.269564 0
M  V30 10 N 2.449871 0.289215 -0.641643 0
M  V30 11 C 2.750885 0.858146 0.628110 0
M  V30 12 C 4.039679 0.859492 1.141825 0
M  V30 13 C 4.279468 1.421227 2.370161 0
M  V30 14 C 3.297678 2.000523 3.149653 0
M  V30 15 S 3.629270 2.711222 4.723041 0
M  V30 16 C 4.055920 4.411914 4.444079 0
M  V30 17 N 4.728812 1.938219 5.483776 0
M  V30 18 O 2.332528 2.611384 5.515895 0
M  V30 19 C 2.013560 2.001656 2.642680 0
M  V30 20 C 1.753306 1.442728 1.411884 0
M  V30 21 N 0.573527 1.059059 -2.073372 0
M  V30 22 C -0.630678 0.905662 -2.635314 0
M  V30 23 C -1.310480 -0.273654 -2.352147 0
M  V30 24 Br -2.985473 -0.220487 -3.286245 0
M  V30 25 H -3.429430 -5.503255 1.242229 0
M  V30 26 H -3.519068 -5.662035 -0.531926 0
M  V30 27 H -4.756678 -4.662566 0.276141 0
M  V30 28 H -3.256004 -2.876305 0.680363 0
M  V30 29 H -1.756153 -4.303352 1.834135 0
M  V30 30 H -1.982250 -4.361113 -1.641752 0
M  V30 31 H -4.434168 -4.105569 -1.671898 0
M  V30 32 H -4.305763 -2.331407 -1.532945 0
M  V30 33 H -3.707452 -3.176634 -2.992053 0
M  V30 34 H -0.902882 -2.834850 -0.721289 0
M  V30 35 H 3.237490 -0.104325 -1.188715 0
M  V30 36 H 4.862975 0.414651 0.570491 0
M  V30 37 H 5.295933 1.411460 2.753384 0
M  V30 38 H 4.177684 4.653213 3.369511 0
M  V30 39 H 5.030976 4.618451 4.939516 0
M  V30 40 H 3.273264 5.063265 4.836174 0
M  V30 41 H 4.425642 1.074874 5.978835 0
M  V30 42 H 1.208845 2.456657 3.241272 0
M  V30 43 H 0.739891 1.441926 1.008106 0
M  V30 44 H -0.878389 1.763899 -3.240129 0
M  V30 END ATOM
M  V30 BEGIN BOND
M  V30 1 1 1 2
M  V30 2 1 2 3
M  V30 3 1 2 4
M  V30 4 1 4 5
M  V30 5 1 4 6
M  V30 6 1 6 7
M  V30 7 2 7 8
M  V30 8 1 8 9
M  V30 9 1 9 10
M  V30 10 1 10 11
M  V30 11 2 11 12
M  V30 12 1 12 13
M  V30 13 2 13 14
M  V30 14 1 14 15
M  V30 15 1 15 16
M  V30 16 2 15 17
M  V30 17 2 15 18
M  V30 18 1 14 19
M  V30 19 2 19 20
M  V30 20 2 9 21
M  V30 21 1 21 22
M  V30 22 2 22 23
M  V30 23 1 23 24
M  V30 24 1 23 7
M  V30 25 1 20 11
M  V30 26 1 1 25
M  V30 27 1 1 26
M  V30 28 1 1 27
M  V30 29 1 2 28 CFG=1
M  V30 30 1 3 29
M  V30 31 1 4 30 CFG=3
M  V30 32 1 5 31
M  V30 33 1 5 32
M  V30 34 1 5 33
M  V30 35 1 6 34
M  V30 36 1 10 35
M  V30 37 1 12 36
M  V30 38 1 13 37
M  V30 39 1 16 38
M  V30 40 1 16 39
M  V30 41 1 16 40
M  V30 42 1 17 41
M  V30 43 1 19 42
M  V30 44 1 20 43
M  V30 45 1 22 44
M  V30 END BOND
M  V30 END CTAB
M  END
>  <Dataset>  (289) 
ChEMBL_Kinases

>  <Ligand_Instance>  (289) 
nan

>  <PDB_ID>  (289) 
nan

>  <Standardized_SMILES>  (289) 
C[C@@H](O)[C@@H](C)Nc1nc(Nc2ccc(S(C)(=N)=O)cc2)ncc1Br

>  <Name>  (289) 
nan

>  <Pocket>  (289) 
nan

>  <ATP_Site>  (289) 
nan

>  <Peripheral>  (289) 
nan

>  <Num_H_Atoms_ProtBoundConf>  (289) 
nan

>  <Num_Resolved_Atoms>  (289) 
nan

>  <Num_Not_Resolved_Atoms>  (289) 
nan

$$$$
CHEMBL3652002
     RDKit          3D

  0  0  0  0  0  0  0  0  0  0999 V3000
M  V30 BEGIN CTAB
M  V30 COUNTS 58 61 0 0 0
M  V30 BEGIN ATOM
M  V30 1 C 6.302756 -0.861437 4.185226 0
M  V30 2 C 4.865117 -0.693009 3.851015 0
M  V30 3 C 3.899376 -1.133483 4.760614 0
M  V30 4 C 2.537411 -0.993607 4.484419 0
M  V30 5 C 2.178701 -0.399487 3.270124 0
M  V30 6 F 0.840519 -0.312220 3.101360 0
M  V30 7 C 3.113783 0.043863 2.354870 0
M  V30 8 C 2.640029 0.650524 1.116152 0
M  V30 9 C 3.488391 1.119716 0.148938 0
M  V30 10 C 3.046077 1.700832 -1.037501 0
M  V30 11 C 1.676898 1.807252 -1.244849 0
M  V30 12 C 0.832988 1.331207 -0.263639 0
M  V30 13 C -0.617822 1.435436 -0.465805 0
M  V30 14 O -1.096580 1.949866 -1.514918 0
M  V30 15 N -1.483687 0.931238 0.572710 0
M  V30 16 C -2.873566 1.027365 0.386701 0
M  V30 17 C -3.493055 2.173194 0.840789 0
M  V30 18 N -4.820137 2.340404 0.699890 0
M  V30 19 C -5.544363 1.375760 0.108920 0
M  V30 20 C -4.923843 0.229776 -0.345057 0
M  V30 21 C -3.547751 -0.006306 -0.229472 0
M  V30 22 C -2.924784 -1.224644 -0.717962 0 CFG=1
M  V30 23 C -2.447432 -1.137929 -2.171799 0
M  V30 24 C -2.340757 -2.573912 -2.650683 0 CFG=1
M  V30 25 N -2.140267 -2.670034 -4.075349 0
M  V30 26 C -1.249823 -3.242372 -1.863760 0
M  V30 27 C -1.690145 -3.275976 -0.400163 0 CFG=1
M  V30 28 C -0.599942 -3.876526 0.442968 0
M  V30 29 F -0.997862 -3.906849 1.765419 0
M  V30 30 F -0.253714 -5.157966 0.068779 0
M  V30 31 F 0.542555 -3.069685 0.376928 0
M  V30 32 C -1.860182 -1.838139 0.114771 0
M  V30 33 N 1.341571 0.784438 0.851943 0
M  V30 34 C 4.422586 -0.122203 2.685106 0
M  V30 35 H 6.864448 -0.038418 3.726818 0
M  V30 36 H 6.599119 -1.850749 3.787508 0
M  V30 37 H 6.383893 -0.872689 5.291285 0
M  V30 38 H 4.175038 -1.597286 5.708681 0
M  V30 39 H 1.833634 -1.345976 5.211551 0
M  V30 40 H 4.554382 1.056941 0.269286 0
M  V30 41 H 3.746980 2.053683 -1.765357 0
M  V30 42 H 1.348328 2.259696 -2.168776 0
M  V30 43 H -1.147456 0.496496 1.459740 0
M  V30 44 H -2.942103 2.976882 1.324362 0
M  V30 45 H -6.619235 1.498810 -0.011205 0
M  V30 46 H -5.542231 -0.522524 -0.814871 0
M  V30 47 H -3.752219 -1.994478 -0.772398 0
M  V30 48 H -1.459517 -0.671603 -2.270921 0
M  V30 49 H -3.248159 -0.644771 -2.784490 0
M  V30 50 H -3.295872 -3.081645 -2.330424 0
M  V30 51 H -3.042895 -2.658424 -4.582208 0
M  V30 52 H -1.587268 -3.514188 -4.318499 0
M  V30 53 H -1.178955 -4.289497 -2.175048 0
M  V30 54 H -0.296237 -2.706994 -1.977389 0
M  V30 55 H -2.601685 -3.869961 -0.313116 0
M  V30 56 H -0.849399 -1.414687 0.010703 0
M  V30 57 H -2.200253 -1.914758 1.162563 0
M  V30 58 H 5.179229 0.203207 2.012786 0
M  V30 END ATOM
M  V30 BEGIN BOND
M  V30 1 1 1 2
M  V30 2 2 2 3
M  V30 3 1 3 4
M  V30 4 2 4 5
M  V30 5 1 5 6
M  V30 6 1 5 7
M  V30 7 1 7 8
M  V30 8 2 8 9
M  V30 9 1 9 10
M  V30 10 2 10 11
M  V30 11 1 11 12
M  V30 12 1 12 13
M  V30 13 2 13 14
M  V30 14 1 13 15
M  V30 15 1 15 16
M  V30 16 2 16 17
M  V30 17 1 17 18
M  V30 18 2 18 19
M  V30 19 1 19 20
M  V30 20 2 20 21
M  V30 21 1 21 22
M  V30 22 1 22 23
M  V30 23 1 23 24
M  V30 24 1 24 25
M  V30 25 1 24 26
M  V30 26 1 26 27
M  V30 27 1 27 28
M  V30 28 1 28 29
M  V30 29 1 28 30
M  V30 30 1 28 31
M  V30 31 1 27 32
M  V30 32 2 12 33
M  V30 33 2 7 34
M  V30 34 1 34 2
M  V30 35 1 33 8
M  V30 36 1 21 16
M  V30 37 1 32 22
M  V30 38 1 1 35
M  V30 39 1 1 36
M  V30 40 1 1 37
M  V30 41 1 3 38
M  V30 42 1 4 39
M  V30 43 1 9 40
M  V30 44 1 10 41
M  V30 45 1 11 42
M  V30 46 1 15 43
M  V30 47 1 17 44
M  V30 48 1 19 45
M  V30 49 1 20 46
M  V30 50 1 22 47 CFG=3
M  V30 51 1 23 48
M  V30 52 1 23 49
M  V30 53 1 24 50 CFG=3
M  V30 54 1 25 51
M  V30 55 1 25 52
M  V30 56 1 26 53
M  V30 57 1 26 54
M  V30 58 1 27 55 CFG=3
M  V30 59 1 32 56
M  V30 60 1 32 57
M  V30 61 1 34 58
M  V30 END BOND
M  V30 END CTAB
M  END
>  <Dataset>  (290) 
ChEMBL_Kinases

>  <Ligand_Instance>  (290) 
nan

>  <PDB_ID>  (290) 
nan

>  <Standardized_SMILES>  (290) 
Cc1ccc(F)c(-c2cccc(C(=O)Nc3cnccc3[C@H]3C[C@@H](N)C[C@@H](C(F)(F)F)C3)n2)c1

>  <Name>  (290) 
nan

>  <Pocket>  (290) 
nan

>  <ATP_Site>  (290) 
nan

>  <Peripheral>  (290) 
nan

>  <Num_H_Atoms_ProtBoundConf>  (290) 
nan

>  <Num_Resolved_Atoms>  (290) 
nan

>  <Num_Not_Resolved_Atoms>  (290) 
nan

$$$$
CHEMBL3652003
     RDKit          3D

  0  0  0  0  0  0  0  0  0  0999 V3000
M  V30 BEGIN CTAB
M  V30 COUNTS 59 62 0 0 0
M  V30 BEGIN ATOM
M  V30 1 C -3.130376 -6.890089 -0.400356 0
M  V30 2 O -2.003515 -6.526378 -1.138776 0
M  V30 3 C -1.750650 -5.285005 -1.688130 0
M  V30 4 C -2.617728 -4.220660 -1.564765 0
M  V30 5 C -2.297866 -3.009280 -2.140651 0
M  V30 6 F -3.082529 -1.908150 -2.074895 0
M  V30 7 C -1.116504 -2.860989 -2.837203 0
M  V30 8 C -0.631869 -1.648083 -3.502897 0
M  V30 9 C -0.847753 -1.234379 -4.804614 0
M  V30 10 C -0.280444 -0.054189 -5.187485 0
M  V30 11 C 0.484936 0.697028 -4.293416 0
M  V30 12 C 0.678198 0.258336 -3.013429 0
M  V30 13 C 1.490477 1.103181 -2.145636 0
M  V30 14 O 2.012026 2.188687 -2.509255 0
M  V30 15 N 1.640493 0.567698 -0.812121 0
M  V30 16 C 2.320887 1.017034 0.351487 0
M  V30 17 C 3.631353 0.590452 0.420160 0
M  V30 18 N 4.390907 0.947372 1.471124 0
M  V30 19 C 3.842556 1.713593 2.425833 0
M  V30 20 C 2.529696 2.127244 2.334138 0
M  V30 21 C 1.675866 1.795177 1.269156 0
M  V30 22 C 0.312627 2.243003 1.223465 0 CFG=1
M  V30 23 C 0.280219 3.546341 0.420883 0
M  V30 24 C -0.936532 4.290306 0.838516 0 CFG=1
M  V30 25 N -1.522644 5.101994 -0.239824 0
M  V30 26 C -1.942348 3.461026 1.547287 0
M  V30 27 C -2.095206 2.052859 1.101714 0 CFG=1
M  V30 28 C -3.069842 1.941090 -0.079919 0
M  V30 29 F -2.647756 2.665251 -1.164695 0
M  V30 30 F -3.178799 0.618100 -0.465950 0
M  V30 31 F -4.334266 2.336234 0.308229 0
M  V30 32 C -0.762768 1.388965 0.717735 0
M  V30 33 N 0.099081 -0.916081 -2.673535 0
M  V30 34 C -0.248908 -3.953516 -2.951707 0
M  V30 35 F 0.941347 -3.868256 -3.632185 0
M  V30 36 C -0.546061 -5.184142 -2.381928 0
M  V30 37 H -2.823412 -7.739667 0.274300 0
M  V30 38 H -3.958524 -7.315403 -1.014492 0
M  V30 39 H -3.495629 -6.110572 0.298487 0
M  V30 40 H -3.539410 -4.320872 -1.026938 0
M  V30 41 H -1.457556 -1.916990 -5.376035 0
M  V30 42 H -0.469163 0.242066 -6.215455 0
M  V30 43 H 0.915414 1.626378 -4.640173 0
M  V30 44 H 1.211629 -0.331314 -0.501162 0
M  V30 45 H 4.109481 -0.027202 -0.327796 0
M  V30 46 H 4.439168 2.018885 3.293010 0
M  V30 47 H 2.159208 2.753865 3.161842 0
M  V30 48 H 0.040068 2.577802 2.276390 0
M  V30 49 H 0.277708 3.279236 -0.671764 0
M  V30 50 H 1.168531 4.164619 0.559323 0
M  V30 51 H -0.610949 5.076022 1.584720 0
M  V30 52 H -0.840390 5.892237 -0.418555 0
M  V30 53 H -2.371384 5.550904 0.220523 0
M  V30 54 H -2.926499 3.955860 1.420488 0
M  V30 55 H -1.763130 3.464502 2.658635 0
M  V30 56 H -2.606922 1.508889 1.927115 0
M  V30 57 H -0.758492 1.308737 -0.383312 0
M  V30 58 H -0.834816 0.378667 1.109737 0
M  V30 59 H 0.134695 -5.994314 -2.487475 0
M  V30 END ATOM
M  V30 BEGIN BOND
M  V30 1 1 1 2
M  V30 2 1 2 3
M  V30 3 2 3 4
M  V30 4 1 4 5
M  V30 5 1 5 6
M  V30 6 2 5 7
M  V30 7 1 7 8
M  V30 8 2 8 9
M  V30 9 1 9 10
M  V30 10 2 10 11
M  V30 11 1 11 12
M  V30 12 1 12 13
M  V30 13 2 13 14
M  V30 14 1 13 15
M  V30 15 1 15 16
M  V30 16 2 16 17
M  V30 17 1 17 18
M  V30 18 2 18 19
M  V30 19 1 19 20
M  V30 20 2 20 21
M  V30 21 1 21 22
M  V30 22 1 22 23
M  V30 23 1 23 24
M  V30 24 1 24 25
M  V30 25 1 24 26
M  V30 26 1 26 27
M  V30 27 1 27 28
M  V30 28 1 28 29
M  V30 29 1 28 30
M  V30 30 1 28 31
M  V30 31 1 27 32
M  V30 32 2 12 33
M  V30 33 1 7 34
M  V30 34 1 34 35
M  V30 35 2 34 36
M  V30 36 1 36 3
M  V30 37 1 33 8
M  V30 38 1 21 16
M  V30 39 1 32 22
M  V30 40 1 1 37
M  V30 41 1 1 38
M  V30 42 1 1 39
M  V30 43 1 4 40
M  V30 44 1 9 41
M  V30 45 1 10 42
M  V30 46 1 11 43
M  V30 47 1 15 44
M  V30 48 1 17 45
M  V30 49 1 19 46
M  V30 50 1 20 47
M  V30 51 1 22 48 CFG=1
M  V30 52 1 23 49
M  V30 53 1 23 50
M  V30 54 1 24 51 CFG=1
M  V30 55 1 25 52
M  V30 56 1 25 53
M  V30 57 1 26 54
M  V30 58 1 26 55
M  V30 59 1 27 56 CFG=1
M  V30 60 1 32 57
M  V30 61 1 32 58
M  V30 62 1 36 59
M  V30 END BOND
M  V30 END CTAB
M  END
>  <Dataset>  (291) 
ChEMBL_Kinases

>  <Ligand_Instance>  (291) 
nan

>  <PDB_ID>  (291) 
nan

>  <Standardized_SMILES>  (291) 
COc1cc(F)c(-c2cccc(C(=O)Nc3cnccc3[C@H]3C[C@@H](N)C[C@@H](C(F)(F)F)C3)n2)c(F)c1

>  <Name>  (291) 
nan

>  <Pocket>  (291) 
nan

>  <ATP_Site>  (291) 
nan

>  <Peripheral>  (291) 
nan

>  <Num_H_Atoms_ProtBoundConf>  (291) 
nan

>  <Num_Resolved_Atoms>  (291) 
nan

>  <Num_Not_Resolved_Atoms>  (291) 
nan

$$$$
CHEMBL3652004
     RDKit          3D

  0  0  0  0  0  0  0  0  0  0999 V3000
M  V30 BEGIN CTAB
M  V30 COUNTS 57 60 0 0 0
M  V30 BEGIN ATOM
M  V30 1 N 0.568717 -1.634491 4.213223 0
M  V30 2 C 1.411527 -0.784365 3.446175 0
M  V30 3 C 2.742266 -0.818019 3.842560 0
M  V30 4 C 3.646218 -0.017521 3.149900 0
M  V30 5 F 4.953844 -0.012936 3.495366 0
M  V30 6 C 3.151357 0.755216 2.114350 0
M  V30 7 C 4.091947 1.586572 1.395508 0
M  V30 8 C 4.715046 1.033779 0.293532 0
M  V30 9 F 4.467162 -0.241901 -0.116375 0
M  V30 10 C 5.614784 1.842492 -0.386293 0
M  V30 11 C 5.900789 3.151761 -0.005608 0
M  V30 12 C 5.224205 3.606923 1.108682 0
M  V30 13 C 4.315047 2.860196 1.835567 0
M  V30 14 F 3.690625 3.376621 2.918614 0
M  V30 15 N 1.829317 0.739590 1.777881 0
M  V30 16 C 0.936383 -0.006765 2.410236 0
M  V30 17 C -0.483229 -0.062239 2.094035 0
M  V30 18 O -1.205200 -0.825196 2.791565 0
M  V30 19 N -1.042464 0.712648 1.038717 0
M  V30 20 C -2.460389 0.479062 0.931006 0
M  V30 21 C -3.235221 1.335158 1.700026 0
M  V30 22 N -4.571698 1.199568 1.669705 0
M  V30 23 C -5.122617 0.252434 0.907190 0
M  V30 24 C -4.394883 -0.626715 0.121723 0
M  V30 25 C -3.017194 -0.506761 0.136293 0
M  V30 26 C -2.129656 -1.371931 -0.647495 0 CFG=1
M  V30 27 C -1.651831 -2.619331 -0.011851 0
M  V30 28 C -1.559903 -3.816144 -0.906773 0 CFG=1
M  V30 29 N -2.751780 -4.617821 -0.972566 0
M  V30 30 C -1.030868 -3.428226 -2.250423 0
M  V30 31 C -1.856827 -2.377818 -2.944096 0 CFG=1
M  V30 32 C -2.719636 -3.094080 -3.984646 0
M  V30 33 F -3.543887 -4.014520 -3.409194 0
M  V30 34 F -3.452512 -2.150670 -4.693226 0
M  V30 35 F -1.848622 -3.718793 -4.862222 0
M  V30 36 C -2.829871 -1.787927 -1.946432 0
M  V30 37 H -0.311361 -1.685634 4.772738 0
M  V30 38 H 0.862497 -2.642382 4.322223 0
M  V30 39 H 3.125357 -1.414312 4.642020 0
M  V30 40 H 6.095710 1.407189 -1.241741 0
M  V30 41 H 6.605918 3.764106 -0.550544 0
M  V30 42 H 5.466367 4.636625 1.386280 0
M  V30 43 H -0.359456 1.325041 0.506649 0
M  V30 44 H -2.812575 2.109650 2.325247 0
M  V30 45 H -6.196232 0.198950 0.929484 0
M  V30 46 H -4.867397 -1.396075 -0.496096 0
M  V30 47 H -1.270940 -0.755831 -0.979167 0
M  V30 48 H -0.623910 -2.424639 0.381428 0
M  V30 49 H -2.221957 -2.943716 0.875824 0
M  V30 50 H -0.777493 -4.497931 -0.456021 0
M  V30 51 H -2.531633 -5.610545 -1.187181 0
M  V30 52 H -3.338080 -4.579894 -0.136253 0
M  V30 53 H 0.006500 -3.020289 -2.170914 0
M  V30 54 H -0.981355 -4.343108 -2.876557 0
M  V30 55 H -1.238253 -1.599787 -3.421323 0
M  V30 56 H -3.307742 -0.884808 -2.418511 0
M  V30 57 H -3.612898 -2.554208 -1.771147 0
M  V30 END ATOM
M  V30 BEGIN BOND
M  V30 1 1 1 2
M  V30 2 2 2 3
M  V30 3 1 3 4
M  V30 4 1 4 5
M  V30 5 2 4 6
M  V30 6 1 6 7
M  V30 7 2 7 8
M  V30 8 1 8 9
M  V30 9 1 8 10
M  V30 10 2 10 11
M  V30 11 1 11 12
M  V30 12 2 12 13
M  V30 13 1 13 14
M  V30 14 1 6 15
M  V30 15 2 15 16
M  V30 16 1 16 17
M  V30 17 2 17 18
M  V30 18 1 17 19
M  V30 19 1 19 20
M  V30 20 2 20 21
M  V30 21 1 21 22
M  V30 22 2 22 23
M  V30 23 1 23 24
M  V30 24 2 24 25
M  V30 25 1 25 26
M  V30 26 1 26 27
M  V30 27 1 27 28
M  V30 28 1 28 29
M  V30 29 1 28 30
M  V30 30 1 30 31
M  V30 31 1 31 32
M  V30 32 1 32 33
M  V30 33 1 32 34
M  V30 34 1 32 35
M  V30 35 1 31 36
M  V30 36 1 16 2
M  V30 37 1 25 20
M  V30 38 1 36 26
M  V30 39 1 13 7
M  V30 40 1 1 37
M  V30 41 1 1 38
M  V30 42 1 3 39
M  V30 43 1 10 40
M  V30 44 1 11 41
M  V30 45 1 12 42
M  V30 46 1 19 43
M  V30 47 1 21 44
M  V30 48 1 23 45
M  V30 49 1 24 46
M  V30 50 1 26 47 CFG=3
M  V30 51 1 27 48
M  V30 52 1 27 49
M  V30 53 1 28 50 CFG=1
M  V30 54 1 29 51
M  V30 55 1 29 52
M  V30 56 1 30 53
M  V30 57 1 30 54
M  V30 58 1 31 55 CFG=3
M  V30 59 1 36 56
M  V30 60 1 36 57
M  V30 END BOND
M  V30 END CTAB
M  END
>  <Dataset>  (292) 
ChEMBL_Kinases

>  <Ligand_Instance>  (292) 
nan

>  <PDB_ID>  (292) 
nan

>  <Standardized_SMILES>  (292) 
Nc1cc(F)c(-c2c(F)cccc2F)nc1C(=O)Nc1cnccc1[C@H]1C[C@@H](N)C[C@@H](C(F)(F)F)C1

>  <Name>  (292) 
nan

>  <Pocket>  (292) 
nan

>  <ATP_Site>  (292) 
nan

>  <Peripheral>  (292) 
nan

>  <Num_H_Atoms_ProtBoundConf>  (292) 
nan

>  <Num_Resolved_Atoms>  (292) 
nan

>  <Num_Not_Resolved_Atoms>  (292) 
nan

$$$$
CHEMBL3652005
     RDKit          3D

  0  0  0  0  0  0  0  0  0  0999 V3000
M  V30 BEGIN CTAB
M  V30 COUNTS 61 64 0 0 0
M  V30 BEGIN ATOM
M  V30 1 N 1.539188 -1.345551 5.313415 0
M  V30 2 C 2.113190 -1.626018 4.034637 0 CFG=2
M  V30 3 C 2.019481 -0.400162 3.111256 0
M  V30 4 C 2.907688 -0.757391 1.942651 0 CFG=2
M  V30 5 C 3.334850 0.347893 1.101783 0
M  V30 6 C 4.594861 0.948996 1.275092 0
M  V30 7 C 5.122104 1.996069 0.548756 0
M  V30 8 N 4.384145 2.513176 -0.425418 0
M  V30 9 C 3.167819 2.009153 -0.669093 0
M  V30 10 C 2.661891 0.961426 0.071122 0
M  V30 11 N 1.369526 0.554539 -0.291461 0
M  V30 12 C 0.432050 1.280513 0.515677 0
M  V30 13 O 0.951666 2.093860 1.340118 0
M  V30 14 C -1.022796 1.124046 0.426187 0
M  V30 15 C -1.804102 1.889451 1.263686 0
M  V30 16 C -3.196128 1.783772 1.224257 0
M  V30 17 C -3.809378 0.914169 0.348968 0
M  V30 18 F -5.160413 0.803110 0.301186 0
M  V30 19 C -2.975604 0.157036 -0.482555 0
M  V30 20 C -3.568962 -0.801896 -1.450939 0
M  V30 21 C -3.845148 -0.148556 -2.798926 0
M  V30 22 C -4.071215 -1.223844 -3.825998 0
M  V30 23 C -4.359134 -2.583833 -3.215039 0
M  V30 24 C -3.238389 -3.090918 -2.353438 0
M  V30 25 C -2.568839 -1.913646 -1.700713 0
M  V30 26 N -1.626823 0.275403 -0.427738 0
M  V30 27 C 2.417380 -1.930894 1.167871 0
M  V30 28 C 2.140604 -3.129451 2.060917 0 CFG=2
M  V30 29 C 1.295612 -4.097541 1.262645 0
M  V30 30 F 0.999099 -5.234284 2.026640 0
M  V30 31 F 0.079940 -3.544512 0.910479 0
M  V30 32 F 1.916399 -4.467631 0.088713 0
M  V30 33 C 1.381859 -2.732046 3.304336 0
M  V30 34 H 1.247326 -2.218901 5.789327 0
M  V30 35 H 0.702933 -0.740282 5.173586 0
M  V30 36 H 3.172188 -1.981064 4.121952 0
M  V30 37 H 0.951404 -0.334335 2.871603 0
M  V30 38 H 2.394489 0.507712 3.579858 0
M  V30 39 H 3.859567 -1.137754 2.452937 0
M  V30 40 H 5.249299 0.565122 2.063495 0
M  V30 41 H 6.094683 2.384540 0.758308 0
M  V30 42 H 2.620329 2.474126 -1.474449 0
M  V30 43 H 0.843187 -0.090673 -0.959350 0
M  V30 44 H -1.356997 2.597092 1.979143 0
M  V30 45 H -3.795283 2.404122 1.901264 0
M  V30 46 H -4.499497 -1.253605 -1.068610 0
M  V30 47 H -4.702149 0.545061 -2.701270 0
M  V30 48 H -2.986957 0.483158 -3.108624 0
M  V30 49 H -3.222311 -1.250294 -4.540597 0
M  V30 50 H -4.969437 -0.985247 -4.445319 0
M  V30 51 H -5.255123 -2.456523 -2.570517 0
M  V30 52 H -4.509246 -3.276256 -4.058205 0
M  V30 53 H -3.634375 -3.777720 -1.566760 0
M  V30 54 H -2.439300 -3.625627 -2.940304 0
M  V30 55 H -2.109188 -2.163532 -0.724921 0
M  V30 56 H -1.752847 -1.505630 -2.364938 0
M  V30 57 H 1.542268 -1.660858 0.569281 0
M  V30 58 H 3.221197 -2.243142 0.469385 0
M  V30 59 H 3.070130 -3.633091 2.375759 0
M  V30 60 H 0.411935 -2.267845 2.958801 0
M  V30 61 H 1.241545 -3.643610 3.895522 0
M  V30 END ATOM
M  V30 BEGIN BOND
M  V30 1 1 1 2
M  V30 2 1 2 3
M  V30 3 1 3 4
M  V30 4 1 4 5
M  V30 5 2 5 6
M  V30 6 1 6 7
M  V30 7 2 7 8
M  V30 8 1 8 9
M  V30 9 2 9 10
M  V30 10 1 10 11
M  V30 11 1 11 12
M  V30 12 2 12 13
M  V30 13 1 12 14
M  V30 14 2 14 15
M  V30 15 1 15 16
M  V30 16 2 16 17
M  V30 17 1 17 18
M  V30 18 1 17 19
M  V30 19 1 19 20
M  V30 20 1 20 21
M  V30 21 1 21 22
M  V30 22 1 22 23
M  V30 23 1 23 24
M  V30 24 1 24 25
M  V30 25 2 19 26
M  V30 26 1 4 27
M  V30 27 1 27 28
M  V30 28 1 28 29
M  V30 29 1 29 30
M  V30 30 1 29 31
M  V30 31 1 29 32
M  V30 32 1 28 33
M  V30 33 1 33 2
M  V30 34 1 10 5
M  V30 35 1 26 14
M  V30 36 1 25 20
M  V30 37 1 1 34
M  V30 38 1 1 35
M  V30 39 1 2 36 CFG=1
M  V30 40 1 3 37
M  V30 41 1 3 38
M  V30 42 1 4 39 CFG=1
M  V30 43 1 6 40
M  V30 44 1 7 41
M  V30 45 1 9 42
M  V30 46 1 11 43
M  V30 47 1 15 44
M  V30 48 1 16 45
M  V30 49 1 20 46
M  V30 50 1 21 47
M  V30 51 1 21 48
M  V30 52 1 22 49
M  V30 53 1 22 50
M  V30 54 1 23 51
M  V30 55 1 23 52
M  V30 56 1 24 53
M  V30 57 1 24 54
M  V30 58 1 25 55
M  V30 59 1 25 56
M  V30 60 1 27 57
M  V30 61 1 27 58
M  V30 62 1 28 59 CFG=1
M  V30 63 1 33 60
M  V30 64 1 33 61
M  V30 END BOND
M  V30 END CTAB
M  END
>  <Dataset>  (293) 
ChEMBL_Kinases

>  <Ligand_Instance>  (293) 
nan

>  <PDB_ID>  (293) 
nan

>  <Standardized_SMILES>  (293) 
N[C@@H]1C[C@H](c2ccncc2NC(=O)c2ccc(F)c(C3CCCCC3)n2)C[C@H](C(F)(F)F)C1

>  <Name>  (293) 
nan

>  <Pocket>  (293) 
nan

>  <ATP_Site>  (293) 
nan

>  <Peripheral>  (293) 
nan

>  <Num_H_Atoms_ProtBoundConf>  (293) 
nan

>  <Num_Resolved_Atoms>  (293) 
nan

>  <Num_Not_Resolved_Atoms>  (293) 
nan

$$$$
CHEMBL3652006
     RDKit          3D

  0  0  0  0  0  0  0  0  0  0999 V3000
M  V30 BEGIN CTAB
M  V30 COUNTS 57 60 0 0 0
M  V30 BEGIN ATOM
M  V30 1 N -2.440399 -2.029116 3.518198 0
M  V30 2 C -2.110175 -0.712842 3.094865 0
M  V30 3 C -2.060860 0.304495 4.053720 0
M  V30 4 C -1.732149 1.566256 3.572099 0
M  V30 5 C -1.455947 1.898299 2.260681 0
M  V30 6 C -1.127610 3.261869 1.908355 0
M  V30 7 C 0.150524 3.768166 1.897293 0
M  V30 8 F 1.185089 2.960294 2.233328 0
M  V30 9 C 0.298449 5.103703 1.534232 0
M  V30 10 C -0.783103 5.892394 1.198760 0
M  V30 11 C -2.059927 5.370621 1.214340 0
M  V30 12 C -2.247789 4.031792 1.574198 0
M  V30 13 F -3.515081 3.552088 1.578868 0
M  V30 14 N -1.517780 0.868895 1.364969 0
M  V30 15 C -1.828485 -0.341622 1.797946 0
M  V30 16 C -1.901729 -1.473460 0.845914 0
M  V30 17 O -2.194990 -2.634464 1.232169 0
M  V30 18 N -1.657300 -1.393604 -0.581768 0
M  V30 19 C -1.849702 -2.725856 -1.038860 0
M  V30 20 C -3.138714 -3.122733 -1.315757 0
M  V30 21 N -3.360182 -4.375556 -1.747767 0
M  V30 22 C -2.339671 -5.234071 -1.909112 0
M  V30 23 C -1.065831 -4.799988 -1.622509 0
M  V30 24 C -0.732322 -3.514049 -1.167519 0
M  V30 25 C 0.681773 -3.272376 -0.963706 0 CFG=1
M  V30 26 C 1.344918 -2.982752 -2.293868 0
M  V30 27 C 2.841563 -2.871459 -2.171650 0 CFG=1
M  V30 28 N 3.368142 -2.485560 -3.453131 0
M  V30 29 C 3.171702 -1.812838 -1.171959 0
M  V30 30 C 2.599684 -2.268563 0.173516 0 CFG=1
M  V30 31 C 3.074629 -1.292698 1.205711 0
M  V30 32 F 4.455790 -1.296394 1.233647 0
M  V30 33 F 2.715488 -0.029940 0.764520 0
M  V30 34 F 2.608259 -1.560015 2.462101 0
M  V30 35 C 1.078401 -2.295765 0.097370 0
M  V30 36 H -1.832253 -2.874865 3.572764 0
M  V30 37 H -3.447570 -1.997282 3.777049 0
M  V30 38 H -2.261442 0.125368 5.083288 0
M  V30 39 H -1.693875 2.365925 4.328789 0
M  V30 40 H 1.297385 5.518191 1.520259 0
M  V30 41 H -0.674427 6.933431 0.915065 0
M  V30 42 H -2.946492 5.958627 0.955904 0
M  V30 43 H -1.407691 -0.418472 -0.926777 0
M  V30 44 H -3.947039 -2.418306 -1.180060 0
M  V30 45 H -2.536647 -6.237738 -2.256952 0
M  V30 46 H -0.288568 -5.564468 -1.781231 0
M  V30 47 H 1.165590 -4.245088 -0.642233 0
M  V30 48 H 0.968706 -2.086868 -2.804688 0
M  V30 49 H 1.129094 -3.847889 -2.954118 0
M  V30 50 H 3.320494 -3.819597 -1.862552 0
M  V30 51 H 4.395825 -2.458864 -3.513654 0
M  V30 52 H 2.863583 -1.725742 -3.919041 0
M  V30 53 H 4.277679 -1.738109 -1.006106 0
M  V30 54 H 2.733047 -0.839539 -1.400859 0
M  V30 55 H 3.011645 -3.276048 0.370231 0
M  V30 56 H 0.758750 -1.266482 -0.038216 0
M  V30 57 H 0.721556 -2.653088 1.075031 0
M  V30 END ATOM
M  V30 BEGIN BOND
M  V30 1 1 1 2
M  V30 2 2 2 3
M  V30 3 1 3 4
M  V30 4 2 4 5
M  V30 5 1 5 6
M  V30 6 2 6 7
M  V30 7 1 7 8
M  V30 8 1 7 9
M  V30 9 2 9 10
M  V30 10 1 10 11
M  V30 11 2 11 12
M  V30 12 1 12 13
M  V30 13 1 5 14
M  V30 14 2 14 15
M  V30 15 1 15 16
M  V30 16 2 16 17
M  V30 17 1 16 18
M  V30 18 1 18 19
M  V30 19 2 19 20
M  V30 20 1 20 21
M  V30 21 2 21 22
M  V30 22 1 22 23
M  V30 23 2 23 24
M  V30 24 1 24 25
M  V30 25 1 25 26
M  V30 26 1 26 27
M  V30 27 1 27 28
M  V30 28 1 27 29
M  V30 29 1 29 30
M  V30 30 1 30 31
M  V30 31 1 31 32
M  V30 32 1 31 33
M  V30 33 1 31 34
M  V30 34 1 30 35
M  V30 35 1 15 2
M  V30 36 1 24 19
M  V30 37 1 35 25
M  V30 38 1 12 6
M  V30 39 1 1 36
M  V30 40 1 1 37
M  V30 41 1 3 38
M  V30 42 1 4 39
M  V30 43 1 9 40
M  V30 44 1 10 41
M  V30 45 1 11 42
M  V30 46 1 18 43
M  V30 47 1 20 44
M  V30 48 1 22 45
M  V30 49 1 23 46
M  V30 50 1 25 47 CFG=1
M  V30 51 1 26 48
M  V30 52 1 26 49
M  V30 53 1 27 50 CFG=1
M  V30 54 1 28 51
M  V30 55 1 28 52
M  V30 56 1 29 53
M  V30 57 1 29 54
M  V30 58 1 30 55 CFG=1
M  V30 59 1 35 56
M  V30 60 1 35 57
M  V30 END BOND
M  V30 END CTAB
M  END
>  <Dataset>  (294) 
ChEMBL_Kinases

>  <Ligand_Instance>  (294) 
nan

>  <PDB_ID>  (294) 
nan

>  <Standardized_SMILES>  (294) 
Nc1ccc(-c2c(F)cccc2F)nc1C(=O)Nc1cnccc1[C@H]1C[C@@H](N)C[C@@H](C(F)(F)F)C1

>  <Name>  (294) 
nan

>  <Pocket>  (294) 
nan

>  <ATP_Site>  (294) 
nan

>  <Peripheral>  (294) 
nan

>  <Num_H_Atoms_ProtBoundConf>  (294) 
nan

>  <Num_Resolved_Atoms>  (294) 
nan

>  <Num_Not_Resolved_Atoms>  (294) 
nan

$$$$
CHEMBL3652007
     RDKit          3D

  0  0  0  0  0  0  0  0  0  0999 V3000
M  V30 BEGIN CTAB
M  V30 COUNTS 55 58 0 0 0
M  V30 BEGIN ATOM
M  V30 1 C 0.649290 -0.731291 3.346096 0
M  V30 2 C 1.428408 -1.775378 2.553367 0 CFG=2
M  V30 3 C 2.654688 -1.088436 2.002212 0
M  V30 4 N 2.843381 -1.535635 0.632731 0
M  V30 5 C 3.161734 -0.850494 -0.596325 0
M  V30 6 C 4.359698 -1.339200 -1.118496 0
M  V30 7 C 4.892301 -0.844678 -2.305401 0
M  V30 8 N 4.195830 0.128677 -2.926241 0
M  V30 9 C 3.040529 0.612989 -2.440014 0
M  V30 10 C 2.485911 0.145236 -1.267346 0
M  V30 11 N 1.296454 0.540877 -0.633656 0
M  V30 12 C 0.909798 1.513769 0.324518 0
M  V30 13 O 1.816376 2.265414 0.778904 0
M  V30 14 C -0.495167 1.571848 0.709478 0
M  V30 15 C -0.807073 2.538559 1.643056 0
M  V30 16 C -2.090252 2.764888 2.148365 0
M  V30 17 C -3.100800 1.952832 1.665673 0
M  V30 18 F -4.347316 2.138473 2.126297 0
M  V30 19 C -2.737133 0.993749 0.726611 0
M  V30 20 C -3.810290 0.156081 0.236073 0
M  V30 21 C -4.111494 -1.032619 0.891920 0
M  V30 22 F -3.438018 -1.455993 1.989256 0
M  V30 23 C -5.150337 -1.838610 0.413091 0
M  V30 24 C -5.881622 -1.469121 -0.703608 0
M  V30 25 C -5.590252 -0.278493 -1.371948 0
M  V30 26 C -4.556962 0.505714 -0.881076 0
M  V30 27 F -4.252973 1.666899 -1.510997 0
M  V30 28 N -1.499285 0.819565 0.278406 0
M  V30 29 C 2.676587 -2.987478 0.459890 0
M  V30 30 C 1.186474 -3.249099 0.540974 0 CFG=2
M  V30 31 N 0.629418 -3.029151 -0.781053 0
M  V30 32 C 0.501655 -2.297976 1.489321 0 CFG=1
M  V30 33 O -0.552340 -2.979019 2.061081 0
M  V30 34 H -0.446057 -0.926363 3.292792 0
M  V30 35 H 0.962887 -0.802774 4.418683 0
M  V30 36 H 0.904777 0.264785 2.978570 0
M  V30 37 H 1.680459 -2.634325 3.224259 0
M  V30 38 H 3.515867 -1.483966 2.615137 0
M  V30 39 H 2.612231 0.004779 2.116748 0
M  V30 40 H 4.990625 -2.125014 -0.684700 0
M  V30 41 H 5.809529 -1.188867 -2.745359 0
M  V30 42 H 2.460103 1.397286 -2.921368 0
M  V30 43 H 0.573267 -0.096657 -1.030707 0
M  V30 44 H -0.045060 3.210821 2.060392 0
M  V30 45 H -2.284553 3.529480 2.874300 0
M  V30 46 H -5.432779 -2.781774 0.885488 0
M  V30 47 H -6.671176 -2.093548 -1.057696 0
M  V30 48 H -6.160115 -0.007904 -2.227783 0
M  V30 49 H 3.128621 -3.371386 -0.452709 0
M  V30 50 H 3.158135 -3.488687 1.325760 0
M  V30 51 H 0.969097 -4.304332 0.815436 0
M  V30 52 H 1.323757 -2.702002 -1.476194 0
M  V30 53 H -0.173170 -2.361366 -0.758812 0
M  V30 54 H 0.101016 -1.446329 0.929241 0
M  V30 55 H -1.339595 -3.065691 1.444611 0
M  V30 END ATOM
M  V30 BEGIN BOND
M  V30 1 1 1 2
M  V30 2 1 2 3
M  V30 3 1 3 4
M  V30 4 1 4 5
M  V30 5 2 5 6
M  V30 6 1 6 7
M  V30 7 2 7 8
M  V30 8 1 8 9
M  V30 9 2 9 10
M  V30 10 1 10 11
M  V30 11 1 11 12
M  V30 12 2 12 13
M  V30 13 1 12 14
M  V30 14 2 14 15
M  V30 15 1 15 16
M  V30 16 2 16 17
M  V30 17 1 17 18
M  V30 18 1 17 19
M  V30 19 1 19 20
M  V30 20 2 20 21
M  V30 21 1 21 22
M  V30 22 1 21 23
M  V30 23 2 23 24
M  V30 24 1 24 25
M  V30 25 2 25 26
M  V30 26 1 26 27
M  V30 27 2 19 28
M  V30 28 1 4 29
M  V30 29 1 29 30
M  V30 30 1 30 31
M  V30 31 1 30 32
M  V30 32 1 32 33
M  V30 33 1 32 2
M  V30 34 1 10 5
M  V30 35 1 28 14
M  V30 36 1 26 20
M  V30 37 1 1 34
M  V30 38 1 1 35
M  V30 39 1 1 36
M  V30 40 1 2 37 CFG=1
M  V30 41 1 3 38
M  V30 42 1 3 39
M  V30 43 1 6 40
M  V30 44 1 7 41
M  V30 45 1 9 42
M  V30 46 1 11 43
M  V30 47 1 15 44
M  V30 48 1 16 45
M  V30 49 1 23 46
M  V30 50 1 24 47
M  V30 51 1 25 48
M  V30 52 1 29 49
M  V30 53 1 29 50
M  V30 54 1 30 51 CFG=1
M  V30 55 1 31 52
M  V30 56 1 31 53
M  V30 57 1 32 54 CFG=3
M  V30 58 1 33 55
M  V30 END BOND
M  V30 END CTAB
M  END
>  <Dataset>  (295) 
ChEMBL_Kinases

>  <Ligand_Instance>  (295) 
nan

>  <PDB_ID>  (295) 
nan

>  <Standardized_SMILES>  (295) 
C[C@@H]1CN(c2ccncc2NC(=O)c2ccc(F)c(-c3c(F)cccc3F)n2)C[C@H](N)[C@H]1O

>  <Name>  (295) 
nan

>  <Pocket>  (295) 
nan

>  <ATP_Site>  (295) 
nan

>  <Peripheral>  (295) 
nan

>  <Num_H_Atoms_ProtBoundConf>  (295) 
nan

>  <Num_Resolved_Atoms>  (295) 
nan

>  <Num_Not_Resolved_Atoms>  (295) 
nan

$$$$
CHEMBL3652008
     RDKit          3D

  0  0  0  0  0  0  0  0  0  0999 V3000
M  V30 BEGIN CTAB
M  V30 COUNTS 54 57 0 0 0
M  V30 BEGIN ATOM
M  V30 1 C -1.383734 -2.449849 1.398606 0
M  V30 2 C 0.045907 -2.583093 0.926947 0 CFG=1
M  V30 3 C 0.931817 -2.112025 2.064767 0
M  V30 4 N 2.225202 -1.845540 1.490253 0
M  V30 5 C 3.168479 -0.782736 1.587623 0
M  V30 6 C 4.395540 -1.184467 2.081112 0
M  V30 7 C 5.446633 -0.306768 2.250131 0
M  V30 8 N 5.221820 0.994825 1.903492 0
M  V30 9 C 4.019689 1.358670 1.425742 0
M  V30 10 C 2.944752 0.526231 1.239724 0
M  V30 11 N 1.681579 0.883268 0.740794 0
M  V30 12 C 1.180456 2.119362 0.278758 0
M  V30 13 O 1.988177 3.108176 0.297638 0
M  V30 14 C -0.172198 2.346824 -0.210694 0
M  V30 15 C -0.533639 3.606437 -0.639880 0
M  V30 16 C -1.815836 3.836738 -1.101539 0
M  V30 17 C -2.683320 2.768273 -1.106757 0
M  V30 18 F -3.924809 3.070885 -1.574403 0
M  V30 19 C -2.270475 1.516232 -0.663212 0
M  V30 20 C -3.367722 0.536571 -0.761107 0
M  V30 21 C -4.532560 0.875732 -0.119221 0
M  V30 22 C -5.680612 0.088681 -0.087478 0
M  V30 23 C -5.631794 -1.121375 -0.755550 0
M  V30 24 C -4.463504 -1.463721 -1.400747 0
M  V30 25 C -3.335183 -0.688643 -1.430960 0
M  V30 26 F -2.174728 -0.975555 -2.045653 0
M  V30 27 N -1.025954 1.284904 -0.213833 0
M  V30 28 C 2.673282 -2.922554 0.603670 0
M  V30 29 C 1.901800 -4.205577 0.827699 0 CFG=1
M  V30 30 O 2.254882 -4.822588 2.034626 0
M  V30 31 C 0.424471 -4.025755 0.673533 0 CFG=2
M  V30 32 O -0.052803 -4.403017 -0.580731 0
M  V30 33 H -2.110820 -2.926008 0.740015 0
M  V30 34 H -1.570301 -1.343642 1.437828 0
M  V30 35 H -1.414863 -2.791806 2.449935 0
M  V30 36 H 0.247292 -2.038948 -0.008509 0
M  V30 37 H 1.077391 -2.950459 2.808625 0
M  V30 38 H 0.506041 -1.276466 2.622130 0
M  V30 39 H 4.636610 -2.183624 2.368566 0
M  V30 40 H 6.420841 -0.594878 2.636995 0
M  V30 41 H 3.945078 2.399918 1.183986 0
M  V30 42 H 0.935644 0.154797 0.673733 0
M  V30 43 H 0.192285 4.420863 -0.619414 0
M  V30 44 H -2.080334 4.828883 -1.431776 0
M  V30 45 H -4.636284 1.819008 0.425164 0
M  V30 46 H -6.579726 0.408261 0.438883 0
M  V30 47 H -6.497622 -1.755349 -0.753446 0
M  V30 48 H -4.412489 -2.419437 -1.929263 0
M  V30 49 H 3.736427 -3.171099 0.850694 0
M  V30 50 H 2.606804 -2.663476 -0.457434 0
M  V30 51 H 2.230810 -4.889935 0.015583 0
M  V30 52 H 1.521960 -5.356886 2.427382 0
M  V30 53 H -0.056669 -4.613028 1.502925 0
M  V30 54 H -0.262731 -3.608686 -1.107252 0
M  V30 END ATOM
M  V30 BEGIN BOND
M  V30 1 1 1 2
M  V30 2 1 2 3
M  V30 3 1 3 4
M  V30 4 1 4 5
M  V30 5 2 5 6
M  V30 6 1 6 7
M  V30 7 2 7 8
M  V30 8 1 8 9
M  V30 9 2 9 10
M  V30 10 1 10 11
M  V30 11 1 11 12
M  V30 12 2 12 13
M  V30 13 1 12 14
M  V30 14 2 14 15
M  V30 15 1 15 16
M  V30 16 2 16 17
M  V30 17 1 17 18
M  V30 18 1 17 19
M  V30 19 1 19 20
M  V30 20 2 20 21
M  V30 21 1 21 22
M  V30 22 2 22 23
M  V30 23 1 23 24
M  V30 24 2 24 25
M  V30 25 1 25 26
M  V30 26 2 19 27
M  V30 27 1 4 28
M  V30 28 1 28 29
M  V30 29 1 29 30
M  V30 30 1 29 31
M  V30 31 1 31 32
M  V30 32 1 31 2
M  V30 33 1 10 5
M  V30 34 1 27 14
M  V30 35 1 25 20
M  V30 36 1 1 33
M  V30 37 1 1 34
M  V30 38 1 1 35
M  V30 39 1 2 36 CFG=3
M  V30 40 1 3 37
M  V30 41 1 3 38
M  V30 42 1 6 39
M  V30 43 1 7 40
M  V30 44 1 9 41
M  V30 45 1 11 42
M  V30 46 1 15 43
M  V30 47 1 16 44
M  V30 48 1 21 45
M  V30 49 1 22 46
M  V30 50 1 23 47
M  V30 51 1 24 48
M  V30 52 1 28 49
M  V30 53 1 28 50
M  V30 54 1 29 51 CFG=3
M  V30 55 1 30 52
M  V30 56 1 31 53 CFG=1
M  V30 57 1 32 54
M  V30 END BOND
M  V30 END CTAB
M  END
>  <Dataset>  (296) 
ChEMBL_Kinases

>  <Ligand_Instance>  (296) 
nan

>  <PDB_ID>  (296) 
nan

>  <Standardized_SMILES>  (296) 
C[C@H]1CN(c2ccncc2NC(=O)c2ccc(F)c(-c3ccccc3F)n2)C[C@@H](O)[C@@H]1O

>  <Name>  (296) 
nan

>  <Pocket>  (296) 
nan

>  <ATP_Site>  (296) 
nan

>  <Peripheral>  (296) 
nan

>  <Num_H_Atoms_ProtBoundConf>  (296) 
nan

>  <Num_Resolved_Atoms>  (296) 
nan

>  <Num_Not_Resolved_Atoms>  (296) 
nan

$$$$
CHEMBL3652009
     RDKit          3D

  0  0  0  0  0  0  0  0  0  0999 V3000
M  V30 BEGIN CTAB
M  V30 COUNTS 54 57 0 0 0
M  V30 BEGIN ATOM
M  V30 1 C -1.264701 -2.309483 1.767557 0
M  V30 2 C 0.143083 -2.607821 1.351655 0 CFG=1
M  V30 3 C 1.199717 -2.051169 2.254752 0
M  V30 4 N 2.387454 -1.975245 1.441597 0
M  V30 5 C 3.320951 -1.004024 1.025593 0
M  V30 6 C 4.674855 -1.138842 1.341728 0
M  V30 7 C 5.504136 -0.118918 0.878654 0
M  V30 8 N 5.083279 0.945236 0.171476 0
M  V30 9 C 3.781045 1.093229 -0.143509 0
M  V30 10 C 2.919181 0.100171 0.297887 0
M  V30 11 N 1.540443 0.305549 -0.064675 0
M  V30 12 C 0.899255 1.059634 0.975054 0
M  V30 13 O 1.704705 1.337464 1.916706 0
M  V30 14 C -0.508324 1.450195 0.936856 0
M  V30 15 C -0.943227 2.173373 2.030421 0
M  V30 16 C -2.229680 2.619616 2.159388 0
M  V30 17 C -3.098211 2.311459 1.128402 0
M  V30 18 C -2.658585 1.580709 0.023470 0
M  V30 19 C -3.524267 1.232086 -1.080239 0
M  V30 20 C -4.231013 0.070060 -1.068813 0
M  V30 21 F -4.173001 -0.827568 -0.037006 0
M  V30 22 C -5.062397 -0.277141 -2.115913 0
M  V30 23 C -5.207612 0.554036 -3.226294 0
M  V30 24 C -4.498373 1.757238 -3.276315 0
M  V30 25 C -3.685976 2.038722 -2.193036 0
M  V30 26 F -2.974799 3.210754 -2.207369 0
M  V30 27 N -1.362843 1.157775 -0.057757 0
M  V30 28 C 2.785764 -3.248900 0.850872 0
M  V30 29 C 1.885839 -4.382247 1.219381 0 CFG=1
M  V30 30 O 2.302519 -4.939000 2.450617 0
M  V30 31 C 0.423871 -4.078765 1.192647 0 CFG=2
M  V30 32 O -0.220386 -4.619211 0.075695 0
M  V30 33 H -1.377294 -1.203848 1.754641 0
M  V30 34 H -1.589954 -2.783983 2.694483 0
M  V30 35 H -1.913852 -2.680981 0.936601 0
M  V30 36 H 0.277756 -2.165714 0.330666 0
M  V30 37 H 1.422827 -2.849975 3.022190 0
M  V30 38 H 0.946879 -1.170852 2.827646 0
M  V30 39 H 5.052083 -1.973638 1.904689 0
M  V30 40 H 6.578123 -0.144652 1.081052 0
M  V30 41 H 3.436917 1.945119 -0.710873 0
M  V30 42 H 0.967692 0.018647 -0.898196 0
M  V30 43 H -0.278861 2.429819 2.857083 0
M  V30 44 H -2.577249 3.191803 3.022777 0
M  V30 45 H -4.140697 2.634181 1.161573 0
M  V30 46 H -5.671132 -1.170670 -2.217708 0
M  V30 47 H -5.838088 0.349165 -4.081109 0
M  V30 48 H -4.581465 2.427554 -4.114167 0
M  V30 49 H 3.790123 -3.483595 1.311052 0
M  V30 50 H 2.944839 -3.169844 -0.243607 0
M  V30 51 H 2.065756 -5.179466 0.443460 0
M  V30 52 H 1.528011 -5.331658 2.918899 0
M  V30 53 H -0.027408 -4.567020 2.106033 0
M  V30 54 H -0.036744 -4.062813 -0.717967 0
M  V30 END ATOM
M  V30 BEGIN BOND
M  V30 1 1 1 2
M  V30 2 1 2 3
M  V30 3 1 3 4
M  V30 4 1 4 5
M  V30 5 2 5 6
M  V30 6 1 6 7
M  V30 7 2 7 8
M  V30 8 1 8 9
M  V30 9 2 9 10
M  V30 10 1 10 11
M  V30 11 1 11 12
M  V30 12 2 12 13
M  V30 13 1 12 14
M  V30 14 2 14 15
M  V30 15 1 15 16
M  V30 16 2 16 17
M  V30 17 1 17 18
M  V30 18 1 18 19
M  V30 19 2 19 20
M  V30 20 1 20 21
M  V30 21 1 20 22
M  V30 22 2 22 23
M  V30 23 1 23 24
M  V30 24 2 24 25
M  V30 25 1 25 26
M  V30 26 2 18 27
M  V30 27 1 4 28
M  V30 28 1 28 29
M  V30 29 1 29 30
M  V30 30 1 29 31
M  V30 31 1 31 32
M  V30 32 1 31 2
M  V30 33 1 10 5
M  V30 34 1 27 14
M  V30 35 1 25 19
M  V30 36 1 1 33
M  V30 37 1 1 34
M  V30 38 1 1 35
M  V30 39 1 2 36 CFG=3
M  V30 40 1 3 37
M  V30 41 1 3 38
M  V30 42 1 6 39
M  V30 43 1 7 40
M  V30 44 1 9 41
M  V30 45 1 11 42
M  V30 46 1 15 43
M  V30 47 1 16 44
M  V30 48 1 17 45
M  V30 49 1 22 46
M  V30 50 1 23 47
M  V30 51 1 24 48
M  V30 52 1 28 49
M  V30 53 1 28 50
M  V30 54 1 29 51 CFG=3
M  V30 55 1 30 52
M  V30 56 1 31 53 CFG=1
M  V30 57 1 32 54
M  V30 END BOND
M  V30 END CTAB
M  END
>  <Dataset>  (297) 
ChEMBL_Kinases

>  <Ligand_Instance>  (297) 
nan

>  <PDB_ID>  (297) 
nan

>  <Standardized_SMILES>  (297) 
C[C@H]1CN(c2ccncc2NC(=O)c2cccc(-c3c(F)cccc3F)n2)C[C@@H](O)[C@@H]1O

>  <Name>  (297) 
nan

>  <Pocket>  (297) 
nan

>  <ATP_Site>  (297) 
nan

>  <Peripheral>  (297) 
nan

>  <Num_H_Atoms_ProtBoundConf>  (297) 
nan

>  <Num_Resolved_Atoms>  (297) 
nan

>  <Num_Not_Resolved_Atoms>  (297) 
nan

$$$$
CHEMBL3652010
     RDKit          3D

  0  0  0  0  0  0  0  0  0  0999 V3000
M  V30 BEGIN CTAB
M  V30 COUNTS 54 57 0 0 0
M  V30 BEGIN ATOM
M  V30 1 C 2.336474 -3.484405 2.266192 0
M  V30 2 C 1.419504 -3.346931 1.079440 0 CFG=1
M  V30 3 C 1.017372 -1.909174 0.830200 0
M  V30 4 N 1.891271 -1.233855 -0.106298 0
M  V30 5 C 2.763843 -0.086048 -0.048833 0
M  V30 6 C 4.088842 -0.309266 -0.292490 0
M  V30 7 C 5.041541 0.685235 -0.270814 0
M  V30 8 N 4.578173 1.919091 0.011401 0
M  V30 9 C 3.273942 2.134396 0.250453 0
M  V30 10 C 2.293335 1.173033 0.238722 0
M  V30 11 N 0.912377 1.348059 0.482041 0
M  V30 12 C 0.188268 2.522085 0.796724 0
M  V30 13 O 0.814988 3.605778 0.887375 0
M  V30 14 C -1.245710 2.539590 1.021000 0
M  V30 15 C -1.914659 3.681136 1.321605 0
M  V30 16 C -3.265663 3.650324 1.524779 0
M  V30 17 C -3.983063 2.465521 1.430652 0
M  V30 18 F -5.319957 2.418872 1.628920 0
M  V30 19 C -3.273289 1.299597 1.119530 0
M  V30 20 C -3.950633 0.013354 1.001676 0
M  V30 21 C -4.024680 -0.702496 2.189438 0
M  V30 22 F -3.512220 -0.253415 3.372334 0
M  V30 23 C -4.635155 -1.941383 2.249477 0
M  V30 24 C -5.193658 -2.498520 1.101601 0
M  V30 25 C -5.114485 -1.778992 -0.072632 0
M  V30 26 C -4.506537 -0.541298 -0.140644 0
M  V30 27 F -4.387692 0.224509 -1.247387 0
M  V30 28 N -1.959718 1.397442 0.933722 0
M  V30 29 C 1.954730 -1.795237 -1.461219 0
M  V30 30 C 1.379090 -3.186837 -1.361157 0 CFG=1
M  V30 31 O 1.632335 -3.876827 -2.528481 0
M  V30 32 C 2.060452 -3.872154 -0.186960 0 CFG=2
M  V30 33 O 1.936403 -5.254152 -0.286664 0
M  V30 34 H 2.182079 -2.678789 3.018762 0
M  V30 35 H 2.174022 -4.447092 2.769145 0
M  V30 36 H 3.396949 -3.498709 1.913637 0
M  V30 37 H 0.492658 -3.946557 1.241607 0
M  V30 38 H -0.012528 -1.865650 0.420206 0
M  V30 39 H 0.996627 -1.326396 1.793344 0
M  V30 40 H 4.440458 -1.305185 -0.516624 0
M  V30 41 H 6.088247 0.505983 -0.463797 0
M  V30 42 H 2.999777 3.153052 0.466593 0
M  V30 43 H 0.289940 0.514537 0.433187 0
M  V30 44 H -1.393780 4.603085 1.400621 0
M  V30 45 H -3.836162 4.534976 1.765774 0
M  V30 46 H -4.712419 -2.525382 3.148718 0
M  V30 47 H -5.687427 -3.470477 1.087342 0
M  V30 48 H -5.533319 -2.161802 -1.006469 0
M  V30 49 H 2.995395 -1.894180 -1.828730 0
M  V30 50 H 1.411546 -1.163234 -2.184223 0
M  V30 51 H 0.300809 -3.110021 -1.168363 0
M  V30 52 H 1.330418 -3.320495 -3.288877 0
M  V30 53 H 3.163833 -3.658953 -0.188627 0
M  V30 54 H 1.508015 -5.469197 -1.138233 0
M  V30 END ATOM
M  V30 BEGIN BOND
M  V30 1 1 1 2
M  V30 2 1 2 3
M  V30 3 1 3 4
M  V30 4 1 4 5
M  V30 5 2 5 6
M  V30 6 1 6 7
M  V30 7 2 7 8
M  V30 8 1 8 9
M  V30 9 2 9 10
M  V30 10 1 10 11
M  V30 11 1 11 12
M  V30 12 2 12 13
M  V30 13 1 12 14
M  V30 14 2 14 15
M  V30 15 1 15 16
M  V30 16 2 16 17
M  V30 17 1 17 18
M  V30 18 1 17 19
M  V30 19 1 19 20
M  V30 20 2 20 21
M  V30 21 1 21 22
M  V30 22 1 21 23
M  V30 23 2 23 24
M  V30 24 1 24 25
M  V30 25 2 25 26
M  V30 26 1 26 27
M  V30 27 2 19 28
M  V30 28 1 4 29
M  V30 29 1 29 30
M  V30 30 1 30 31
M  V30 31 1 30 32
M  V30 32 1 32 33
M  V30 33 1 32 2
M  V30 34 1 10 5
M  V30 35 1 28 14
M  V30 36 1 26 20
M  V30 37 1 1 34
M  V30 38 1 1 35
M  V30 39 1 1 36
M  V30 40 1 2 37 CFG=1
M  V30 41 1 3 38
M  V30 42 1 3 39
M  V30 43 1 6 40
M  V30 44 1 7 41
M  V30 45 1 9 42
M  V30 46 1 11 43
M  V30 47 1 15 44
M  V30 48 1 16 45
M  V30 49 1 23 46
M  V30 50 1 24 47
M  V30 51 1 25 48
M  V30 52 1 29 49
M  V30 53 1 29 50
M  V30 54 1 30 51 CFG=1
M  V30 55 1 31 52
M  V30 56 1 32 53 CFG=1
M  V30 57 1 33 54
M  V30 END BOND
M  V30 END CTAB
M  END
>  <Dataset>  (298) 
ChEMBL_Kinases

>  <Ligand_Instance>  (298) 
nan

>  <PDB_ID>  (298) 
nan

>  <Standardized_SMILES>  (298) 
C[C@H]1CN(c2ccncc2NC(=O)c2ccc(F)c(-c3c(F)cccc3F)n2)C[C@@H](O)[C@@H]1O

>  <Name>  (298) 
nan

>  <Pocket>  (298) 
nan

>  <ATP_Site>  (298) 
nan

>  <Peripheral>  (298) 
nan

>  <Num_H_Atoms_ProtBoundConf>  (298) 
nan

>  <Num_Resolved_Atoms>  (298) 
nan

>  <Num_Not_Resolved_Atoms>  (298) 
nan

$$$$
CHEMBL3651906
     RDKit          3D

  0  0  0  0  0  0  0  0  0  0999 V3000
M  V30 BEGIN CTAB
M  V30 COUNTS 59 62 0 0 0
M  V30 BEGIN ATOM
M  V30 1 C 4.679062 0.522325 2.327481 0
M  V30 2 C 3.178964 0.621323 2.666416 0
M  V30 3 C 3.164295 1.405297 3.989786 0
M  V30 4 C 2.780938 -0.778355 3.018637 0
M  V30 5 C 1.328082 -0.919441 2.620812 0 CFG=2
M  V30 6 N 0.722863 -2.121779 3.133439 0
M  V30 7 C 1.413932 -0.942851 1.086609 0
M  V30 8 C 1.567944 0.508356 0.676838 0 CFG=2
M  V30 9 C 1.920449 0.674159 -0.755382 0
M  V30 10 C 3.240301 0.792024 -1.167163 0
M  V30 11 C 3.482881 0.952960 -2.529858 0
M  V30 12 N 2.520588 1.000862 -3.462245 0
M  V30 13 C 1.205709 0.888586 -3.103647 0
M  V30 14 C 0.928430 0.725130 -1.739618 0
M  V30 15 N -0.434695 0.600591 -1.360669 0
M  V30 16 C -1.567869 1.359768 -0.965659 0
M  V30 17 O -1.500551 2.618433 -0.868875 0
M  V30 18 C -2.766479 0.574005 -0.695078 0
M  V30 19 C -3.870788 1.298937 -0.312203 0
M  V30 20 C -5.035443 0.615316 -0.042765 0
M  V30 21 C -5.117804 -0.753852 -0.145702 0
M  V30 22 F -6.177490 -1.559880 0.082102 0
M  V30 23 C -3.974071 -1.454342 -0.537139 0
M  V30 24 C -3.780812 -2.891363 -0.726645 0
M  V30 25 C -4.573716 -3.678909 -1.533864 0
M  V30 26 C -4.280988 -5.036177 -1.630110 0
M  V30 27 C -3.244607 -5.651976 -0.968868 0
M  V30 28 O -3.036510 -7.010171 -1.131544 0
M  V30 29 C -2.462699 -4.839108 -0.164184 0
M  V30 30 C -2.714255 -3.470509 -0.032807 0
M  V30 31 F -1.864747 -2.796118 0.794710 0
M  V30 32 N -2.865586 -0.745480 -0.788994 0
M  V30 33 C 2.407896 1.307473 1.618484 0
M  V30 34 H 5.265126 0.228808 3.219651 0
M  V30 35 H 5.074867 1.452816 1.909564 0
M  V30 36 H 4.828307 -0.276958 1.553131 0
M  V30 37 H 3.947623 1.063610 4.684942 0
M  V30 38 H 2.200667 1.350075 4.507264 0
M  V30 39 H 3.333026 2.478091 3.750244 0
M  V30 40 H 3.397028 -1.520458 2.441861 0
M  V30 41 H 2.977072 -1.005677 4.085522 0
M  V30 42 H 0.737235 -0.016868 2.875257 0
M  V30 43 H -0.268834 -2.004787 3.429522 0
M  V30 44 H 1.338317 -2.536842 3.877575 0
M  V30 45 H 0.479854 -1.398303 0.753824 0
M  V30 46 H 2.299669 -1.489833 0.765069 0
M  V30 47 H 0.528316 0.898481 0.768393 0
M  V30 48 H 4.050278 0.763168 -0.482965 0
M  V30 49 H 4.505141 1.046115 -2.864431 0
M  V30 50 H 0.397493 0.920292 -3.802504 0
M  V30 51 H -0.478713 -0.456224 -1.445965 0
M  V30 52 H -3.831684 2.363201 -0.222900 0
M  V30 53 H -5.955007 1.088075 0.263821 0
M  V30 54 H -5.388517 -3.223496 -2.060348 0
M  V30 55 H -4.905056 -5.668736 -2.267144 0
M  V30 56 H -2.483305 -7.564008 -0.512967 0
M  V30 57 H -1.650896 -5.332343 0.350575 0
M  V30 58 H 1.847824 2.136470 2.101604 0
M  V30 59 H 3.149817 1.875162 0.978662 0
M  V30 END ATOM
M  V30 BEGIN BOND
M  V30 1 1 1 2
M  V30 2 1 2 3
M  V30 3 1 2 4
M  V30 4 1 4 5
M  V30 5 1 5 6
M  V30 6 1 5 7
M  V30 7 1 7 8
M  V30 8 1 8 9
M  V30 9 2 9 10
M  V30 10 1 10 11
M  V30 11 2 11 12
M  V30 12 1 12 13
M  V30 13 2 13 14
M  V30 14 1 14 15
M  V30 15 1 15 16
M  V30 16 2 16 17
M  V30 17 1 16 18
M  V30 18 2 18 19
M  V30 19 1 19 20
M  V30 20 2 20 21
M  V30 21 1 21 22
M  V30 22 1 21 23
M  V30 23 1 23 24
M  V30 24 2 24 25
M  V30 25 1 25 26
M  V30 26 2 26 27
M  V30 27 1 27 28
M  V30 28 1 27 29
M  V30 29 2 29 30
M  V30 30 1 30 31
M  V30 31 2 23 32
M  V30 32 1 8 33
M  V30 33 1 33 2
M  V30 34 1 14 9
M  V30 35 1 32 18
M  V30 36 1 30 24
M  V30 37 1 1 34
M  V30 38 1 1 35
M  V30 39 1 1 36
M  V30 40 1 3 37
M  V30 41 1 3 38
M  V30 42 1 3 39
M  V30 43 1 4 40
M  V30 44 1 4 41
M  V30 45 1 5 42 CFG=3
M  V30 46 1 6 43
M  V30 47 1 6 44
M  V30 48 1 7 45
M  V30 49 1 7 46
M  V30 50 1 8 47 CFG=3
M  V30 51 1 10 48
M  V30 52 1 11 49
M  V30 53 1 13 50
M  V30 54 1 15 51
M  V30 55 1 19 52
M  V30 56 1 20 53
M  V30 57 1 25 54
M  V30 58 1 26 55
M  V30 59 1 28 56
M  V30 60 1 29 57
M  V30 61 1 33 58
M  V30 62 1 33 59
M  V30 END BOND
M  V30 END CTAB
M  END
>  <Dataset>  (299) 
ChEMBL_Kinases

>  <Ligand_Instance>  (299) 
nan

>  <PDB_ID>  (299) 
nan

>  <Standardized_SMILES>  (299) 
CC1(C)C[C@H](N)C[C@H](c2ccncc2NC(=O)c2ccc(F)c(-c3ccc(O)cc3F)n2)C1

>  <Name>  (299) 
nan

>  <Pocket>  (299) 
nan

>  <ATP_Site>  (299) 
nan

>  <Peripheral>  (299) 
nan

>  <Num_H_Atoms_ProtBoundConf>  (299) 
nan

>  <Num_Resolved_Atoms>  (299) 
nan

>  <Num_Not_Resolved_Atoms>  (299) 
nan

$$$$
CHEMBL3652012
     RDKit          3D

  0  0  0  0  0  0  0  0  0  0999 V3000
M  V30 BEGIN CTAB
M  V30 COUNTS 54 57 0 0 0
M  V30 BEGIN ATOM
M  V30 1 C -0.433265 -3.263161 2.184039 0
M  V30 2 C 0.234119 -2.408360 1.127222 0 CFG=1
M  V30 3 C 1.633931 -2.138601 1.614545 0
M  V30 4 N 2.419003 -1.759371 0.459180 0
M  V30 5 C 2.997389 -0.545407 -0.007229 0
M  V30 6 C 4.386005 -0.661658 -0.160859 0
M  V30 7 C 5.184391 0.373686 -0.608526 0
M  V30 8 N 4.581449 1.532858 -0.903312 0
M  V30 9 C 3.254139 1.704268 -0.775951 0
M  V30 10 C 2.452908 0.677294 -0.330381 0
M  V30 11 N 1.043708 0.735645 -0.154121 0
M  V30 12 C 0.815733 1.217580 1.187269 0
M  V30 13 O 1.866275 1.455415 1.837451 0
M  V30 14 C -0.545509 1.410164 1.736207 0
M  V30 15 C -0.600898 1.876578 3.032447 0
M  V30 16 C -1.889115 2.047193 3.519704 0
M  V30 17 C -3.009219 1.771678 2.765937 0
M  V30 18 F -4.284133 1.915522 3.178743 0
M  V30 19 C -2.886853 1.303944 1.465335 0
M  V30 20 C -3.921230 0.960139 0.521147 0
M  V30 21 C -3.783274 1.416855 -0.793951 0
M  V30 22 C -4.725774 1.133181 -1.758068 0
M  V30 23 C -5.823119 0.378735 -1.392902 0
M  V30 24 N -5.987960 -0.080902 -0.123445 0
M  V30 25 C -5.055380 0.207478 0.803553 0
M  V30 26 N -1.614899 1.140409 0.997892 0
M  V30 27 C 2.673297 -2.897961 -0.401431 0
M  V30 28 C 1.417974 -3.639532 -0.711512 0 CFG=1
M  V30 29 N 1.443563 -5.026871 -0.262483 0
M  V30 30 C 0.172213 -2.996636 -0.232064 0 CFG=2
M  V30 31 O -0.287104 -2.125462 -1.223914 0
M  V30 32 H -1.351959 -3.752072 1.861089 0
M  V30 33 H -0.563637 -2.579004 3.073240 0
M  V30 34 H 0.272927 -4.046857 2.539749 0
M  V30 35 H -0.297349 -1.429545 1.091945 0
M  V30 36 H 2.093579 -3.048561 2.074554 0
M  V30 37 H 1.570180 -1.316878 2.359528 0
M  V30 38 H 4.963167 -1.573886 0.056937 0
M  V30 39 H 6.254873 0.286594 -0.727782 0
M  V30 40 H 2.722046 2.624285 -1.002541 0
M  V30 41 H 0.185255 0.531400 -0.714227 0
M  V30 42 H 0.234975 2.111814 3.677322 0
M  V30 43 H -2.071432 2.409370 4.527695 0
M  V30 44 H -2.940476 2.009978 -1.122378 0
M  V30 45 H -4.604067 1.497375 -2.782441 0
M  V30 46 H -6.545407 0.179497 -2.195455 0
M  V30 47 H -5.144110 -0.132411 1.811250 0
M  V30 48 H 3.306128 -2.693297 -1.266019 0
M  V30 49 H 3.287484 -3.594758 0.243722 0
M  V30 50 H 1.367270 -3.697984 -1.838777 0
M  V30 51 H 0.702432 -5.198300 0.478200 0
M  V30 52 H 1.231915 -5.704895 -1.025613 0
M  V30 53 H -0.611316 -3.810243 -0.187405 0
M  V30 54 H 0.100118 -2.309777 -2.114416 0
M  V30 END ATOM
M  V30 BEGIN BOND
M  V30 1 1 1 2
M  V30 2 1 2 3
M  V30 3 1 3 4
M  V30 4 1 4 5
M  V30 5 2 5 6
M  V30 6 1 6 7
M  V30 7 2 7 8
M  V30 8 1 8 9
M  V30 9 2 9 10
M  V30 10 1 10 11
M  V30 11 1 11 12
M  V30 12 2 12 13
M  V30 13 1 12 14
M  V30 14 2 14 15
M  V30 15 1 15 16
M  V30 16 2 16 17
M  V30 17 1 17 18
M  V30 18 1 17 19
M  V30 19 1 19 20
M  V30 20 2 20 21
M  V30 21 1 21 22
M  V30 22 2 22 23
M  V30 23 1 23 24
M  V30 24 2 24 25
M  V30 25 2 19 26
M  V30 26 1 4 27
M  V30 27 1 27 28
M  V30 28 1 28 29
M  V30 29 1 28 30
M  V30 30 1 30 31
M  V30 31 1 30 2
M  V30 32 1 10 5
M  V30 33 1 26 14
M  V30 34 1 25 20
M  V30 35 1 1 32
M  V30 36 1 1 33
M  V30 37 1 1 34
M  V30 38 1 2 35 CFG=3
M  V30 39 1 3 36
M  V30 40 1 3 37
M  V30 41 1 6 38
M  V30 42 1 7 39
M  V30 43 1 9 40
M  V30 44 1 11 41
M  V30 45 1 15 42
M  V30 46 1 16 43
M  V30 47 1 21 44
M  V30 48 1 22 45
M  V30 49 1 23 46
M  V30 50 1 25 47
M  V30 51 1 27 48
M  V30 52 1 27 49
M  V30 53 1 28 50 CFG=3
M  V30 54 1 29 51
M  V30 55 1 29 52
M  V30 56 1 30 53 CFG=1
M  V30 57 1 31 54
M  V30 END BOND
M  V30 END CTAB
M  END
>  <Dataset>  (300) 
ChEMBL_Kinases

>  <Ligand_Instance>  (300) 
nan

>  <PDB_ID>  (300) 
nan

>  <Standardized_SMILES>  (300) 
C[C@H]1CN(c2ccncc2NC(=O)c2ccc(F)c(-c3cccnc3)n2)C[C@@H](N)[C@@H]1O

>  <Name>  (300) 
nan

>  <Pocket>  (300) 
nan

>  <ATP_Site>  (300) 
nan

>  <Peripheral>  (300) 
nan

>  <Num_H_Atoms_ProtBoundConf>  (300) 
nan

>  <Num_Resolved_Atoms>  (300) 
nan

>  <Num_Not_Resolved_Atoms>  (300) 
nan

$$$$
CHEMBL3652013
     RDKit          3D

  0  0  0  0  0  0  0  0  0  0999 V3000
M  V30 BEGIN CTAB
M  V30 COUNTS 54 57 0 0 0
M  V30 BEGIN ATOM
M  V30 1 C 2.107672 -4.364839 1.842190 0
M  V30 2 C 1.015102 -3.358207 1.918506 0 CFG=1
M  V30 3 C 1.491111 -1.920899 1.742352 0
M  V30 4 N 2.019221 -1.804446 0.399513 0
M  V30 5 C 2.905545 -0.721064 0.031139 0
M  V30 6 C 4.198657 -1.167351 -0.140779 0
M  V30 7 C 5.271928 -0.364446 -0.461501 0
M  V30 8 N 4.990546 0.963653 -0.610943 0
M  V30 9 C 3.723105 1.409050 -0.444280 0
M  V30 10 C 2.650343 0.618565 -0.126267 0
M  V30 11 N 1.313274 1.022413 0.052370 0
M  V30 12 C 0.744264 2.318978 0.037178 0
M  V30 13 O 1.522142 3.308620 -0.165196 0
M  V30 14 C -0.656370 2.632545 0.232782 0
M  V30 15 C -1.132339 3.907645 0.226548 0
M  V30 16 C -2.464405 4.155997 0.421805 0
M  V30 17 C -3.324927 3.092564 0.626108 0
M  V30 18 F -4.633477 3.416940 0.813184 0
M  V30 19 C -2.820170 1.786617 0.629307 0
M  V30 20 C -3.850246 0.784454 0.852075 0
M  V30 21 C -4.681747 0.836723 1.947351 0
M  V30 22 C -5.676073 -0.066432 2.234862 0
M  V30 23 N -5.821126 -1.072117 1.352361 0
M  V30 24 C -5.025101 -1.154279 0.269916 0
M  V30 25 C -4.006402 -0.252685 -0.050238 0
M  V30 26 F -3.244172 -0.386945 -1.146932 0
M  V30 27 N -1.500768 1.617147 0.431238 0
M  V30 28 C 1.707907 -2.746271 -0.655240 0
M  V30 29 C 0.397439 -3.445771 -0.510021 0 CFG=1
M  V30 30 N 0.513736 -4.825451 -0.978310 0
M  V30 31 C -0.086568 -3.535527 0.909857 0 CFG=2
M  V30 32 O -0.992447 -2.481811 1.114622 0
M  V30 33 H 3.070974 -3.865140 1.587339 0
M  V30 34 H 1.882446 -5.225309 1.184115 0
M  V30 35 H 2.276730 -4.763763 2.886115 0
M  V30 36 H 0.516090 -3.358083 2.927992 0
M  V30 37 H 2.257381 -1.659473 2.502395 0
M  V30 38 H 0.584644 -1.308126 1.815435 0
M  V30 39 H 4.521433 -2.213339 -0.042371 0
M  V30 40 H 6.290744 -0.694877 -0.598953 0
M  V30 41 H 3.583557 2.461223 -0.580021 0
M  V30 42 H 0.551069 0.343475 0.212555 0
M  V30 43 H -0.477822 4.742745 0.070194 0
M  V30 44 H -2.809864 5.176633 0.412652 0
M  V30 45 H -4.509027 1.673393 2.615377 0
M  V30 46 H -6.252374 0.090139 3.121667 0
M  V30 47 H -5.195111 -1.998707 -0.410839 0
M  V30 48 H 2.512710 -3.533408 -0.752275 0
M  V30 49 H 1.732351 -2.188995 -1.611697 0
M  V30 50 H -0.345137 -2.945959 -1.164364 0
M  V30 51 H -0.419580 -5.248469 -1.189770 0
M  V30 52 H 1.049501 -4.911088 -1.872799 0
M  V30 53 H -0.630006 -4.469773 1.141165 0
M  V30 54 H -0.955405 -1.829922 0.359229 0
M  V30 END ATOM
M  V30 BEGIN BOND
M  V30 1 1 1 2
M  V30 2 1 2 3
M  V30 3 1 3 4
M  V30 4 1 4 5
M  V30 5 2 5 6
M  V30 6 1 6 7
M  V30 7 2 7 8
M  V30 8 1 8 9
M  V30 9 2 9 10
M  V30 10 1 10 11
M  V30 11 1 11 12
M  V30 12 2 12 13
M  V30 13 1 12 14
M  V30 14 2 14 15
M  V30 15 1 15 16
M  V30 16 2 16 17
M  V30 17 1 17 18
M  V30 18 1 17 19
M  V30 19 1 19 20
M  V30 20 2 20 21
M  V30 21 1 21 22
M  V30 22 2 22 23
M  V30 23 1 23 24
M  V30 24 2 24 25
M  V30 25 1 25 26
M  V30 26 2 19 27
M  V30 27 1 4 28
M  V30 28 1 28 29
M  V30 29 1 29 30
M  V30 30 1 29 31
M  V30 31 1 31 32
M  V30 32 1 31 2
M  V30 33 1 10 5
M  V30 34 1 27 14
M  V30 35 1 25 20
M  V30 36 1 1 33
M  V30 37 1 1 34
M  V30 38 1 1 35
M  V30 39 1 2 36 CFG=1
M  V30 40 1 3 37
M  V30 41 1 3 38
M  V30 42 1 6 39
M  V30 43 1 7 40
M  V30 44 1 9 41
M  V30 45 1 11 42
M  V30 46 1 15 43
M  V30 47 1 16 44
M  V30 48 1 21 45
M  V30 49 1 22 46
M  V30 50 1 24 47
M  V30 51 1 28 48
M  V30 52 1 28 49
M  V30 53 1 29 50 CFG=3
M  V30 54 1 30 51
M  V30 55 1 30 52
M  V30 56 1 31 53 CFG=3
M  V30 57 1 32 54
M  V30 END BOND
M  V30 END CTAB
M  END
>  <Dataset>  (301) 
ChEMBL_Kinases

>  <Ligand_Instance>  (301) 
nan

>  <PDB_ID>  (301) 
nan

>  <Standardized_SMILES>  (301) 
C[C@H]1CN(c2ccncc2NC(=O)c2ccc(F)c(-c3ccncc3F)n2)C[C@@H](N)[C@@H]1O

>  <Name>  (301) 
nan

>  <Pocket>  (301) 
nan

>  <ATP_Site>  (301) 
nan

>  <Peripheral>  (301) 
nan

>  <Num_H_Atoms_ProtBoundConf>  (301) 
nan

>  <Num_Resolved_Atoms>  (301) 
nan

>  <Num_Not_Resolved_Atoms>  (301) 
nan

$$$$
CHEMBL3652014
     RDKit          3D

  0  0  0  0  0  0  0  0  0  0999 V3000
M  V30 BEGIN CTAB
M  V30 COUNTS 54 57 0 0 0
M  V30 BEGIN ATOM
M  V30 1 C -0.497424 -3.093095 2.245719 0
M  V30 2 C 0.195414 -2.354864 1.101996 0 CFG=1
M  V30 3 C 1.617267 -2.077660 1.506392 0
M  V30 4 N 2.379389 -1.835580 0.299551 0
M  V30 5 C 2.984546 -0.680256 -0.263428 0
M  V30 6 C 4.365736 -0.865851 -0.417639 0
M  V30 7 C 5.184774 0.114020 -0.951792 0
M  V30 8 N 4.638732 1.278443 -1.334035 0
M  V30 9 C 3.315738 1.483252 -1.197164 0
M  V30 10 C 2.490405 0.538853 -0.676183 0
M  V30 11 N 1.083719 0.647365 -0.487845 0
M  V30 12 C 0.898776 1.230482 0.818259 0
M  V30 13 O 2.032046 1.453842 1.366923 0
M  V30 14 C -0.421820 1.521321 1.420334 0
M  V30 15 C -0.333031 2.078740 2.680018 0
M  V30 16 C -1.534888 2.385488 3.322624 0
M  V30 17 C -2.740668 2.120340 2.676367 0
M  V30 18 F -3.951875 2.388629 3.231894 0
M  V30 19 C -2.729847 1.560161 1.414489 0
M  V30 20 C -3.937421 1.236167 0.635537 0
M  V30 21 C -5.048479 2.041585 0.467991 0
M  V30 22 C -6.091478 1.563070 -0.303728 0
M  V30 23 N -6.092782 0.359474 -0.903397 0
M  V30 24 C -5.037098 -0.432474 -0.757481 0
M  V30 25 C -3.963178 -0.008459 0.002930 0
M  V30 26 N -1.564208 1.267438 0.802013 0
M  V30 27 C 2.569871 -3.051460 -0.503122 0
M  V30 28 C 1.309774 -3.855163 -0.576366 0 CFG=1
M  V30 29 N 1.394456 -5.126051 0.149021 0
M  V30 30 C 0.084885 -3.074992 -0.187932 0 CFG=2
M  V30 31 O -0.308842 -2.270860 -1.252765 0
M  V30 32 H -1.559919 -3.258653 2.039812 0
M  V30 33 H -0.020337 -4.032096 2.518061 0
M  V30 34 H -0.436077 -2.421005 3.137962 0
M  V30 35 H -0.332613 -1.357550 1.089667 0
M  V30 36 H 2.038992 -2.991475 1.983961 0
M  V30 37 H 1.683531 -1.198523 2.178165 0
M  V30 38 H 4.924956 -1.761666 -0.146747 0
M  V30 39 H 6.247028 0.006778 -1.084779 0
M  V30 40 H 2.830456 2.408807 -1.492460 0
M  V30 41 H 0.198962 0.421694 -1.031670 0
M  V30 42 H 0.595748 2.286033 3.184723 0
M  V30 43 H -1.583841 2.820731 4.301488 0
M  V30 44 H -5.008517 2.984262 0.957589 0
M  V30 45 H -6.961206 2.225977 -0.418722 0
M  V30 46 H -5.013198 -1.419811 -1.236606 0
M  V30 47 H -3.140563 -0.691262 0.083926 0
M  V30 48 H 3.008928 -2.873889 -1.480195 0
M  V30 49 H 3.301966 -3.652265 0.105010 0
M  V30 50 H 1.158692 -4.147082 -1.636920 0
M  V30 51 H 0.443037 -5.342093 0.561324 0
M  V30 52 H 1.592054 -5.937326 -0.486821 0
M  V30 53 H -0.741716 -3.836270 -0.074716 0
M  V30 54 H 0.372110 -2.298671 -1.972532 0
M  V30 END ATOM
M  V30 BEGIN BOND
M  V30 1 1 1 2
M  V30 2 1 2 3
M  V30 3 1 3 4
M  V30 4 1 4 5
M  V30 5 2 5 6
M  V30 6 1 6 7
M  V30 7 2 7 8
M  V30 8 1 8 9
M  V30 9 2 9 10
M  V30 10 1 10 11
M  V30 11 1 11 12
M  V30 12 2 12 13
M  V30 13 1 12 14
M  V30 14 2 14 15
M  V30 15 1 15 16
M  V30 16 2 16 17
M  V30 17 1 17 18
M  V30 18 1 17 19
M  V30 19 1 19 20
M  V30 20 2 20 21
M  V30 21 1 21 22
M  V30 22 2 22 23
M  V30 23 1 23 24
M  V30 24 2 24 25
M  V30 25 2 19 26
M  V30 26 1 4 27
M  V30 27 1 27 28
M  V30 28 1 28 29
M  V30 29 1 28 30
M  V30 30 1 30 31
M  V30 31 1 30 2
M  V30 32 1 10 5
M  V30 33 1 26 14
M  V30 34 1 25 20
M  V30 35 1 1 32
M  V30 36 1 1 33
M  V30 37 1 1 34
M  V30 38 1 2 35 CFG=3
M  V30 39 1 3 36
M  V30 40 1 3 37
M  V30 41 1 6 38
M  V30 42 1 7 39
M  V30 43 1 9 40
M  V30 44 1 11 41
M  V30 45 1 15 42
M  V30 46 1 16 43
M  V30 47 1 21 44
M  V30 48 1 22 45
M  V30 49 1 24 46
M  V30 50 1 25 47
M  V30 51 1 27 48
M  V30 52 1 27 49
M  V30 53 1 28 50 CFG=3
M  V30 54 1 29 51
M  V30 55 1 29 52
M  V30 56 1 30 53 CFG=1
M  V30 57 1 31 54
M  V30 END BOND
M  V30 END CTAB
M  END
>  <Dataset>  (302) 
ChEMBL_Kinases

>  <Ligand_Instance>  (302) 
nan

>  <PDB_ID>  (302) 
nan

>  <Standardized_SMILES>  (302) 
C[C@H]1CN(c2ccncc2NC(=O)c2ccc(F)c(-c3ccncc3)n2)C[C@@H](N)[C@@H]1O

>  <Name>  (302) 
nan

>  <Pocket>  (302) 
nan

>  <ATP_Site>  (302) 
nan

>  <Peripheral>  (302) 
nan

>  <Num_H_Atoms_ProtBoundConf>  (302) 
nan

>  <Num_Resolved_Atoms>  (302) 
nan

>  <Num_Not_Resolved_Atoms>  (302) 
nan

$$$$
CHEMBL3652630
     RDKit          3D

  0  0  0  0  0  0  0  0  0  0999 V3000
M  V30 BEGIN CTAB
M  V30 COUNTS 53 56 0 0 0
M  V30 BEGIN ATOM
M  V30 1 C -0.813275 -4.738788 3.383032 0
M  V30 2 N -0.396423 -3.386552 3.067463 0
M  V30 3 N 0.215937 -2.667144 3.991805 0
M  V30 4 C 0.517137 -1.455219 3.511495 0
M  V30 5 C 0.087097 -1.363636 2.212152 0
M  V30 6 N 0.214908 -0.262216 1.350787 0
M  V30 7 C -0.136113 0.095301 0.057089 0
M  V30 8 O -0.754856 -0.785253 -0.578958 0
M  V30 9 C 0.142688 1.359201 -0.600294 0
M  V30 10 N 0.825498 2.344878 0.007422 0
M  V30 11 C 1.098598 3.516943 -0.587035 0
M  V30 12 C 1.843117 4.490553 0.176834 0
M  V30 13 C 2.229177 4.176865 1.452199 0
M  V30 14 C 2.942105 5.006976 2.287173 0
M  V30 15 C 3.317427 6.259121 1.847429 0
M  V30 16 C 2.950253 6.613321 0.574645 0
M  V30 17 C 2.238038 5.744663 -0.217197 0
M  V30 18 F 1.922012 6.173752 -1.447773 0
M  V30 19 C 0.624354 3.629528 -1.866580 0
M  V30 20 N -0.062197 2.678162 -2.519953 0
M  V30 21 C -0.323465 1.496062 -1.885977 0
M  V30 22 N -1.054831 0.544519 -2.641472 0
M  V30 23 C -0.476071 -2.588342 1.975020 0
M  V30 24 N -1.102446 -3.197499 0.870077 0
M  V30 25 C -2.541067 -3.134631 0.741340 0
M  V30 26 C -3.034824 -4.053075 -0.354450 0
M  V30 27 C -2.412917 -5.433844 -0.237806 0
M  V30 28 C -0.924942 -5.350111 -0.338365 0 CFG=2
M  V30 29 N -0.224607 -6.296451 0.505477 0
M  V30 30 C -0.408510 -3.936549 -0.188690 0
M  V30 31 H -1.233555 -4.760949 4.430920 0
M  V30 32 H -1.560414 -5.121264 2.657371 0
M  V30 33 H 0.056127 -5.417774 3.363942 0
M  V30 34 H 1.027002 -0.713998 4.125148 0
M  V30 35 H 0.731021 0.560389 1.791378 0
M  V30 36 H 1.986081 3.208267 1.908605 0
M  V30 37 H 3.226539 4.720467 3.285691 0
M  V30 38 H 3.875565 6.961476 2.445801 0
M  V30 39 H 3.235742 7.595167 0.209478 0
M  V30 40 H 0.807972 4.542540 -2.402518 0
M  V30 41 H -1.927020 0.039650 -2.420859 0
M  V30 42 H -1.936218 0.039266 -2.409711 0
M  V30 43 H -3.021499 -3.366985 1.719210 0
M  V30 44 H -2.854127 -2.109825 0.494120 0
M  V30 45 H -4.124531 -4.135261 -0.276605 0
M  V30 46 H -2.689445 -3.629059 -1.319098 0
M  V30 47 H -2.770704 -5.931922 0.684624 0
M  V30 48 H -2.858031 -6.020775 -1.071661 0
M  V30 49 H -0.662011 -5.661302 -1.393519 0
M  V30 50 H -0.874316 -7.049169 0.842136 0
M  V30 51 H 0.530147 -6.832121 -0.013181 0
M  V30 52 H -0.556992 -3.431454 -1.155781 0
M  V30 53 H 0.676930 -3.979883 0.025221 0
M  V30 END ATOM
M  V30 BEGIN BOND
M  V30 1 1 1 2
M  V30 2 1 2 3
M  V30 3 2 3 4
M  V30 4 1 4 5
M  V30 5 1 5 6
M  V30 6 1 6 7
M  V30 7 2 7 8
M  V30 8 1 7 9
M  V30 9 2 9 10
M  V30 10 1 10 11
M  V30 11 1 11 12
M  V30 12 2 12 13
M  V30 13 1 13 14
M  V30 14 2 14 15
M  V30 15 1 15 16
M  V30 16 2 16 17
M  V30 17 1 17 18
M  V30 18 2 11 19
M  V30 19 1 19 20
M  V30 20 2 20 21
M  V30 21 1 21 22
M  V30 22 2 5 23
M  V30 23 1 23 24
M  V30 24 1 24 25
M  V30 25 1 25 26
M  V30 26 1 26 27
M  V30 27 1 27 28
M  V30 28 1 28 29
M  V30 29 1 28 30
M  V30 30 1 23 2
M  V30 31 1 30 24
M  V30 32 1 21 9
M  V30 33 1 17 12
M  V30 34 1 1 31
M  V30 35 1 1 32
M  V30 36 1 1 33
M  V30 37 1 4 34
M  V30 38 1 6 35
M  V30 39 1 13 36
M  V30 40 1 14 37
M  V30 41 1 15 38
M  V30 42 1 16 39
M  V30 43 1 19 40
M  V30 44 1 22 41
M  V30 45 1 22 42
M  V30 46 1 25 43
M  V30 47 1 25 44
M  V30 48 1 26 45
M  V30 49 1 26 46
M  V30 50 1 27 47
M  V30 51 1 27 48
M  V30 52 1 28 49 CFG=3
M  V30 53 1 29 50
M  V30 54 1 29 51
M  V30 55 1 30 52
M  V30 56 1 30 53
M  V30 END BOND
M  V30 END CTAB
M  END
>  <Dataset>  (303) 
ChEMBL_Kinases

>  <Ligand_Instance>  (303) 
nan

>  <PDB_ID>  (303) 
nan

>  <Standardized_SMILES>  (303) 
Cn1ncc(NC(=O)c2nc(-c3ccccc3F)cnc2N)c1N1CCC[C@H](N)C1

>  <Name>  (303) 
nan

>  <Pocket>  (303) 
nan

>  <ATP_Site>  (303) 
nan

>  <Peripheral>  (303) 
nan

>  <Num_H_Atoms_ProtBoundConf>  (303) 
nan

>  <Num_Resolved_Atoms>  (303) 
nan

>  <Num_Not_Resolved_Atoms>  (303) 
nan

$$$$
CHEMBL3652015
     RDKit          3D

  0  0  0  0  0  0  0  0  0  0999 V3000
M  V30 BEGIN CTAB
M  V30 COUNTS 57 60 0 0 0
M  V30 BEGIN ATOM
M  V30 1 C 4.063354 -2.982436 -1.652850 0
M  V30 2 C 2.857573 -2.862438 -0.763017 0 CFG=1
M  V30 3 C 2.562500 -1.490666 -0.291423 0
M  V30 4 C 1.611908 -0.699531 -1.102824 0 CFG=1
M  V30 5 C 1.760823 0.752605 -1.133612 0
M  V30 6 C 2.530589 1.455450 -2.013853 0
M  V30 7 C 2.677703 2.824259 -2.048959 0
M  V30 8 N 2.016527 3.578894 -1.146359 0
M  V30 9 C 1.221218 2.971335 -0.224056 0
M  V30 10 C 1.092955 1.581402 -0.214660 0
M  V30 11 N 0.246088 0.996594 0.773820 0
M  V30 12 C 0.492437 0.533228 2.094169 0
M  V30 13 O 1.602505 0.560673 2.674580 0
M  V30 14 C -0.657243 -0.012516 2.806142 0
M  V30 15 N -1.881345 -0.098522 2.307086 0
M  V30 16 C -2.943741 -0.597838 2.952043 0
M  V30 17 C -4.182829 -0.581057 2.183201 0
M  V30 18 C -5.040151 0.516440 2.236444 0
M  V30 19 F -4.726111 1.600742 3.018121 0
M  V30 20 C -6.222007 0.532078 1.502708 0
M  V30 21 C -6.582243 -0.537430 0.699971 0
M  V30 22 C -5.730202 -1.629075 0.646570 0
M  V30 23 C -4.550968 -1.658819 1.371055 0
M  V30 24 F -3.725731 -2.738975 1.306976 0
M  V30 25 C -2.758378 -1.059858 4.233568 0
M  V30 26 F -3.867037 -1.554847 4.840344 0
M  V30 27 C -1.504477 -0.995881 4.806046 0
M  V30 28 C -0.426712 -0.464732 4.089276 0
M  V30 29 N 0.836994 -0.439868 4.766788 0
M  V30 30 C 1.440426 -1.194302 -2.519334 0
M  V30 31 C 1.335047 -2.667254 -2.652925 0 CFG=1
M  V30 32 O 2.019094 -3.151152 -3.793724 0
M  V30 33 C 1.654967 -3.466395 -1.436376 0 CFG=2
M  V30 34 O 0.561507 -3.508726 -0.601390 0
M  V30 35 H 4.158584 -2.233759 -2.432847 0
M  V30 36 H 4.004685 -3.970753 -2.157383 0
M  V30 37 H 4.968671 -2.965022 -1.007619 0
M  V30 38 H 3.090580 -3.503669 0.113227 0
M  V30 39 H 2.176390 -1.579952 0.747609 0
M  V30 40 H 3.502890 -0.911564 -0.157250 0
M  V30 41 H 0.582428 -0.871737 -0.655581 0
M  V30 42 H 3.088942 0.937449 -2.761824 0
M  V30 43 H 3.297644 3.330130 -2.764397 0
M  V30 44 H 0.671580 3.539341 0.519919 0
M  V30 45 H -0.703181 0.953997 0.326116 0
M  V30 46 H -6.845194 1.408811 1.583968 0
M  V30 47 H -7.507437 -0.524135 0.126123 0
M  V30 48 H -6.026718 -2.455385 0.014935 0
M  V30 49 H -1.435495 -1.376843 5.813558 0
M  V30 50 H 1.649768 -1.100270 4.584616 0
M  V30 51 H 0.773986 0.353657 5.459068 0
M  V30 52 H 2.310673 -0.893288 -3.161164 0
M  V30 53 H 0.573083 -0.709199 -3.012586 0
M  V30 54 H 0.261855 -2.921192 -2.896192 0
M  V30 55 H 2.093351 -2.463548 -4.485914 0
M  V30 56 H 1.888357 -4.501796 -1.757061 0
M  V30 57 H -0.298466 -3.566408 -1.061776 0
M  V30 END ATOM
M  V30 BEGIN BOND
M  V30 1 1 1 2
M  V30 2 1 2 3
M  V30 3 1 3 4
M  V30 4 1 4 5
M  V30 5 2 5 6
M  V30 6 1 6 7
M  V30 7 2 7 8
M  V30 8 1 8 9
M  V30 9 2 9 10
M  V30 10 1 10 11
M  V30 11 1 11 12
M  V30 12 2 12 13
M  V30 13 1 12 14
M  V30 14 2 14 15
M  V30 15 1 15 16
M  V30 16 1 16 17
M  V30 17 2 17 18
M  V30 18 1 18 19
M  V30 19 1 18 20
M  V30 20 2 20 21
M  V30 21 1 21 22
M  V30 22 2 22 23
M  V30 23 1 23 24
M  V30 24 2 16 25
M  V30 25 1 25 26
M  V30 26 1 25 27
M  V30 27 2 27 28
M  V30 28 1 28 29
M  V30 29 1 4 30
M  V30 30 1 30 31
M  V30 31 1 31 32
M  V30 32 1 31 33
M  V30 33 1 33 34
M  V30 34 1 33 2
M  V30 35 1 10 5
M  V30 36 1 28 14
M  V30 37 1 23 17
M  V30 38 1 1 35
M  V30 39 1 1 36
M  V30 40 1 1 37
M  V30 41 1 2 38 CFG=1
M  V30 42 1 3 39
M  V30 43 1 3 40
M  V30 44 1 4 41 CFG=1
M  V30 45 1 6 42
M  V30 46 1 7 43
M  V30 47 1 9 44
M  V30 48 1 11 45
M  V30 49 1 20 46
M  V30 50 1 21 47
M  V30 51 1 22 48
M  V30 52 1 27 49
M  V30 53 1 29 50
M  V30 54 1 29 51
M  V30 55 1 30 52
M  V30 56 1 30 53
M  V30 57 1 31 54 CFG=3
M  V30 58 1 32 55
M  V30 59 1 33 56 CFG=3
M  V30 60 1 34 57
M  V30 END BOND
M  V30 END CTAB
M  END
>  <Dataset>  (304) 
ChEMBL_Kinases

>  <Ligand_Instance>  (304) 
nan

>  <PDB_ID>  (304) 
nan

>  <Standardized_SMILES>  (304) 
C[C@H]1C[C@@H](c2ccncc2NC(=O)c2nc(-c3c(F)cccc3F)c(F)cc2N)C[C@@H](O)[C@@H]1O

>  <Name>  (304) 
nan

>  <Pocket>  (304) 
nan

>  <ATP_Site>  (304) 
nan

>  <Peripheral>  (304) 
nan

>  <Num_H_Atoms_ProtBoundConf>  (304) 
nan

>  <Num_Resolved_Atoms>  (304) 
nan

>  <Num_Not_Resolved_Atoms>  (304) 
nan

$$$$
CHEMBL3652016
     RDKit          3D

  0  0  0  0  0  0  0  0  0  0999 V3000
M  V30 BEGIN CTAB
M  V30 COUNTS 59 62 0 0 0
M  V30 BEGIN ATOM
M  V30 1 C 3.619509 -0.169413 4.274206 0
M  V30 2 C 2.787207 -0.847137 3.172943 0
M  V30 3 C 2.388395 -2.198505 3.783602 0
M  V30 4 C 3.703512 -1.146181 2.048959 0
M  V30 5 C 2.985401 -1.530747 0.808153 0 CFG=2
M  V30 6 N 3.687844 -0.994509 -0.370228 0
M  V30 7 C 1.561429 -1.137391 0.718516 0
M  V30 8 C 1.128407 0.066985 1.473395 0 CFG=2
M  V30 9 C 1.455859 1.365620 0.831148 0
M  V30 10 C 2.576855 2.035269 1.299811 0
M  V30 11 C 3.003440 3.275323 0.803025 0
M  V30 12 N 2.271911 3.833341 -0.184749 0
M  V30 13 C 1.194895 3.167019 -0.619197 0
M  V30 14 C 0.722517 1.953154 -0.178526 0
M  V30 15 N -0.417615 1.271589 -0.663242 0
M  V30 16 C -1.343288 1.650043 -1.670611 0
M  V30 17 O -1.176187 2.748358 -2.257049 0
M  V30 18 C -2.482689 0.825420 -2.061167 0
M  V30 19 C -3.342920 1.247835 -3.047780 0
M  V30 20 C -4.433320 0.455456 -3.420198 0
M  V30 21 C -4.588874 -0.754551 -2.747586 0
M  V30 22 F -5.617166 -1.563883 -3.058171 0
M  V30 23 C -3.716897 -1.163111 -1.760390 0
M  V30 24 C -3.837733 -2.418076 -1.027806 0
M  V30 25 C -4.534042 -2.644628 0.142773 0
M  V30 26 F -5.168433 -1.562774 0.646358 0
M  V30 27 C -4.525678 -3.916982 0.685671 0
M  V30 28 C -3.834402 -4.942515 0.069826 0
M  V30 29 O -3.872121 -6.205700 0.679660 0
M  V30 30 C -3.129536 -4.743882 -1.101739 0
M  V30 31 C -3.137206 -3.457602 -1.651754 0
M  V30 32 F -2.426284 -3.324169 -2.803624 0
M  V30 33 N -2.691064 -0.357694 -1.449834 0
M  V30 34 C 1.600957 -0.008254 2.895319 0
M  V30 35 H 2.971011 0.536220 4.844946 0
M  V30 36 H 4.432780 0.446926 3.827445 0
M  V30 37 H 4.102574 -0.905419 4.942048 0
M  V30 38 H 2.264063 -2.076658 4.870589 0
M  V30 39 H 3.195339 -2.953958 3.612760 0
M  V30 40 H 1.469304 -2.608458 3.346404 0
M  V30 41 H 4.339666 -2.020884 2.370575 0
M  V30 42 H 4.447291 -0.356877 1.818928 0
M  V30 43 H 3.047625 -2.648650 0.645845 0
M  V30 44 H 4.457867 -1.657867 -0.674373 0
M  V30 45 H 2.967878 -1.066765 -1.150703 0
M  V30 46 H 0.931782 -2.000148 1.090757 0
M  V30 47 H 1.301135 -1.085150 -0.359562 0
M  V30 48 H 0.013027 0.004740 1.553382 0
M  V30 49 H 3.226706 1.687548 2.078663 0
M  V30 50 H 3.879008 3.795169 1.171183 0
M  V30 51 H 0.678356 3.688280 -1.403829 0
M  V30 52 H -0.678064 0.342791 -0.271659 0
M  V30 53 H -3.142132 2.191473 -3.506224 0
M  V30 54 H -5.107815 0.766686 -4.180694 0
M  V30 55 H -5.096291 -4.042363 1.617777 0
M  V30 56 H -3.347297 -6.968666 0.247322 0
M  V30 57 H -2.587446 -5.553088 -1.582357 0
M  V30 58 H 0.788695 -0.397512 3.585104 0
M  V30 59 H 1.701125 1.059981 3.255509 0
M  V30 END ATOM
M  V30 BEGIN BOND
M  V30 1 1 1 2
M  V30 2 1 2 3
M  V30 3 1 2 4
M  V30 4 1 4 5
M  V30 5 1 5 6
M  V30 6 1 5 7
M  V30 7 1 7 8
M  V30 8 1 8 9
M  V30 9 2 9 10
M  V30 10 1 10 11
M  V30 11 2 11 12
M  V30 12 1 12 13
M  V30 13 2 13 14
M  V30 14 1 14 15
M  V30 15 1 15 16
M  V30 16 2 16 17
M  V30 17 1 16 18
M  V30 18 2 18 19
M  V30 19 1 19 20
M  V30 20 2 20 21
M  V30 21 1 21 22
M  V30 22 1 21 23
M  V30 23 1 23 24
M  V30 24 2 24 25
M  V30 25 1 25 26
M  V30 26 1 25 27
M  V30 27 2 27 28
M  V30 28 1 28 29
M  V30 29 1 28 30
M  V30 30 2 30 31
M  V30 31 1 31 32
M  V30 32 2 23 33
M  V30 33 1 8 34
M  V30 34 1 34 2
M  V30 35 1 14 9
M  V30 36 1 33 18
M  V30 37 1 31 24
M  V30 38 1 1 35
M  V30 39 1 1 36
M  V30 40 1 1 37
M  V30 41 1 3 38
M  V30 42 1 3 39
M  V30 43 1 3 40
M  V30 44 1 4 41
M  V30 45 1 4 42
M  V30 46 1 5 43 CFG=3
M  V30 47 1 6 44
M  V30 48 1 6 45
M  V30 49 1 7 46
M  V30 50 1 7 47
M  V30 51 1 8 48 CFG=1
M  V30 52 1 10 49
M  V30 53 1 11 50
M  V30 54 1 13 51
M  V30 55 1 15 52
M  V30 56 1 19 53
M  V30 57 1 20 54
M  V30 58 1 27 55
M  V30 59 1 29 56
M  V30 60 1 30 57
M  V30 61 1 34 58
M  V30 62 1 34 59
M  V30 END BOND
M  V30 END CTAB
M  END
>  <Dataset>  (305) 
ChEMBL_Kinases

>  <Ligand_Instance>  (305) 
nan

>  <PDB_ID>  (305) 
nan

>  <Standardized_SMILES>  (305) 
CC1(C)C[C@H](N)C[C@H](c2ccncc2NC(=O)c2ccc(F)c(-c3c(F)cc(O)cc3F)n2)C1

>  <Name>  (305) 
nan

>  <Pocket>  (305) 
nan

>  <ATP_Site>  (305) 
nan

>  <Peripheral>  (305) 
nan

>  <Num_H_Atoms_ProtBoundConf>  (305) 
nan

>  <Num_Resolved_Atoms>  (305) 
nan

>  <Num_Not_Resolved_Atoms>  (305) 
nan

$$$$
CHEMBL3652017
     RDKit          3D

  0  0  0  0  0  0  0  0  0  0999 V3000
M  V30 BEGIN CTAB
M  V30 COUNTS 62 65 0 0 0
M  V30 BEGIN ATOM
M  V30 1 C 0.863579 2.643799 7.392880 0
M  V30 2 O -0.116496 1.994511 6.588853 0
M  V30 3 C -0.203319 2.214690 5.203525 0
M  V30 4 C 0.626727 3.058428 4.494722 0
M  V30 5 C 0.418949 3.173277 3.128773 0
M  V30 6 F 1.231285 4.003089 2.415274 0
M  V30 7 C -0.589367 2.465894 2.486857 0
M  V30 8 C -0.808911 2.585928 1.048644 0
M  V30 9 N -0.093420 1.681805 0.353818 0
M  V30 10 C -0.141823 1.608713 -1.003970 0
M  V30 11 C 0.607489 0.653306 -1.813386 0
M  V30 12 O 0.567546 0.580226 -3.060442 0
M  V30 13 N 1.441278 -0.250057 -1.051376 0
M  V30 14 C 2.332559 -1.320293 -1.304554 0
M  V30 15 C 3.639798 -0.975628 -1.578108 0
M  V30 16 N 4.585417 -1.898510 -1.823892 0
M  V30 17 C 4.230653 -3.195343 -1.798819 0
M  V30 18 C 2.920453 -3.518866 -1.523566 0
M  V30 19 C 1.880205 -2.614360 -1.257505 0
M  V30 20 C 0.550881 -3.126642 -0.975070 0 CFG=1
M  V30 21 C 0.257316 -3.337359 0.492870 0
M  V30 22 C -1.095641 -3.987907 0.607719 0 CFG=1
M  V30 23 N -2.017220 -3.160702 1.380035 0
M  V30 24 C -1.694626 -4.430908 -0.690957 0
M  V30 25 C -1.772788 -3.324092 -1.716509 0
M  V30 26 C -3.077605 -2.569501 -1.649159 0
M  V30 27 C -1.665469 -3.969001 -3.082410 0
M  V30 28 C -0.582884 -2.378328 -1.588400 0
M  V30 29 C -0.938702 2.473219 -1.721334 0
M  V30 30 C -1.676031 3.403984 -1.015427 0
M  V30 31 C -1.617709 3.467204 0.361006 0
M  V30 32 F -2.288264 4.329039 1.163531 0
M  V30 33 C -1.409752 1.624739 3.221908 0
M  V30 34 F -2.411523 0.918661 2.599627 0
M  V30 35 C -1.224397 1.490119 4.592562 0
M  V30 36 H 0.970088 3.720620 7.087658 0
M  V30 37 H 0.528527 2.642343 8.437252 0
M  V30 38 H 1.874808 2.201616 7.258781 0
M  V30 39 H 1.394379 3.585385 5.038218 0
M  V30 40 H 1.482009 -0.192725 0.011544 0
M  V30 41 H 3.948724 0.058836 -1.603813 0
M  V30 42 H 4.954615 -3.954620 -1.989256 0
M  V30 43 H 2.691922 -4.596465 -1.517291 0
M  V30 44 H 0.479274 -4.174498 -1.416522 0
M  V30 45 H 0.176641 -2.327515 0.971035 0
M  V30 46 H 0.996793 -3.976175 0.981607 0
M  V30 47 H -0.996236 -4.928408 1.226650 0
M  V30 48 H -1.624517 -2.176703 1.300994 0
M  V30 49 H -1.962932 -3.379411 2.391094 0
M  V30 50 H -2.741926 -4.726301 -0.473709 0
M  V30 51 H -1.188142 -5.307942 -1.111933 0
M  V30 52 H -3.793810 -2.885200 -2.439047 0
M  V30 53 H -2.857285 -1.500725 -1.866565 0
M  V30 54 H -3.609020 -2.695267 -0.682977 0
M  V30 55 H -2.650549 -4.419715 -3.349135 0
M  V30 56 H -1.356802 -3.193829 -3.805197 0
M  V30 57 H -0.856223 -4.720715 -3.015510 0
M  V30 58 H -0.278715 -1.976197 -2.559399 0
M  V30 59 H -0.899829 -1.584984 -0.906813 0
M  V30 60 H -0.998397 2.439507 -2.805702 0
M  V30 61 H -2.320932 4.114422 -1.483127 0
M  V30 62 H -1.891837 0.819292 5.127154 0
M  V30 END ATOM
M  V30 BEGIN BOND
M  V30 1 1 1 2
M  V30 2 1 2 3
M  V30 3 2 3 4
M  V30 4 1 4 5
M  V30 5 1 5 6
M  V30 6 2 5 7
M  V30 7 1 7 8
M  V30 8 2 8 9
M  V30 9 1 9 10
M  V30 10 1 10 11
M  V30 11 2 11 12
M  V30 12 1 11 13
M  V30 13 1 13 14
M  V30 14 2 14 15
M  V30 15 1 15 16
M  V30 16 2 16 17
M  V30 17 1 17 18
M  V30 18 2 18 19
M  V30 19 1 19 20
M  V30 20 1 20 21
M  V30 21 1 21 22
M  V30 22 1 22 23
M  V30 23 1 22 24
M  V30 24 1 24 25
M  V30 25 1 25 26
M  V30 26 1 25 27
M  V30 27 1 25 28
M  V30 28 2 10 29
M  V30 29 1 29 30
M  V30 30 2 30 31
M  V30 31 1 31 32
M  V30 32 1 7 33
M  V30 33 1 33 34
M  V30 34 2 33 35
M  V30 35 1 35 3
M  V30 36 1 31 8
M  V30 37 1 19 14
M  V30 38 1 28 20
M  V30 39 1 1 36
M  V30 40 1 1 37
M  V30 41 1 1 38
M  V30 42 1 4 39
M  V30 43 1 13 40
M  V30 44 1 15 41
M  V30 45 1 17 42
M  V30 46 1 18 43
M  V30 47 1 20 44 CFG=3
M  V30 48 1 21 45
M  V30 49 1 21 46
M  V30 50 1 22 47 CFG=1
M  V30 51 1 23 48
M  V30 52 1 23 49
M  V30 53 1 24 50
M  V30 54 1 24 51
M  V30 55 1 26 52
M  V30 56 1 26 53
M  V30 57 1 26 54
M  V30 58 1 27 55
M  V30 59 1 27 56
M  V30 60 1 27 57
M  V30 61 1 28 58
M  V30 62 1 28 59
M  V30 63 1 29 60
M  V30 64 1 30 61
M  V30 65 1 35 62
M  V30 END BOND
M  V30 END CTAB
M  END
>  <Dataset>  (306) 
ChEMBL_Kinases

>  <Ligand_Instance>  (306) 
nan

>  <PDB_ID>  (306) 
nan

>  <Standardized_SMILES>  (306) 
COc1cc(F)c(-c2nc(C(=O)Nc3cnccc3[C@H]3C[C@@H](N)CC(C)(C)C3)ccc2F)c(F)c1

>  <Name>  (306) 
nan

>  <Pocket>  (306) 
nan

>  <ATP_Site>  (306) 
nan

>  <Peripheral>  (306) 
nan

>  <Num_H_Atoms_ProtBoundConf>  (306) 
nan

>  <Num_Resolved_Atoms>  (306) 
nan

>  <Num_Not_Resolved_Atoms>  (306) 
nan

$$$$
CHEMBL3652018
     RDKit          3D

  0  0  0  0  0  0  0  0  0  0999 V3000
M  V30 BEGIN CTAB
M  V30 COUNTS 53 56 0 0 0
M  V30 BEGIN ATOM
M  V30 1 N -1.304130 0.328235 3.895043 0
M  V30 2 C -0.056800 1.010622 3.636442 0 CFG=1
M  V30 3 C 1.106001 0.272921 4.206792 0
M  V30 4 C 2.082525 -0.019889 3.117424 0
M  V30 5 C 2.458213 1.178825 2.299621 0
M  V30 6 C 1.220556 1.972805 1.852459 0 CFG=1
M  V30 7 C 1.509877 2.495323 0.542059 0
M  V30 8 C 2.103432 3.762879 0.421083 0
M  V30 9 C 2.416308 4.320559 -0.800237 0
M  V30 10 N 2.172467 3.684521 -1.959463 0
M  V30 11 C 1.600521 2.456816 -1.913206 0
M  V30 12 C 1.291399 1.908239 -0.685822 0
M  V30 13 N 0.707846 0.634166 -0.743632 0
M  V30 14 C -0.727549 0.692297 -0.888163 0
M  V30 15 O -1.131747 1.886388 -0.929713 0
M  V30 16 C -1.580436 -0.486348 -0.973206 0
M  V30 17 C -2.926127 -0.224228 -1.110295 0
M  V30 18 C -3.850730 -1.244265 -1.203197 0
M  V30 19 C -3.392326 -2.553481 -1.155204 0
M  V30 20 F -4.265290 -3.588212 -1.242759 0
M  V30 21 C -2.046567 -2.789902 -1.018086 0
M  V30 22 C -1.488226 -4.135305 -0.959208 0
M  V30 23 C -1.140656 -4.651037 -2.209457 0
M  V30 24 F -1.299667 -3.980547 -3.372406 0
M  V30 25 C -0.597623 -5.933672 -2.258645 0
M  V30 26 C -0.384393 -6.725162 -1.129017 0
M  V30 27 C -0.752469 -6.146926 0.067044 0
M  V30 28 O -0.571188 -6.876294 1.251653 0
M  V30 29 C -1.294302 -4.883678 0.182567 0
M  V30 30 F -1.652593 -4.321591 1.348764 0
M  V30 31 N -1.160226 -1.785098 -0.929070 0
M  V30 32 C 0.054710 1.116754 2.097929 0
M  V30 33 H -1.169178 -0.626955 4.305708 0
M  V30 34 H -1.980130 0.900024 4.428796 0
M  V30 35 H -0.028225 2.044867 3.988531 0
M  V30 36 H 0.734218 -0.705668 4.593456 0
M  V30 37 H 1.567983 0.789846 5.079298 0
M  V30 38 H 1.801209 -0.899536 2.516771 0
M  V30 39 H 3.037179 -0.323839 3.639639 0
M  V30 40 H 3.015946 0.778184 1.410587 0
M  V30 41 H 3.143190 1.816750 2.880584 0
M  V30 42 H 1.142078 2.846799 2.570554 0
M  V30 43 H 2.333274 4.344678 1.323216 0
M  V30 44 H 2.872685 5.295489 -0.887535 0
M  V30 45 H 1.408506 1.953590 -2.847890 0
M  V30 46 H 1.158700 -0.327633 -0.697476 0
M  V30 47 H -3.335300 0.781031 -1.153059 0
M  V30 48 H -4.906264 -1.042304 -1.310855 0
M  V30 49 H -0.302175 -6.402431 -3.200534 0
M  V30 50 H 0.039637 -7.713934 -1.218156 0
M  V30 51 H -1.277438 -7.512455 1.589865 0
M  V30 52 H -0.934737 1.553778 1.847141 0
M  V30 53 H 0.164098 0.060026 1.770869 0
M  V30 END ATOM
M  V30 BEGIN BOND
M  V30 1 1 1 2
M  V30 2 1 2 3
M  V30 3 1 3 4
M  V30 4 1 4 5
M  V30 5 1 5 6
M  V30 6 1 6 7
M  V30 7 2 7 8
M  V30 8 1 8 9
M  V30 9 2 9 10
M  V30 10 1 10 11
M  V30 11 2 11 12
M  V30 12 1 12 13
M  V30 13 1 13 14
M  V30 14 2 14 15
M  V30 15 1 14 16
M  V30 16 2 16 17
M  V30 17 1 17 18
M  V30 18 2 18 19
M  V30 19 1 19 20
M  V30 20 1 19 21
M  V30 21 1 21 22
M  V30 22 2 22 23
M  V30 23 1 23 24
M  V30 24 1 23 25
M  V30 25 2 25 26
M  V30 26 1 26 27
M  V30 27 1 27 28
M  V30 28 2 27 29
M  V30 29 1 29 30
M  V30 30 2 21 31
M  V30 31 1 6 32
M  V30 32 1 32 2
M  V30 33 1 12 7
M  V30 34 1 31 16
M  V30 35 1 29 22
M  V30 36 1 1 33
M  V30 37 1 1 34
M  V30 38 1 2 35 CFG=1
M  V30 39 1 3 36
M  V30 40 1 3 37
M  V30 41 1 4 38
M  V30 42 1 4 39
M  V30 43 1 5 40
M  V30 44 1 5 41
M  V30 45 1 6 42 CFG=1
M  V30 46 1 8 43
M  V30 47 1 9 44
M  V30 48 1 11 45
M  V30 49 1 13 46
M  V30 50 1 17 47
M  V30 51 1 18 48
M  V30 52 1 25 49
M  V30 53 1 26 50
M  V30 54 1 28 51
M  V30 55 1 32 52
M  V30 56 1 32 53
M  V30 END BOND
M  V30 END CTAB
M  END
>  <Dataset>  (307) 
ChEMBL_Kinases

>  <Ligand_Instance>  (307) 
nan

>  <PDB_ID>  (307) 
nan

>  <Standardized_SMILES>  (307) 
N[C@H]1CCC[C@@H](c2ccncc2NC(=O)c2ccc(F)c(-c3c(F)ccc(O)c3F)n2)C1

>  <Name>  (307) 
nan

>  <Pocket>  (307) 
nan

>  <ATP_Site>  (307) 
nan

>  <Peripheral>  (307) 
nan

>  <Num_H_Atoms_ProtBoundConf>  (307) 
nan

>  <Num_Resolved_Atoms>  (307) 
nan

>  <Num_Not_Resolved_Atoms>  (307) 
nan

$$$$
CHEMBL3652019
     RDKit          3D

  0  0  0  0  0  0  0  0  0  0999 V3000
M  V30 BEGIN CTAB
M  V30 COUNTS 56 59 0 0 0
M  V30 BEGIN ATOM
M  V30 1 C 3.171894 1.664532 4.003062 0
M  V30 2 C 2.136216 0.836719 3.270088 0 CFG=2
M  V30 3 C 1.841204 -0.364901 4.097194 0
M  V30 4 C 1.902128 -1.621424 3.245350 0 CFG=2
M  V30 5 N 3.283468 -1.965341 3.078746 0
M  V30 6 C 1.162016 -1.349120 1.952916 0
M  V30 7 C 1.813816 -0.379058 1.095964 0 CFG=2
M  V30 8 C 2.573087 -0.815182 -0.071955 0
M  V30 9 C 3.905869 -1.170685 -0.204023 0
M  V30 10 C 4.465685 -1.562200 -1.381325 0
M  V30 11 N 3.783625 -1.639049 -2.511636 0
M  V30 12 C 2.490380 -1.319353 -2.499718 0
M  V30 13 C 1.913248 -0.920787 -1.309781 0
M  V30 14 N 0.508733 -0.582418 -1.336589 0
M  V30 15 C -0.013550 0.723927 -1.593661 0
M  V30 16 O 0.752649 1.670432 -1.816561 0
M  V30 17 C -1.472692 0.812876 -1.565569 0
M  V30 18 C -2.060814 2.040697 -1.805642 0
M  V30 19 C -3.435850 2.189514 -1.792399 0
M  V30 20 C -4.250699 1.104522 -1.536926 0
M  V30 21 F -5.602894 1.070382 -1.486116 0
M  V30 22 C -3.629483 -0.125329 -1.297495 0
M  V30 23 C -4.275369 -1.402130 -1.006582 0
M  V30 24 C -4.558760 -1.798260 0.298875 0
M  V30 25 F -4.215177 -0.960558 1.291027 0
M  V30 26 C -5.173494 -3.024299 0.487730 0
M  V30 27 C -5.507432 -3.850867 -0.567354 0
M  V30 28 C -5.196845 -3.394271 -1.836445 0
M  V30 29 O -5.538116 -4.236624 -2.898986 0
M  V30 30 C -4.595049 -2.205607 -2.104320 0
M  V30 31 F -4.314477 -1.810927 -3.376705 0
M  V30 32 N -2.307940 -0.216567 -1.321173 0
M  V30 33 C 2.717985 0.512120 1.919224 0
M  V30 34 H 3.933155 0.960625 4.397725 0
M  V30 35 H 3.709139 2.332134 3.301595 0
M  V30 36 H 2.716750 2.209660 4.851844 0
M  V30 37 H 1.242197 1.480949 3.133470 0
M  V30 38 H 0.825394 -0.222633 4.550215 0
M  V30 39 H 2.533860 -0.508457 4.946869 0
M  V30 40 H 1.349663 -2.408930 3.832984 0
M  V30 41 H 3.860514 -1.641412 3.886627 0
M  V30 42 H 3.346482 -3.026153 3.108162 0
M  V30 43 H 0.790566 -2.281410 1.483480 0
M  V30 44 H 0.185750 -0.893981 2.305639 0
M  V30 45 H 1.034779 0.347787 0.692426 0
M  V30 46 H 4.485660 -1.117984 0.707231 0
M  V30 47 H 5.535133 -1.816864 -1.346386 0
M  V30 48 H 1.876475 -1.360808 -3.388410 0
M  V30 49 H -0.015133 -1.480822 -1.131964 0
M  V30 50 H -1.462665 2.918644 -2.010480 0
M  V30 51 H -3.955169 3.112824 -1.970388 0
M  V30 52 H -5.362613 -3.265810 1.522914 0
M  V30 53 H -5.991538 -4.809044 -0.366158 0
M  V30 54 H -4.875717 -4.890905 -3.290163 0
M  V30 55 H 2.858501 1.511197 1.411552 0
M  V30 56 H 3.728961 0.134762 2.074842 0
M  V30 END ATOM
M  V30 BEGIN BOND
M  V30 1 1 1 2
M  V30 2 1 2 3
M  V30 3 1 3 4
M  V30 4 1 4 5
M  V30 5 1 4 6
M  V30 6 1 6 7
M  V30 7 1 7 8
M  V30 8 2 8 9
M  V30 9 1 9 10
M  V30 10 2 10 11
M  V30 11 1 11 12
M  V30 12 2 12 13
M  V30 13 1 13 14
M  V30 14 1 14 15
M  V30 15 2 15 16
M  V30 16 1 15 17
M  V30 17 2 17 18
M  V30 18 1 18 19
M  V30 19 2 19 20
M  V30 20 1 20 21
M  V30 21 1 20 22
M  V30 22 1 22 23
M  V30 23 2 23 24
M  V30 24 1 24 25
M  V30 25 1 24 26
M  V30 26 2 26 27
M  V30 27 1 27 28
M  V30 28 1 28 29
M  V30 29 2 28 30
M  V30 30 1 30 31
M  V30 31 2 22 32
M  V30 32 1 7 33
M  V30 33 1 33 2
M  V30 34 1 13 8
M  V30 35 1 32 17
M  V30 36 1 30 23
M  V30 37 1 1 34
M  V30 38 1 1 35
M  V30 39 1 1 36
M  V30 40 1 2 37 CFG=3
M  V30 41 1 3 38
M  V30 42 1 3 39
M  V30 43 1 4 40 CFG=1
M  V30 44 1 5 41
M  V30 45 1 5 42
M  V30 46 1 6 43
M  V30 47 1 6 44
M  V30 48 1 7 45 CFG=3
M  V30 49 1 9 46
M  V30 50 1 10 47
M  V30 51 1 12 48
M  V30 52 1 14 49
M  V30 53 1 18 50
M  V30 54 1 19 51
M  V30 55 1 26 52
M  V30 56 1 27 53
M  V30 57 1 29 54
M  V30 58 1 33 55
M  V30 59 1 33 56
M  V30 END BOND
M  V30 END CTAB
M  END
>  <Dataset>  (308) 
ChEMBL_Kinases

>  <Ligand_Instance>  (308) 
nan

>  <PDB_ID>  (308) 
nan

>  <Standardized_SMILES>  (308) 
C[C@@H]1C[C@H](N)C[C@H](c2ccncc2NC(=O)c2ccc(F)c(-c3c(F)ccc(O)c3F)n2)C1

>  <Name>  (308) 
nan

>  <Pocket>  (308) 
nan

>  <ATP_Site>  (308) 
nan

>  <Peripheral>  (308) 
nan

>  <Num_H_Atoms_ProtBoundConf>  (308) 
nan

>  <Num_Resolved_Atoms>  (308) 
nan

>  <Num_Not_Resolved_Atoms>  (308) 
nan

$$$$
CHEMBL3652011
     RDKit          3D

  0  0  0  0  0  0  0  0  0  0999 V3000
M  V30 BEGIN CTAB
M  V30 COUNTS 55 58 0 0 0
M  V30 BEGIN ATOM
M  V30 1 C -3.252987 1.918509 -1.068246 0
M  V30 2 C -3.053243 0.439457 -0.837588 0 CFG=1
M  V30 3 C -2.520574 0.246466 0.552706 0
M  V30 4 C -2.260719 -1.239398 0.717193 0 CFG=1
M  V30 5 C -1.493756 -1.414120 1.950509 0
M  V30 6 C -1.990912 -1.615602 3.228408 0
M  V30 7 C -1.175186 -1.769696 4.330698 0
M  V30 8 N 0.134915 -1.719246 4.134601 0
M  V30 9 C 0.690296 -1.526879 2.922959 0
M  V30 10 C -0.111181 -1.368899 1.796494 0
M  V30 11 N 0.625839 -1.175141 0.594714 0
M  V30 12 C 1.145950 -2.041846 -0.378965 0
M  V30 13 O 0.979645 -3.296517 -0.259352 0
M  V30 14 C 1.863594 -1.440284 -1.497475 0
M  V30 15 C 2.369639 -2.293441 -2.446053 0
M  V30 16 C 3.068821 -1.849377 -3.553565 0
M  V30 17 C 3.245422 -0.468041 -3.674464 0
M  V30 18 F 3.918683 0.041996 -4.730606 0
M  V30 19 C 2.733175 0.387622 -2.715255 0
M  V30 20 C 2.880532 1.835964 -2.779165 0
M  V30 21 C 1.986070 2.684574 -3.398565 0
M  V30 22 F 0.893988 2.141375 -3.989789 0
M  V30 23 C 2.147681 4.045027 -3.444834 0
M  V30 24 C 3.292110 4.541115 -2.817628 0
M  V30 25 C 4.206630 3.722299 -2.189439 0
M  V30 26 C 4.016391 2.353513 -2.159287 0
M  V30 27 F 4.919339 1.557147 -1.540290 0
M  V30 28 N 2.060235 -0.105891 -1.657584 0
M  V30 29 C -3.647002 -1.876617 0.818796 0
M  V30 30 C -4.407312 -1.657289 -0.453042 0 CFG=1
M  V30 31 O -5.759806 -1.951165 -0.155138 0
M  V30 32 C -4.392206 -0.241442 -0.934123 0 CFG=2
M  V30 33 O -4.842206 -0.267385 -2.266728 0
M  V30 34 H -4.129650 2.208486 -0.425531 0
M  V30 35 H -3.418427 2.164869 -2.119832 0
M  V30 36 H -2.359319 2.435492 -0.700695 0
M  V30 37 H -2.316532 0.061510 -1.559243 0
M  V30 38 H -1.643288 0.865446 0.781976 0
M  V30 39 H -3.322920 0.519859 1.271899 0
M  V30 40 H -1.737261 -1.688329 -0.147442 0
M  V30 41 H -3.067578 -1.642485 3.293376 0
M  V30 42 H -1.702564 -1.918609 5.258446 0
M  V30 43 H 1.782823 -1.509195 2.920341 0
M  V30 44 H 0.741764 -0.120441 0.533883 0
M  V30 45 H 2.244463 -3.365281 -2.371953 0
M  V30 46 H 3.466805 -2.523500 -4.299965 0
M  V30 47 H 1.454374 4.714666 -3.926181 0
M  V30 48 H 3.497021 5.598055 -2.806480 0
M  V30 49 H 5.085876 4.143585 -1.711765 0
M  V30 50 H -4.201337 -1.297054 1.613792 0
M  V30 51 H -3.617655 -2.945726 1.043623 0
M  V30 52 H -4.146741 -2.388412 -1.258628 0
M  V30 53 H -6.042633 -1.521487 0.685383 0
M  V30 54 H -5.128590 0.343971 -0.358591 0
M  V30 55 H -4.911356 0.636673 -2.627267 0
M  V30 END ATOM
M  V30 BEGIN BOND
M  V30 1 1 1 2
M  V30 2 1 2 3
M  V30 3 1 3 4
M  V30 4 1 4 5
M  V30 5 2 5 6
M  V30 6 1 6 7
M  V30 7 2 7 8
M  V30 8 1 8 9
M  V30 9 2 9 10
M  V30 10 1 10 11
M  V30 11 1 11 12
M  V30 12 2 12 13
M  V30 13 1 12 14
M  V30 14 2 14 15
M  V30 15 1 15 16
M  V30 16 2 16 17
M  V30 17 1 17 18
M  V30 18 1 17 19
M  V30 19 1 19 20
M  V30 20 2 20 21
M  V30 21 1 21 22
M  V30 22 1 21 23
M  V30 23 2 23 24
M  V30 24 1 24 25
M  V30 25 2 25 26
M  V30 26 1 26 27
M  V30 27 2 19 28
M  V30 28 1 4 29
M  V30 29 1 29 30
M  V30 30 1 30 31
M  V30 31 1 30 32
M  V30 32 1 32 33
M  V30 33 1 32 2
M  V30 34 1 10 5
M  V30 35 1 28 14
M  V30 36 1 26 20
M  V30 37 1 1 34
M  V30 38 1 1 35
M  V30 39 1 1 36
M  V30 40 1 2 37 CFG=3
M  V30 41 1 3 38
M  V30 42 1 3 39
M  V30 43 1 4 40 CFG=3
M  V30 44 1 6 41
M  V30 45 1 7 42
M  V30 46 1 9 43
M  V30 47 1 11 44
M  V30 48 1 15 45
M  V30 49 1 16 46
M  V30 50 1 23 47
M  V30 51 1 24 48
M  V30 52 1 25 49
M  V30 53 1 29 50
M  V30 54 1 29 51
M  V30 55 1 30 52 CFG=3
M  V30 56 1 31 53
M  V30 57 1 32 54 CFG=1
M  V30 58 1 33 55
M  V30 END BOND
M  V30 END CTAB
M  END
>  <Dataset>  (309) 
ChEMBL_Kinases

>  <Ligand_Instance>  (309) 
nan

>  <PDB_ID>  (309) 
nan

>  <Standardized_SMILES>  (309) 
C[C@H]1C[C@@H](c2ccncc2NC(=O)c2ccc(F)c(-c3c(F)cccc3F)n2)C[C@@H](O)[C@@H]1O

>  <Name>  (309) 
nan

>  <Pocket>  (309) 
nan

>  <ATP_Site>  (309) 
nan

>  <Peripheral>  (309) 
nan

>  <Num_H_Atoms_ProtBoundConf>  (309) 
nan

>  <Num_Resolved_Atoms>  (309) 
nan

>  <Num_Not_Resolved_Atoms>  (309) 
nan

$$$$
CHEMBL3652634
     RDKit          3D

  0  0  0  0  0  0  0  0  0  0999 V3000
M  V30 BEGIN CTAB
M  V30 COUNTS 43 45 0 0 0
M  V30 BEGIN ATOM
M  V30 1 C -0.626161 -4.345397 2.932891 0
M  V30 2 N 0.358188 -3.268750 2.826605 0
M  V30 3 N 1.506124 -3.291756 3.493000 0
M  V30 4 C 2.244913 -2.214633 3.241787 0
M  V30 5 C 1.486007 -1.462928 2.341291 0
M  V30 6 N 1.841682 -0.213187 1.772987 0
M  V30 7 C 2.587107 0.075779 0.605086 0
M  V30 8 O 3.100932 -0.744321 -0.188160 0
M  V30 9 C 2.764943 1.503149 0.309758 0
M  V30 10 N 2.272813 2.503837 1.069236 0
M  V30 11 C 2.446451 3.791158 0.779994 0
M  V30 12 Cl 1.746542 4.986202 1.862258 0
M  V30 13 C 3.173878 4.130240 -0.367134 0
M  V30 14 N 3.663549 3.134984 -1.122579 0
M  V30 15 C 3.483712 1.829271 -0.823291 0
M  V30 16 N 4.061220 0.906387 -1.721118 0
M  V30 17 C 0.309180 -2.126179 2.086817 0
M  V30 18 N -0.819412 -1.849043 1.296931 0
M  V30 19 C -1.140930 -2.415526 0.025525 0
M  V30 20 C -2.454115 -2.018788 -0.535681 0
M  V30 21 C -2.985774 -0.677234 -0.147601 0
M  V30 22 C -2.060001 0.098193 0.785211 0 CFG=2
M  V30 23 N -0.963263 0.592719 0.028164 0
M  V30 24 C -1.710046 -0.893403 1.870370 0
M  V30 25 H -0.479576 -4.893853 3.880864 0
M  V30 26 H -1.651744 -3.952248 2.902936 0
M  V30 27 H -0.482116 -5.075816 2.089287 0
M  V30 28 H 3.210567 -1.877291 3.582485 0
M  V30 29 H 1.448552 0.544349 2.382879 0
M  V30 30 H 3.298484 5.188890 -0.578890 0
M  V30 31 H 3.880327 0.593963 -2.719746 0
M  V30 32 H 4.873348 0.438781 -1.212898 0
M  V30 33 H -0.278354 -2.330172 -0.658683 0
M  V30 34 H -1.200279 -3.532192 0.218090 0
M  V30 35 H -3.257201 -2.764176 -0.258497 0
M  V30 36 H -2.395497 -2.051424 -1.643038 0
M  V30 37 H -3.950556 -0.729767 0.405686 0
M  V30 38 H -3.167541 -0.024328 -1.025333 0
M  V30 39 H -2.640454 0.957218 1.183515 0
M  V30 40 H -1.315751 1.016219 -0.867385 0
M  V30 41 H -0.179046 -0.026762 -0.152559 0
M  V30 42 H -2.642660 -1.481350 2.138225 0
M  V30 43 H -1.383075 -0.410195 2.799506 0
M  V30 END ATOM
M  V30 BEGIN BOND
M  V30 1 1 1 2
M  V30 2 1 2 3
M  V30 3 2 3 4
M  V30 4 1 4 5
M  V30 5 1 5 6
M  V30 6 1 6 7
M  V30 7 2 7 8
M  V30 8 1 7 9
M  V30 9 2 9 10
M  V30 10 1 10 11
M  V30 11 1 11 12
M  V30 12 2 11 13
M  V30 13 1 13 14
M  V30 14 2 14 15
M  V30 15 1 15 16
M  V30 16 2 5 17
M  V30 17 1 17 18
M  V30 18 1 18 19
M  V30 19 1 19 20
M  V30 20 1 20 21
M  V30 21 1 21 22
M  V30 22 1 22 23
M  V30 23 1 22 24
M  V30 24 1 17 2
M  V30 25 1 24 18
M  V30 26 1 15 9
M  V30 27 1 1 25
M  V30 28 1 1 26
M  V30 29 1 1 27
M  V30 30 1 4 28
M  V30 31 1 6 29
M  V30 32 1 13 30
M  V30 33 1 16 31
M  V30 34 1 16 32
M  V30 35 1 19 33
M  V30 36 1 19 34
M  V30 37 1 20 35
M  V30 38 1 20 36
M  V30 39 1 21 37
M  V30 40 1 21 38
M  V30 41 1 22 39 CFG=1
M  V30 42 1 23 40
M  V30 43 1 23 41
M  V30 44 1 24 42
M  V30 45 1 24 43
M  V30 END BOND
M  V30 END CTAB
M  END
>  <Dataset>  (310) 
ChEMBL_Kinases

>  <Ligand_Instance>  (310) 
nan

>  <PDB_ID>  (310) 
nan

>  <Standardized_SMILES>  (310) 
Cn1ncc(NC(=O)c2nc(Cl)cnc2N)c1N1CCC[C@H](N)C1

>  <Name>  (310) 
nan

>  <Pocket>  (310) 
nan

>  <ATP_Site>  (310) 
nan

>  <Peripheral>  (310) 
nan

>  <Num_H_Atoms_ProtBoundConf>  (310) 
nan

>  <Num_Resolved_Atoms>  (310) 
nan

>  <Num_Not_Resolved_Atoms>  (310) 
nan

$$$$
CHEMBL3651985
     RDKit          3D

  0  0  0  0  0  0  0  0  0  0999 V3000
M  V30 BEGIN CTAB
M  V30 COUNTS 62 65 0 0 0
M  V30 BEGIN ATOM
M  V30 1 C 2.289839 -2.746016 4.565424 0
M  V30 2 C 1.298771 -2.038749 3.647221 0 CFG=1
M  V30 3 C 1.944266 -1.044423 2.739855 0
M  V30 4 C 1.932703 -1.525529 1.319455 0 CFG=1
M  V30 5 C 2.828138 -0.819625 0.408938 0
M  V30 6 C 4.137787 -1.179664 0.174969 0
M  V30 7 C 4.922052 -0.474059 -0.691413 0
M  V30 8 N 4.474754 0.597610 -1.359488 0
M  V30 9 C 3.201289 0.982175 -1.159212 0
M  V30 10 C 2.390241 0.286138 -0.289760 0
M  V30 11 N 1.072311 0.802687 -0.177179 0
M  V30 12 C 0.499989 1.772877 0.684019 0
M  V30 13 O 1.197298 2.353949 1.554817 0
M  V30 14 C -0.914562 2.054985 0.508287 0
M  V30 15 C -1.493941 2.994922 1.334881 0
M  V30 16 C -2.817022 3.283098 1.197130 0
M  V30 17 C -3.556898 2.644229 0.248216 0
M  V30 18 F -4.869315 2.909222 0.088805 0
M  V30 19 C -2.993270 1.691782 -0.597318 0
M  V30 20 C -3.787866 1.002966 -1.620097 0
M  V30 21 C -4.455119 -0.250102 -1.245128 0
M  V30 22 C -3.642570 -1.507264 -1.283985 0
M  V30 23 C -2.431850 -1.417988 -2.184229 0
M  V30 24 C -2.822853 -0.536612 -3.348663 0
M  V30 25 C -2.970706 0.885406 -2.871922 0
M  V30 26 N -1.681726 1.448291 -0.414888 0
M  V30 27 C 2.240171 -3.022019 1.391293 0
M  V30 28 C 0.954984 -3.685350 1.777914 0 CFG=1
M  V30 29 N 1.090586 -5.122819 1.934200 0
M  V30 30 C 0.386572 -3.023653 2.994234 0 CFG=2
M  V30 31 O -0.882697 -2.486727 2.783294 0
M  V30 32 H 3.323067 -2.369493 4.414268 0
M  V30 33 H 2.228620 -3.845291 4.386670 0
M  V30 34 H 2.074880 -2.604782 5.634842 0
M  V30 35 H 0.639524 -1.440346 4.344163 0
M  V30 36 H 1.603996 -0.013174 2.890355 0
M  V30 37 H 3.035770 -1.028662 3.032616 0
M  V30 38 H 0.878054 -1.369271 0.947385 0
M  V30 39 H 4.516810 -2.044479 0.706961 0
M  V30 40 H 5.942210 -0.790957 -0.844777 0
M  V30 41 H 2.878221 1.849648 -1.715540 0
M  V30 42 H 0.507916 0.303333 -0.913671 0
M  V30 43 H -0.919203 3.524000 2.107783 0
M  V30 44 H -3.296447 4.026598 1.843844 0
M  V30 45 H -4.622567 1.726040 -1.876868 0
M  V30 46 H -5.268586 -0.420190 -2.016684 0
M  V30 47 H -5.038055 -0.135189 -0.310581 0
M  V30 48 H -4.232849 -2.386238 -1.644750 0
M  V30 49 H -3.324663 -1.839510 -0.252114 0
M  V30 50 H -1.527601 -1.048490 -1.660775 0
M  V30 51 H -2.217930 -2.414931 -2.612712 0
M  V30 52 H -2.033853 -0.646487 -4.103846 0
M  V30 53 H -3.771718 -0.936889 -3.760319 0
M  V30 54 H -1.913370 1.253218 -2.727308 0
M  V30 55 H -3.365098 1.475818 -3.723580 0
M  V30 56 H 2.994971 -3.195138 2.184610 0
M  V30 57 H 2.664026 -3.392359 0.444709 0
M  V30 58 H 0.233134 -3.544672 0.946545 0
M  V30 59 H 1.118745 -5.570721 0.974257 0
M  V30 60 H 0.154997 -5.436438 2.331690 0
M  V30 61 H 0.223007 -3.837674 3.760985 0
M  V30 62 H -0.828546 -1.499252 2.785876 0
M  V30 END ATOM
M  V30 BEGIN BOND
M  V30 1 1 1 2
M  V30 2 1 2 3
M  V30 3 1 3 4
M  V30 4 1 4 5
M  V30 5 2 5 6
M  V30 6 1 6 7
M  V30 7 2 7 8
M  V30 8 1 8 9
M  V30 9 2 9 10
M  V30 10 1 10 11
M  V30 11 1 11 12
M  V30 12 2 12 13
M  V30 13 1 12 14
M  V30 14 2 14 15
M  V30 15 1 15 16
M  V30 16 2 16 17
M  V30 17 1 17 18
M  V30 18 1 17 19
M  V30 19 1 19 20
M  V30 20 1 20 21
M  V30 21 1 21 22
M  V30 22 1 22 23
M  V30 23 1 23 24
M  V30 24 1 24 25
M  V30 25 2 19 26
M  V30 26 1 4 27
M  V30 27 1 27 28
M  V30 28 1 28 29
M  V30 29 1 28 30
M  V30 30 1 30 31
M  V30 31 1 30 2
M  V30 32 1 10 5
M  V30 33 1 26 14
M  V30 34 1 25 20
M  V30 35 1 1 32
M  V30 36 1 1 33
M  V30 37 1 1 34
M  V30 38 1 2 35 CFG=1
M  V30 39 1 3 36
M  V30 40 1 3 37
M  V30 41 1 4 38 CFG=3
M  V30 42 1 6 39
M  V30 43 1 7 40
M  V30 44 1 9 41
M  V30 45 1 11 42
M  V30 46 1 15 43
M  V30 47 1 16 44
M  V30 48 1 20 45
M  V30 49 1 21 46
M  V30 50 1 21 47
M  V30 51 1 22 48
M  V30 52 1 22 49
M  V30 53 1 23 50
M  V30 54 1 23 51
M  V30 55 1 24 52
M  V30 56 1 24 53
M  V30 57 1 25 54
M  V30 58 1 25 55
M  V30 59 1 27 56
M  V30 60 1 27 57
M  V30 61 1 28 58 CFG=3
M  V30 62 1 29 59
M  V30 63 1 29 60
M  V30 64 1 30 61 CFG=1
M  V30 65 1 31 62
M  V30 END BOND
M  V30 END CTAB
M  END
>  <Dataset>  (311) 
ChEMBL_Kinases

>  <Ligand_Instance>  (311) 
nan

>  <PDB_ID>  (311) 
nan

>  <Standardized_SMILES>  (311) 
C[C@H]1C[C@@H](c2ccncc2NC(=O)c2ccc(F)c(C3CCCCC3)n2)C[C@@H](N)[C@@H]1O

>  <Name>  (311) 
nan

>  <Pocket>  (311) 
nan

>  <ATP_Site>  (311) 
nan

>  <Peripheral>  (311) 
nan

>  <Num_H_Atoms_ProtBoundConf>  (311) 
nan

>  <Num_Resolved_Atoms>  (311) 
nan

>  <Num_Not_Resolved_Atoms>  (311) 
nan

$$$$
CHEMBL3651986
     RDKit          3D

  0  0  0  0  0  0  0  0  0  0999 V3000
M  V30 BEGIN CTAB
M  V30 COUNTS 61 64 0 0 0
M  V30 BEGIN ATOM
M  V30 1 C 2.146639 -2.451969 -0.114726 0
M  V30 2 C 2.764120 -1.278134 0.656767 0 CFG=2
M  V30 3 C 1.998300 -1.035574 1.900522 0
M  V30 4 C 2.230047 0.257279 2.567529 0 CFG=2
M  V30 5 N 0.986199 0.599361 3.286341 0
M  V30 6 C 2.581459 1.436261 1.740801 0
M  V30 7 C 2.773104 1.249845 0.292142 0 CFG=2
M  V30 8 C 1.982465 2.123231 -0.618933 0
M  V30 9 C 2.409798 3.347262 -1.160540 0
M  V30 10 C 1.624890 4.088426 -2.009677 0
M  V30 11 N 0.416011 3.682698 -2.363023 0
M  V30 12 C -0.038160 2.505140 -1.862936 0
M  V30 13 C 0.742990 1.733904 -0.996755 0
M  V30 14 N 0.028322 0.562188 -0.627513 0
M  V30 15 C -0.785815 0.903554 0.521665 0
M  V30 16 O -0.695150 2.092463 0.927281 0
M  V30 17 C -1.677265 -0.065874 1.194515 0
M  V30 18 C -2.396947 0.384034 2.274759 0
M  V30 19 C -3.247450 -0.469225 2.947480 0
M  V30 20 C -3.338788 -1.764672 2.494862 0
M  V30 21 F -4.169184 -2.610403 3.146571 0
M  V30 22 C -2.613888 -2.220681 1.405574 0
M  V30 23 C -2.725255 -3.614900 0.933584 0
M  V30 24 C -3.812398 -3.795114 -0.108746 0
M  V30 25 C -3.450320 -3.201143 -1.429592 0
M  V30 26 C -1.993773 -3.284710 -1.761155 0
M  V30 27 C -1.219324 -4.284716 -0.964887 0
M  V30 28 C -1.435342 -4.237028 0.510712 0
M  V30 29 N -1.807778 -1.325267 0.805770 0
M  V30 30 C 2.980797 -0.127790 -0.232447 0
M  V30 31 H 1.064802 -2.379519 -0.025543 0
M  V30 32 H 2.502821 -2.311603 -1.173157 0
M  V30 33 H 2.521250 -3.424968 0.198466 0
M  V30 34 H 3.768038 -1.679505 0.964324 0
M  V30 35 H 2.204143 -1.848069 2.646008 0
M  V30 36 H 0.909571 -1.236742 1.668964 0
M  V30 37 H 2.955916 0.084639 3.421244 0
M  V30 38 H 0.754805 -0.157591 3.987489 0
M  V30 39 H 1.236494 1.423962 3.877672 0
M  V30 40 H 1.853788 2.298283 1.871428 0
M  V30 41 H 3.469678 1.902205 2.284847 0
M  V30 42 H 3.816355 1.706578 0.128477 0
M  V30 43 H 3.420012 3.663534 -0.851338 0
M  V30 44 H 2.070739 5.014986 -2.358826 0
M  V30 45 H -1.051350 2.274508 -2.226860 0
M  V30 46 H -0.127550 -0.464311 -0.885478 0
M  V30 47 H -2.291602 1.427203 2.600162 0
M  V30 48 H -3.789861 -0.061739 3.791560 0
M  V30 49 H -3.091722 -4.215602 1.816664 0
M  V30 50 H -4.714262 -3.308633 0.301643 0
M  V30 51 H -3.975583 -4.883379 -0.219187 0
M  V30 52 H -4.104964 -3.707034 -2.193866 0
M  V30 53 H -3.810210 -2.140192 -1.410404 0
M  V30 54 H -1.938659 -3.641789 -2.831734 0
M  V30 55 H -1.496034 -2.280837 -1.806807 0
M  V30 56 H -1.511677 -5.294224 -1.359095 0
M  V30 57 H -0.148419 -4.123680 -1.211115 0
M  V30 58 H -0.615587 -3.700108 1.064697 0
M  V30 59 H -1.345918 -5.298273 0.888221 0
M  V30 60 H 2.227572 -0.228423 -1.074431 0
M  V30 61 H 3.951294 -0.268736 -0.804539 0
M  V30 END ATOM
M  V30 BEGIN BOND
M  V30 1 1 1 2
M  V30 2 1 2 3
M  V30 3 1 3 4
M  V30 4 1 4 5
M  V30 5 1 4 6
M  V30 6 1 6 7
M  V30 7 1 7 8
M  V30 8 2 8 9
M  V30 9 1 9 10
M  V30 10 2 10 11
M  V30 11 1 11 12
M  V30 12 2 12 13
M  V30 13 1 13 14
M  V30 14 1 14 15
M  V30 15 2 15 16
M  V30 16 1 15 17
M  V30 17 2 17 18
M  V30 18 1 18 19
M  V30 19 2 19 20
M  V30 20 1 20 21
M  V30 21 1 20 22
M  V30 22 1 22 23
M  V30 23 1 23 24
M  V30 24 1 24 25
M  V30 25 1 25 26
M  V30 26 1 26 27
M  V30 27 1 27 28
M  V30 28 2 22 29
M  V30 29 1 7 30
M  V30 30 1 30 2
M  V30 31 1 13 8
M  V30 32 1 29 17
M  V30 33 1 28 23
M  V30 34 1 1 31
M  V30 35 1 1 32
M  V30 36 1 1 33
M  V30 37 1 2 34 CFG=1
M  V30 38 1 3 35
M  V30 39 1 3 36
M  V30 40 1 4 37 CFG=1
M  V30 41 1 5 38
M  V30 42 1 5 39
M  V30 43 1 6 40
M  V30 44 1 6 41
M  V30 45 1 7 42 CFG=1
M  V30 46 1 9 43
M  V30 47 1 10 44
M  V30 48 1 12 45
M  V30 49 1 14 46
M  V30 50 1 18 47
M  V30 51 1 19 48
M  V30 52 1 23 49
M  V30 53 1 24 50
M  V30 54 1 24 51
M  V30 55 1 25 52
M  V30 56 1 25 53
M  V30 57 1 26 54
M  V30 58 1 26 55
M  V30 59 1 27 56
M  V30 60 1 27 57
M  V30 61 1 28 58
M  V30 62 1 28 59
M  V30 63 1 30 60
M  V30 64 1 30 61
M  V30 END BOND
M  V30 END CTAB
M  END
>  <Dataset>  (312) 
ChEMBL_Kinases

>  <Ligand_Instance>  (312) 
nan

>  <PDB_ID>  (312) 
nan

>  <Standardized_SMILES>  (312) 
C[C@@H]1C[C@H](N)C[C@H](c2ccncc2NC(=O)c2ccc(F)c(C3CCCCC3)n2)C1

>  <Name>  (312) 
nan

>  <Pocket>  (312) 
nan

>  <ATP_Site>  (312) 
nan

>  <Peripheral>  (312) 
nan

>  <Num_H_Atoms_ProtBoundConf>  (312) 
nan

>  <Num_Resolved_Atoms>  (312) 
nan

>  <Num_Not_Resolved_Atoms>  (312) 
nan

$$$$
CHEMBL3651987
     RDKit          3D

  0  0  0  0  0  0  0  0  0  0999 V3000
M  V30 BEGIN CTAB
M  V30 COUNTS 53 56 0 0 0
M  V30 BEGIN ATOM
M  V30 1 N -0.698641 2.270893 3.652569 0
M  V30 2 C 0.375185 2.118135 2.731643 0
M  V30 3 C 1.139608 3.203027 2.353405 0
M  V30 4 C 2.191217 3.124770 1.468091 0
M  V30 5 C 2.527222 1.902460 0.907026 0
M  V30 6 C 3.605320 1.640888 -0.042780 0
M  V30 7 C 4.900532 1.297956 0.360719 0
M  V30 8 F 5.175084 1.202754 1.683645 0
M  V30 9 C 5.870037 1.064263 -0.592971 0
M  V30 10 C 5.568328 1.167236 -1.948713 0
M  V30 11 C 4.277877 1.508362 -2.319785 0
M  V30 12 C 3.302436 1.743905 -1.382585 0
M  V30 13 F 2.062183 2.073299 -1.819600 0
M  V30 14 N 1.766885 0.838136 1.286700 0
M  V30 15 C 0.757988 0.931420 2.140287 0
M  V30 16 C -0.041139 -0.258850 2.522145 0
M  V30 17 O -0.987537 -0.134695 3.330368 0
M  V30 18 N 0.269558 -1.559372 1.964364 0
M  V30 19 C -0.676694 -2.455269 2.535492 0
M  V30 20 C -0.258091 -2.952379 3.751724 0
M  V30 21 N -1.113539 -3.814314 4.380099 0
M  V30 22 C -2.300242 -4.125811 3.785638 0
M  V30 23 C -2.649143 -3.589904 2.569290 0
M  V30 24 C -1.849052 -2.718407 1.872086 0
M  V30 25 C -2.239288 -2.210408 0.596907 0
M  V30 26 C -3.446747 -2.526559 0.113400 0
M  V30 27 C -3.914735 -2.027560 -1.213565 0
M  V30 28 N -5.114656 -2.724951 -1.641000 0
M  V30 29 C -2.836656 -2.422222 -2.216915 0
M  V30 30 O -2.984097 -3.796237 -2.416963 0
M  V30 31 C -1.461009 -2.192781 -1.691950 0
M  V30 32 C -1.570274 -1.373933 -0.392180 0
M  V30 33 H -1.666454 2.422980 3.325161 0
M  V30 34 H -0.117899 2.171119 4.531748 0
M  V30 35 H 0.943331 4.208438 2.748693 0
M  V30 36 H 2.804502 3.959157 1.156180 0
M  V30 37 H 6.864733 0.799776 -0.222625 0
M  V30 38 H 6.355059 0.976647 -2.673365 0
M  V30 39 H 4.103649 1.572831 -3.372485 0
M  V30 40 H 1.076668 -1.675056 1.280334 0
M  V30 41 H 0.679971 -2.707977 4.224727 0
M  V30 42 H -2.871534 -4.806523 4.380089 0
M  V30 43 H -3.610748 -3.958594 2.277917 0
M  V30 44 H -4.185969 -3.145779 0.605747 0
M  V30 45 H -4.132270 -0.940649 -1.221138 0
M  V30 46 H -4.891908 -3.569952 -2.220445 0
M  V30 47 H -5.565292 -3.103719 -0.766298 0
M  V30 48 H -3.028965 -1.927937 -3.188836 0
M  V30 49 H -2.154341 -4.304558 -2.401084 0
M  V30 50 H -0.869294 -1.649557 -2.444501 0
M  V30 51 H -0.921472 -3.132640 -1.452355 0
M  V30 52 H -2.238146 -0.505114 -0.681001 0
M  V30 53 H -0.635477 -0.900729 -0.145451 0
M  V30 END ATOM
M  V30 BEGIN BOND
M  V30 1 1 1 2
M  V30 2 2 2 3
M  V30 3 1 3 4
M  V30 4 2 4 5
M  V30 5 1 5 6
M  V30 6 2 6 7
M  V30 7 1 7 8
M  V30 8 1 7 9
M  V30 9 2 9 10
M  V30 10 1 10 11
M  V30 11 2 11 12
M  V30 12 1 12 13
M  V30 13 1 5 14
M  V30 14 2 14 15
M  V30 15 1 15 16
M  V30 16 2 16 17
M  V30 17 1 16 18
M  V30 18 1 18 19
M  V30 19 2 19 20
M  V30 20 1 20 21
M  V30 21 2 21 22
M  V30 22 1 22 23
M  V30 23 2 23 24
M  V30 24 1 24 25
M  V30 25 2 25 26
M  V30 26 1 26 27
M  V30 27 1 27 28
M  V30 28 1 27 29
M  V30 29 1 29 30
M  V30 30 1 29 31
M  V30 31 1 31 32
M  V30 32 1 15 2
M  V30 33 1 24 19
M  V30 34 1 32 25
M  V30 35 1 12 6
M  V30 36 1 1 33
M  V30 37 1 1 34
M  V30 38 1 3 35
M  V30 39 1 4 36
M  V30 40 1 9 37
M  V30 41 1 10 38
M  V30 42 1 11 39
M  V30 43 1 18 40
M  V30 44 1 20 41
M  V30 45 1 22 42
M  V30 46 1 23 43
M  V30 47 1 26 44
M  V30 48 1 27 45
M  V30 49 1 28 46
M  V30 50 1 28 47
M  V30 51 1 29 48
M  V30 52 1 30 49
M  V30 53 1 31 50
M  V30 54 1 31 51
M  V30 55 1 32 52
M  V30 56 1 32 53
M  V30 END BOND
M  V30 END CTAB
M  END
>  <Dataset>  (313) 
ChEMBL_Kinases

>  <Ligand_Instance>  (313) 
nan

>  <PDB_ID>  (313) 
nan

>  <Standardized_SMILES>  (313) 
Nc1ccc(-c2c(F)cccc2F)nc1C(=O)Nc1cnccc1C1=CC(N)C(O)CC1

>  <Name>  (313) 
nan

>  <Pocket>  (313) 
nan

>  <ATP_Site>  (313) 
nan

>  <Peripheral>  (313) 
nan

>  <Num_H_Atoms_ProtBoundConf>  (313) 
nan

>  <Num_Resolved_Atoms>  (313) 
nan

>  <Num_Not_Resolved_Atoms>  (313) 
nan

$$$$
CHEMBL3651988
     RDKit          3D

  0  0  0  0  0  0  0  0  0  0999 V3000
M  V30 BEGIN CTAB
M  V30 COUNTS 53 56 0 0 0
M  V30 BEGIN ATOM
M  V30 1 N -0.421485 2.574301 3.385800 0
M  V30 2 C 0.599231 2.236283 2.453585 0
M  V30 3 C 1.408118 3.255116 1.936936 0
M  V30 4 C 2.419825 2.966495 1.021027 0
M  V30 5 C 2.648013 1.666168 0.601288 0
M  V30 6 C 3.706342 1.359031 -0.357873 0
M  V30 7 C 5.000111 1.048970 0.032527 0
M  V30 8 F 5.251565 1.040677 1.361106 0
M  V30 9 C 5.904154 0.779216 -0.973966 0
M  V30 10 C 5.498312 0.826648 -2.296914 0
M  V30 11 C 4.206746 1.136550 -2.677251 0
M  V30 12 C 3.287995 1.410295 -1.664072 0
M  V30 13 F 2.042894 1.707543 -2.066695 0
M  V30 14 N 1.837933 0.711193 1.129977 0
M  V30 15 C 0.874287 0.963218 1.998443 0
M  V30 16 C 0.010950 -0.071770 2.559177 0
M  V30 17 O -0.890551 0.217591 3.380171 0
M  V30 18 N 0.251201 -1.425898 2.120987 0
M  V30 19 C -0.319435 -2.687416 2.392601 0
M  V30 20 C 0.353244 -3.316629 3.419055 0
M  V30 21 N -0.058363 -4.552198 3.834776 0
M  V30 22 C -1.131509 -5.119525 3.209127 0
M  V30 23 C -1.749686 -4.439920 2.200691 0
M  V30 24 C -1.401539 -3.201398 1.724757 0
M  V30 25 C -2.090314 -2.511763 0.652227 0
M  V30 26 C -3.132518 -3.154609 0.153221 0
M  V30 27 C -4.046795 -2.757080 -0.923895 0 CFG=1
M  V30 28 N -5.455608 -2.855870 -0.584118 0
M  V30 29 C -3.734202 -1.365003 -1.450019 0 CFG=1
M  V30 30 O -4.479165 -0.387214 -0.792626 0
M  V30 31 C -2.274189 -1.058159 -1.329095 0
M  V30 32 C -1.746431 -1.197840 0.084510 0
M  V30 33 H -1.339330 3.066883 3.261116 0
M  V30 34 H -0.319296 2.322698 4.404158 0
M  V30 35 H 1.222010 4.266297 2.270779 0
M  V30 36 H 3.025429 3.780399 0.643046 0
M  V30 37 H 6.911830 0.538041 -0.662933 0
M  V30 38 H 6.278303 0.599890 -3.022501 0
M  V30 39 H 3.924223 1.164401 -3.723311 0
M  V30 40 H 1.032835 -1.667000 1.445292 0
M  V30 41 H 1.204288 -2.934248 3.958739 0
M  V30 42 H -1.413058 -6.093892 3.576477 0
M  V30 43 H -2.571040 -5.006466 1.805694 0
M  V30 44 H -3.556014 -4.113514 0.415769 0
M  V30 45 H -3.889374 -3.448999 -1.801920 0
M  V30 46 H -5.852279 -3.810800 -0.734733 0
M  V30 47 H -5.523140 -2.706806 0.460232 0
M  V30 48 H -3.985167 -1.291007 -2.528146 0
M  V30 49 H -5.362378 -0.241593 -1.247621 0
M  V30 50 H -1.659031 -1.707393 -1.971236 0
M  V30 51 H -2.121385 -0.024007 -1.675093 0
M  V30 52 H -2.146989 -0.355007 0.690228 0
M  V30 53 H -0.643503 -1.148861 -0.031896 0
M  V30 END ATOM
M  V30 BEGIN BOND
M  V30 1 1 1 2
M  V30 2 2 2 3
M  V30 3 1 3 4
M  V30 4 2 4 5
M  V30 5 1 5 6
M  V30 6 2 6 7
M  V30 7 1 7 8
M  V30 8 1 7 9
M  V30 9 2 9 10
M  V30 10 1 10 11
M  V30 11 2 11 12
M  V30 12 1 12 13
M  V30 13 1 5 14
M  V30 14 2 14 15
M  V30 15 1 15 16
M  V30 16 2 16 17
M  V30 17 1 16 18
M  V30 18 1 18 19
M  V30 19 2 19 20
M  V30 20 1 20 21
M  V30 21 2 21 22
M  V30 22 1 22 23
M  V30 23 2 23 24
M  V30 24 1 24 25
M  V30 25 2 25 26
M  V30 26 1 26 27
M  V30 27 1 27 28
M  V30 28 1 27 29
M  V30 29 1 29 30
M  V30 30 1 29 31
M  V30 31 1 31 32
M  V30 32 1 15 2
M  V30 33 1 24 19
M  V30 34 1 32 25
M  V30 35 1 12 6
M  V30 36 1 1 33
M  V30 37 1 1 34
M  V30 38 1 3 35
M  V30 39 1 4 36
M  V30 40 1 9 37
M  V30 41 1 10 38
M  V30 42 1 11 39
M  V30 43 1 18 40
M  V30 44 1 20 41
M  V30 45 1 22 42
M  V30 46 1 23 43
M  V30 47 1 26 44
M  V30 48 1 27 45 CFG=3
M  V30 49 1 28 46
M  V30 50 1 28 47
M  V30 51 1 29 48 CFG=3
M  V30 52 1 30 49
M  V30 53 1 31 50
M  V30 54 1 31 51
M  V30 55 1 32 52
M  V30 56 1 32 53
M  V30 END BOND
M  V30 END CTAB
M  END
>  <Dataset>  (314) 
ChEMBL_Kinases

>  <Ligand_Instance>  (314) 
nan

>  <PDB_ID>  (314) 
nan

>  <Standardized_SMILES>  (314) 
Nc1ccc(-c2c(F)cccc2F)nc1C(=O)Nc1cnccc1C1=C[C@@H](N)[C@@H](O)CC1

>  <Name>  (314) 
nan

>  <Pocket>  (314) 
nan

>  <ATP_Site>  (314) 
nan

>  <Peripheral>  (314) 
nan

>  <Num_H_Atoms_ProtBoundConf>  (314) 
nan

>  <Num_Resolved_Atoms>  (314) 
nan

>  <Num_Not_Resolved_Atoms>  (314) 
nan

$$$$
CHEMBL3651989
     RDKit          3D

  0  0  0  0  0  0  0  0  0  0999 V3000
M  V30 BEGIN CTAB
M  V30 COUNTS 58 61 0 0 0
M  V30 BEGIN ATOM
M  V30 1 C 3.294985 -2.969866 -1.436028 0
M  V30 2 C 2.503049 -1.700228 -1.609493 0 CFG=1
M  V30 3 C 2.514616 -0.864597 -0.347603 0
M  V30 4 C 1.589297 0.306594 -0.508319 0 CFG=1
M  V30 5 C 1.760425 1.315629 0.569930 0
M  V30 6 C 2.657627 2.355217 0.498188 0
M  V30 7 C 2.846749 3.310304 1.475619 0
M  V30 8 N 2.080995 3.197989 2.581948 0
M  V30 9 C 1.174894 2.225961 2.759513 0
M  V30 10 C 1.028520 1.309456 1.763956 0
M  V30 11 N 0.064827 0.281164 1.958107 0
M  V30 12 C 0.199396 -1.004542 2.550221 0
M  V30 13 O 1.241144 -1.507882 3.040341 0
M  V30 14 C -1.001768 -1.816195 2.588143 0
M  V30 15 N -2.198951 -1.431733 2.108945 0
M  V30 16 C -3.265599 -2.258339 2.188083 0
M  V30 17 C -4.468440 -1.659551 1.614603 0
M  V30 18 C -4.672703 -1.895770 0.257843 0
M  V30 19 F -3.861812 -2.613285 -0.524372 0
M  V30 20 C -5.798517 -1.339991 -0.296886 0
M  V30 21 C -6.670432 -0.588097 0.471559 0
M  V30 22 C -6.459491 -0.354486 1.834361 0
M  V30 23 C -5.322863 -0.913880 2.400674 0
M  V30 24 F -5.022425 -0.748541 3.717012 0
M  V30 25 C -3.270419 -3.524276 2.734868 0
M  V30 26 C -2.045130 -3.938473 3.234331 0
M  V30 27 C -0.979321 -3.065340 3.134785 0
M  V30 28 N 0.231893 -3.569482 3.669335 0
M  V30 29 C 1.482191 0.900798 -1.853468 0
M  V30 30 C 2.132732 0.245839 -2.998480 0 CFG=1
M  V30 31 N 2.770563 1.178507 -3.918930 0
M  V30 32 C 3.130417 -0.821071 -2.670632 0 CFG=1
M  V30 33 O 4.372764 -0.332292 -2.292419 0
M  V30 34 H 2.961432 -3.470523 -0.497097 0
M  V30 35 H 4.382147 -2.713477 -1.405526 0
M  V30 36 H 3.041449 -3.630626 -2.284426 0
M  V30 37 H 1.474973 -1.936951 -1.946136 0
M  V30 38 H 3.559310 -0.583722 -0.150138 0
M  V30 39 H 2.200013 -1.550637 0.466058 0
M  V30 40 H 0.572056 -0.139206 -0.280039 0
M  V30 41 H 3.283886 2.467507 -0.377485 0
M  V30 42 H 3.567584 4.101569 1.358526 0
M  V30 43 H 0.593411 2.188764 3.664476 0
M  V30 44 H -0.847923 0.612576 1.576492 0
M  V30 45 H -6.107199 -1.423959 -1.329271 0
M  V30 46 H -7.575160 -0.126919 0.079819 0
M  V30 47 H -7.136217 0.227691 2.426209 0
M  V30 48 H -4.167007 -4.101620 2.750510 0
M  V30 49 H -1.974678 -4.919968 3.677727 0
M  V30 50 H 1.111304 -3.931586 4.049176 0
M  V30 51 H 0.265594 -4.027538 4.618392 0
M  V30 52 H 1.927514 1.940494 -1.800826 0
M  V30 53 H 0.409535 1.132618 -2.130329 0
M  V30 54 H 1.344901 -0.280695 -3.615640 0
M  V30 55 H 2.657515 2.176758 -3.633971 0
M  V30 56 H 2.415464 1.107355 -4.895661 0
M  V30 57 H 3.302168 -1.484638 -3.544470 0
M  V30 58 H 4.443317 0.619340 -2.584840 0
M  V30 END ATOM
M  V30 BEGIN BOND
M  V30 1 1 1 2
M  V30 2 1 2 3
M  V30 3 1 3 4
M  V30 4 1 4 5
M  V30 5 2 5 6
M  V30 6 1 6 7
M  V30 7 2 7 8
M  V30 8 1 8 9
M  V30 9 2 9 10
M  V30 10 1 10 11
M  V30 11 1 11 12
M  V30 12 2 12 13
M  V30 13 1 12 14
M  V30 14 2 14 15
M  V30 15 1 15 16
M  V30 16 1 16 17
M  V30 17 2 17 18
M  V30 18 1 18 19
M  V30 19 1 18 20
M  V30 20 2 20 21
M  V30 21 1 21 22
M  V30 22 2 22 23
M  V30 23 1 23 24
M  V30 24 2 16 25
M  V30 25 1 25 26
M  V30 26 2 26 27
M  V30 27 1 27 28
M  V30 28 1 4 29
M  V30 29 1 29 30
M  V30 30 1 30 31
M  V30 31 1 30 32
M  V30 32 1 32 33
M  V30 33 1 32 2
M  V30 34 1 10 5
M  V30 35 1 27 14
M  V30 36 1 23 17
M  V30 37 1 1 34
M  V30 38 1 1 35
M  V30 39 1 1 36
M  V30 40 1 2 37 CFG=3
M  V30 41 1 3 38
M  V30 42 1 3 39
M  V30 43 1 4 40 CFG=1
M  V30 44 1 6 41
M  V30 45 1 7 42
M  V30 46 1 9 43
M  V30 47 1 11 44
M  V30 48 1 20 45
M  V30 49 1 21 46
M  V30 50 1 22 47
M  V30 51 1 25 48
M  V30 52 1 26 49
M  V30 53 1 28 50
M  V30 54 1 28 51
M  V30 55 1 29 52
M  V30 56 1 29 53
M  V30 57 1 30 54 CFG=3
M  V30 58 1 31 55
M  V30 59 1 31 56
M  V30 60 1 32 57 CFG=3
M  V30 61 1 33 58
M  V30 END BOND
M  V30 END CTAB
M  END
>  <Dataset>  (315) 
ChEMBL_Kinases

>  <Ligand_Instance>  (315) 
nan

>  <PDB_ID>  (315) 
nan

>  <Standardized_SMILES>  (315) 
C[C@H]1C[C@@H](c2ccncc2NC(=O)c2nc(-c3c(F)cccc3F)ccc2N)C[C@@H](N)[C@H]1O

>  <Name>  (315) 
nan

>  <Pocket>  (315) 
nan

>  <ATP_Site>  (315) 
nan

>  <Peripheral>  (315) 
nan

>  <Num_H_Atoms_ProtBoundConf>  (315) 
nan

>  <Num_Resolved_Atoms>  (315) 
nan

>  <Num_Not_Resolved_Atoms>  (315) 
nan

$$$$
CHEMBL3651990
     RDKit          3D

  0  0  0  0  0  0  0  0  0  0999 V3000
M  V30 BEGIN CTAB
M  V30 COUNTS 58 61 0 0 0
M  V30 BEGIN ATOM
M  V30 1 C 2.412849 -3.762154 -0.950202 0
M  V30 2 C 2.893451 -2.354435 -1.333375 0 CFG=2
M  V30 3 C 3.243710 -1.567055 -0.136054 0
M  V30 4 C 2.763824 -0.158584 -0.060247 0 CFG=2
M  V30 5 C 2.870319 0.415777 1.290996 0
M  V30 6 C 3.997899 1.074128 1.750289 0
M  V30 7 C 4.160277 1.618517 3.005266 0
M  V30 8 N 3.124242 1.500044 3.869345 0
M  V30 9 C 1.998839 0.861301 3.458638 0
M  V30 10 C 1.854121 0.314797 2.178048 0
M  V30 11 N 0.615024 -0.290955 1.961687 0
M  V30 12 C 0.125731 -1.644745 2.119754 0
M  V30 13 O 0.804286 -2.610361 2.514465 0
M  V30 14 C -1.291845 -1.755649 1.752241 0
M  V30 15 N -2.112748 -0.716637 1.453783 0
M  V30 16 C -3.408163 -0.915618 1.159899 0
M  V30 17 C -4.186998 0.282720 0.892350 0
M  V30 18 C -4.460326 1.018408 -0.235503 0
M  V30 19 F -3.866353 0.485009 -1.322046 0
M  V30 20 C -5.253132 2.137933 -0.147496 0
M  V30 21 C -5.816046 2.594761 1.032896 0
M  V30 22 C -5.531943 1.840548 2.169065 0
M  V30 23 C -4.730781 0.702903 2.105434 0
M  V30 24 F -4.597501 0.134393 3.350324 0
M  V30 25 C -4.042805 -2.136950 1.123359 0
M  V30 26 C -3.170885 -3.189473 1.435580 0
M  V30 27 C -1.814194 -3.036964 1.748972 0
M  V30 28 N -1.094609 -4.235421 2.034116 0
M  V30 29 C 1.482818 0.048037 -0.777135 0
M  V30 30 C 1.820205 -0.257769 -2.247022 0 CFG=2
M  V30 31 N 0.711243 0.150173 -3.080529 0
M  V30 32 C 1.983121 -1.731170 -2.328477 0 CFG=1
M  V30 33 O 2.329167 -2.085074 -3.653090 0
M  V30 34 H 1.461253 -4.022999 -1.446072 0
M  V30 35 H 2.331787 -3.855736 0.170316 0
M  V30 36 H 3.130867 -4.549141 -1.257073 0
M  V30 37 H 3.858630 -2.527332 -1.905527 0
M  V30 38 H 4.357583 -1.621385 0.068231 0
M  V30 39 H 2.818098 -2.109872 0.758865 0
M  V30 40 H 3.523868 0.431380 -0.667540 0
M  V30 41 H 4.846169 1.178025 1.056542 0
M  V30 42 H 5.095194 2.121243 3.270250 0
M  V30 43 H 1.215451 0.815532 4.223724 0
M  V30 44 H 0.020515 0.501252 1.623232 0
M  V30 45 H -5.411042 2.653200 -1.100992 0
M  V30 46 H -6.429229 3.488342 1.013871 0
M  V30 47 H -5.997225 2.240332 3.065176 0
M  V30 48 H -5.062501 -2.321843 0.892263 0
M  V30 49 H -3.605084 -4.187638 1.427415 0
M  V30 50 H -0.286810 -4.320600 1.377763 0
M  V30 51 H -0.276567 -4.310244 1.360521 0
M  V30 52 H 1.200264 1.129819 -0.811846 0
M  V30 53 H 0.657995 -0.621059 -0.531948 0
M  V30 54 H 2.761969 0.297475 -2.472184 0
M  V30 55 H 0.313485 1.083096 -2.838454 0
M  V30 56 H 0.923322 0.045381 -4.095752 0
M  V30 57 H 0.954683 -2.175048 -2.185271 0
M  V30 58 H 1.529135 -2.130468 -4.243577 0
M  V30 END ATOM
M  V30 BEGIN BOND
M  V30 1 1 1 2
M  V30 2 1 2 3
M  V30 3 1 3 4
M  V30 4 1 4 5
M  V30 5 2 5 6
M  V30 6 1 6 7
M  V30 7 2 7 8
M  V30 8 1 8 9
M  V30 9 2 9 10
M  V30 10 1 10 11
M  V30 11 1 11 12
M  V30 12 2 12 13
M  V30 13 1 12 14
M  V30 14 2 14 15
M  V30 15 1 15 16
M  V30 16 1 16 17
M  V30 17 2 17 18
M  V30 18 1 18 19
M  V30 19 1 18 20
M  V30 20 2 20 21
M  V30 21 1 21 22
M  V30 22 2 22 23
M  V30 23 1 23 24
M  V30 24 2 16 25
M  V30 25 1 25 26
M  V30 26 2 26 27
M  V30 27 1 27 28
M  V30 28 1 4 29
M  V30 29 1 29 30
M  V30 30 1 30 31
M  V30 31 1 30 32
M  V30 32 1 32 33
M  V30 33 1 32 2
M  V30 34 1 10 5
M  V30 35 1 27 14
M  V30 36 1 23 17
M  V30 37 1 1 34
M  V30 38 1 1 35
M  V30 39 1 1 36
M  V30 40 1 2 37 CFG=3
M  V30 41 1 3 38
M  V30 42 1 3 39
M  V30 43 1 4 40 CFG=3
M  V30 44 1 6 41
M  V30 45 1 7 42
M  V30 46 1 9 43
M  V30 47 1 11 44
M  V30 48 1 20 45
M  V30 49 1 21 46
M  V30 50 1 22 47
M  V30 51 1 25 48
M  V30 52 1 26 49
M  V30 53 1 28 50
M  V30 54 1 28 51
M  V30 55 1 29 52
M  V30 56 1 29 53
M  V30 57 1 30 54 CFG=3
M  V30 58 1 31 55
M  V30 59 1 31 56
M  V30 60 1 32 57 CFG=1
M  V30 61 1 33 58
M  V30 END BOND
M  V30 END CTAB
M  END
>  <Dataset>  (316) 
ChEMBL_Kinases

>  <Ligand_Instance>  (316) 
nan

>  <PDB_ID>  (316) 
nan

>  <Standardized_SMILES>  (316) 
C[C@@H]1C[C@H](c2ccncc2NC(=O)c2nc(-c3c(F)cccc3F)ccc2N)C[C@H](N)[C@H]1O

>  <Name>  (316) 
nan

>  <Pocket>  (316) 
nan

>  <ATP_Site>  (316) 
nan

>  <Peripheral>  (316) 
nan

>  <Num_H_Atoms_ProtBoundConf>  (316) 
nan

>  <Num_Resolved_Atoms>  (316) 
nan

>  <Num_Not_Resolved_Atoms>  (316) 
nan

$$$$
CHEMBL3651991
     RDKit          3D

  0  0  0  0  0  0  0  0  0  0999 V3000
M  V30 BEGIN CTAB
M  V30 COUNTS 58 61 0 0 0
M  V30 BEGIN ATOM
M  V30 1 C 0.421523 2.523382 3.088885 0
M  V30 2 C -0.209235 2.045413 1.774812 0 CFG=2
M  V30 3 C 0.942078 1.520803 0.950163 0
M  V30 4 C 0.573384 1.274967 -0.501887 0 CFG=2
M  V30 5 C 1.830830 0.838139 -1.143171 0
M  V30 6 C 2.590144 1.876322 -1.653046 0
M  V30 7 C 3.810344 1.684980 -2.304055 0
M  V30 8 N 4.251860 0.418235 -2.430707 0
M  V30 9 C 3.501136 -0.568760 -1.929851 0
M  V30 10 C 2.302507 -0.443272 -1.284629 0
M  V30 11 N 1.515666 -1.483740 -0.753649 0
M  V30 12 C 1.753819 -2.882545 -0.771130 0
M  V30 13 O 2.791125 -3.332130 -1.318625 0
M  V30 14 C 0.882430 -3.899328 -0.194836 0
M  V30 15 N -0.262677 -3.551981 0.430703 0
M  V30 16 C -1.073825 -4.489826 0.967770 0
M  V30 17 C -2.318790 -4.161135 1.653169 0
M  V30 18 C -3.411260 -4.124271 0.779611 0
M  V30 19 F -3.337359 -4.362822 -0.545672 0
M  V30 20 C -4.678904 -3.833142 1.223204 0
M  V30 21 C -4.892253 -3.567525 2.569908 0
M  V30 22 C -3.806561 -3.604850 3.434272 0
M  V30 23 C -2.540262 -3.895686 2.990186 0
M  V30 24 F -1.414537 -3.959291 3.740455 0
M  V30 25 C -0.766414 -5.822643 0.898213 0
M  V30 26 C 0.409017 -6.217969 0.258969 0
M  V30 27 C 1.234017 -5.227581 -0.290224 0
M  V30 28 N 2.417185 -5.671475 -0.930258 0
M  V30 29 C -0.009384 2.521432 -1.024387 0
M  V30 30 C -0.042727 3.679706 -0.058761 0 CFG=1
M  V30 31 N -0.756834 4.752878 -0.767758 0
M  V30 32 C -0.873997 3.215731 1.132025 0 CFG=1
M  V30 33 O -2.174634 2.894920 0.722142 0
M  V30 34 H -0.231047 3.289145 3.569645 0
M  V30 35 H 1.399746 2.995472 2.938991 0
M  V30 36 H 0.509292 1.703347 3.819138 0
M  V30 37 H -0.900263 1.196123 1.974242 0
M  V30 38 H 1.762083 2.293046 0.977144 0
M  V30 39 H 1.267859 0.585259 1.452657 0
M  V30 40 H -0.192053 0.458999 -0.453008 0
M  V30 41 H 2.341151 2.928028 -1.605877 0
M  V30 42 H 4.413689 2.495608 -2.708150 0
M  V30 43 H 3.930604 -1.540716 -2.075945 0
M  V30 44 H 0.620752 -1.318159 -0.257971 0
M  V30 45 H -5.554145 -3.789620 0.608455 0
M  V30 46 H -5.859886 -3.331147 2.994689 0
M  V30 47 H -3.878089 -3.410343 4.506342 0
M  V30 48 H -1.394109 -6.604797 1.318179 0
M  V30 49 H 0.656837 -7.264622 0.200597 0
M  V30 50 H 3.097267 -5.952772 -0.168388 0
M  V30 51 H 2.460581 -5.663605 -1.982855 0
M  V30 52 H -1.105716 2.320030 -1.245269 0
M  V30 53 H 0.370391 2.915526 -1.978762 0
M  V30 54 H 0.964343 3.988631 0.200555 0
M  V30 55 H -1.674168 4.963430 -0.314964 0
M  V30 56 H -0.181694 5.578411 -0.951282 0
M  V30 57 H -0.958827 4.054797 1.850501 0
M  V30 58 H -2.777399 2.925143 1.506762 0
M  V30 END ATOM
M  V30 BEGIN BOND
M  V30 1 1 1 2
M  V30 2 1 2 3
M  V30 3 1 3 4
M  V30 4 1 4 5
M  V30 5 2 5 6
M  V30 6 1 6 7
M  V30 7 2 7 8
M  V30 8 1 8 9
M  V30 9 2 9 10
M  V30 10 1 10 11
M  V30 11 1 11 12
M  V30 12 2 12 13
M  V30 13 1 12 14
M  V30 14 2 14 15
M  V30 15 1 15 16
M  V30 16 1 16 17
M  V30 17 2 17 18
M  V30 18 1 18 19
M  V30 19 1 18 20
M  V30 20 2 20 21
M  V30 21 1 21 22
M  V30 22 2 22 23
M  V30 23 1 23 24
M  V30 24 2 16 25
M  V30 25 1 25 26
M  V30 26 2 26 27
M  V30 27 1 27 28
M  V30 28 1 4 29
M  V30 29 1 29 30
M  V30 30 1 30 31
M  V30 31 1 30 32
M  V30 32 1 32 33
M  V30 33 1 32 2
M  V30 34 1 10 5
M  V30 35 1 27 14
M  V30 36 1 23 17
M  V30 37 1 1 34
M  V30 38 1 1 35
M  V30 39 1 1 36
M  V30 40 1 2 37 CFG=1
M  V30 41 1 3 38
M  V30 42 1 3 39
M  V30 43 1 4 40 CFG=1
M  V30 44 1 6 41
M  V30 45 1 7 42
M  V30 46 1 9 43
M  V30 47 1 11 44
M  V30 48 1 20 45
M  V30 49 1 21 46
M  V30 50 1 22 47
M  V30 51 1 25 48
M  V30 52 1 26 49
M  V30 53 1 28 50
M  V30 54 1 28 51
M  V30 55 1 29 52
M  V30 56 1 29 53
M  V30 57 1 30 54 CFG=1
M  V30 58 1 31 55
M  V30 59 1 31 56
M  V30 60 1 32 57 CFG=1
M  V30 61 1 33 58
M  V30 END BOND
M  V30 END CTAB
M  END
>  <Dataset>  (317) 
ChEMBL_Kinases

>  <Ligand_Instance>  (317) 
nan

>  <PDB_ID>  (317) 
nan

>  <Standardized_SMILES>  (317) 
C[C@@H]1C[C@H](c2ccncc2NC(=O)c2nc(-c3c(F)cccc3F)ccc2N)C[C@@H](N)[C@H]1O

>  <Name>  (317) 
nan

>  <Pocket>  (317) 
nan

>  <ATP_Site>  (317) 
nan

>  <Peripheral>  (317) 
nan

>  <Num_H_Atoms_ProtBoundConf>  (317) 
nan

>  <Num_Resolved_Atoms>  (317) 
nan

>  <Num_Not_Resolved_Atoms>  (317) 
nan

$$$$
CHEMBL3651992
     RDKit          3D

  0  0  0  0  0  0  0  0  0  0999 V3000
M  V30 BEGIN CTAB
M  V30 COUNTS 58 61 0 0 0
M  V30 BEGIN ATOM
M  V30 1 C 1.952156 -3.103478 -0.918224 0
M  V30 2 C 3.075425 -2.100687 -0.939515 0 CFG=2
M  V30 3 C 2.899483 -0.951867 -0.003993 0
M  V30 4 C 1.926942 0.082265 -0.510393 0 CFG=1
M  V30 5 C 2.004521 1.311227 0.302988 0
M  V30 6 C 2.865505 2.370494 0.104590 0
M  V30 7 C 2.882003 3.489253 0.910381 0
M  V30 8 N 2.051045 3.603265 1.939548 0
M  V30 9 C 1.186181 2.626579 2.203402 0
M  V30 10 C 1.159807 1.502204 1.404606 0
M  V30 11 N 0.198025 0.522612 1.774321 0
M  V30 12 C 0.209930 -0.596914 2.635389 0
M  V30 13 O 1.164773 -1.000020 3.320961 0
M  V30 14 C -1.037541 -1.334794 2.706952 0
M  V30 15 N -2.162089 -1.034891 2.033385 0
M  V30 16 C -3.299989 -1.743104 2.125721 0
M  V30 17 C -4.456940 -1.310124 1.337536 0
M  V30 18 C -4.799850 -1.691696 0.058577 0
M  V30 19 F -3.953457 -2.568318 -0.512278 0
M  V30 20 C -5.942747 -1.163142 -0.513683 0
M  V30 21 C -6.740861 -0.259248 0.183015 0
M  V30 22 C -6.387487 0.115198 1.462568 0
M  V30 23 C -5.247080 -0.414657 2.028491 0
M  V30 24 F -5.015232 0.038595 3.293303 0
M  V30 25 C -3.407014 -2.865299 2.941860 0
M  V30 26 C -2.260201 -3.182050 3.637085 0
M  V30 27 C -1.086064 -2.436244 3.530323 0
M  V30 28 N 0.034779 -2.880380 4.312734 0
M  V30 29 C 2.046940 0.419444 -1.950061 0
M  V30 30 C 2.257426 -0.790798 -2.834368 0 CFG=1
M  V30 31 N 2.637420 -0.314469 -4.152006 0
M  V30 32 C 3.409330 -1.623018 -2.318103 0 CFG=1
M  V30 33 O 4.553837 -0.853214 -2.226932 0
M  V30 34 H 1.660151 -3.232811 0.143727 0
M  V30 35 H 2.346221 -4.100206 -1.247245 0
M  V30 36 H 1.066962 -2.822707 -1.500110 0
M  V30 37 H 3.989793 -2.659918 -0.582769 0
M  V30 38 H 3.889520 -0.535263 0.249291 0
M  V30 39 H 2.480065 -1.362835 0.937421 0
M  V30 40 H 0.889792 -0.336964 -0.329541 0
M  V30 41 H 3.551630 2.314516 -0.713723 0
M  V30 42 H 3.579409 4.298512 0.713494 0
M  V30 43 H 0.526603 2.751004 3.045363 0
M  V30 44 H -0.650292 0.808366 1.220930 0
M  V30 45 H -6.166758 -1.496404 -1.521446 0
M  V30 46 H -7.639798 0.141559 -0.297777 0
M  V30 47 H -7.043223 0.823524 1.964759 0
M  V30 48 H -4.314584 -3.445033 3.026850 0
M  V30 49 H -2.298465 -4.062063 4.295047 0
M  V30 50 H 0.518236 -3.740376 3.974473 0
M  V30 51 H 0.517953 -3.737260 3.977312 0
M  V30 52 H 2.774576 1.205578 -2.212760 0
M  V30 53 H 1.042669 0.831814 -2.263069 0
M  V30 54 H 1.359304 -1.416383 -2.955504 0
M  V30 55 H 3.051103 0.641663 -4.092294 0
M  V30 56 H 1.856275 -0.396012 -4.841443 0
M  V30 57 H 3.575432 -2.458819 -3.023480 0
M  V30 58 H 4.463061 0.085942 -2.448420 0
M  V30 END ATOM
M  V30 BEGIN BOND
M  V30 1 1 1 2
M  V30 2 1 2 3
M  V30 3 1 3 4
M  V30 4 1 4 5
M  V30 5 2 5 6
M  V30 6 1 6 7
M  V30 7 2 7 8
M  V30 8 1 8 9
M  V30 9 2 9 10
M  V30 10 1 10 11
M  V30 11 1 11 12
M  V30 12 2 12 13
M  V30 13 1 12 14
M  V30 14 2 14 15
M  V30 15 1 15 16
M  V30 16 1 16 17
M  V30 17 2 17 18
M  V30 18 1 18 19
M  V30 19 1 18 20
M  V30 20 2 20 21
M  V30 21 1 21 22
M  V30 22 2 22 23
M  V30 23 1 23 24
M  V30 24 2 16 25
M  V30 25 1 25 26
M  V30 26 2 26 27
M  V30 27 1 27 28
M  V30 28 1 4 29
M  V30 29 1 29 30
M  V30 30 1 30 31
M  V30 31 1 30 32
M  V30 32 1 32 33
M  V30 33 1 32 2
M  V30 34 1 10 5
M  V30 35 1 27 14
M  V30 36 1 23 17
M  V30 37 1 1 34
M  V30 38 1 1 35
M  V30 39 1 1 36
M  V30 40 1 2 37 CFG=1
M  V30 41 1 3 38
M  V30 42 1 3 39
M  V30 43 1 4 40 CFG=3
M  V30 44 1 6 41
M  V30 45 1 7 42
M  V30 46 1 9 43
M  V30 47 1 11 44
M  V30 48 1 20 45
M  V30 49 1 21 46
M  V30 50 1 22 47
M  V30 51 1 25 48
M  V30 52 1 26 49
M  V30 53 1 28 50
M  V30 54 1 28 51
M  V30 55 1 29 52
M  V30 56 1 29 53
M  V30 57 1 30 54 CFG=3
M  V30 58 1 31 55
M  V30 59 1 31 56
M  V30 60 1 32 57 CFG=3
M  V30 61 1 33 58
M  V30 END BOND
M  V30 END CTAB
M  END
>  <Dataset>  (318) 
ChEMBL_Kinases

>  <Ligand_Instance>  (318) 
nan

>  <PDB_ID>  (318) 
nan

>  <Standardized_SMILES>  (318) 
C[C@@H]1C[C@@H](c2ccncc2NC(=O)c2nc(-c3c(F)cccc3F)ccc2N)C[C@@H](N)[C@H]1O

>  <Name>  (318) 
nan

>  <Pocket>  (318) 
nan

>  <ATP_Site>  (318) 
nan

>  <Peripheral>  (318) 
nan

>  <Num_H_Atoms_ProtBoundConf>  (318) 
nan

>  <Num_Resolved_Atoms>  (318) 
nan

>  <Num_Not_Resolved_Atoms>  (318) 
nan

$$$$
CHEMBL3652001
     RDKit          3D

  0  0  0  0  0  0  0  0  0  0999 V3000
M  V30 BEGIN CTAB
M  V30 COUNTS 52 55 0 0 0
M  V30 BEGIN ATOM
M  V30 1 N -1.719303 2.627018 -0.928499 0
M  V30 2 C -0.480018 2.410013 -0.276209 0
M  V30 3 C 0.107119 3.449663 0.442112 0
M  V30 4 C 1.309325 3.288149 1.092248 0
M  V30 5 C 1.991960 2.084685 1.063045 0
M  V30 6 C 3.269140 1.804884 1.715068 0
M  V30 7 C 3.411971 1.316328 3.008601 0
M  V30 8 F 2.281027 1.085314 3.709448 0
M  V30 9 C 4.688436 1.093532 3.508285 0
M  V30 10 C 5.839622 1.332425 2.784848 0
M  V30 11 C 5.636873 1.821371 1.494711 0
M  V30 12 C 4.392052 2.058317 0.954897 0
M  V30 13 F 4.366100 2.536144 -0.318696 0
M  V30 14 N 1.405632 1.102548 0.365825 0
M  V30 15 C 0.234825 1.235765 -0.275965 0
M  V30 16 C -0.352168 0.100107 -1.028525 0
M  V30 17 O -1.452177 0.291489 -1.607959 0
M  V30 18 N 0.308219 -1.173507 -1.095679 0
M  V30 19 C -0.503870 -2.031011 -1.881119 0
M  V30 20 C -0.205511 -1.932365 -3.222228 0
M  V30 21 N -0.930713 -2.696554 -4.058706 0
M  V30 22 C -1.898770 -3.510929 -3.568496 0
M  V30 23 C -2.162391 -3.577751 -2.220045 0
M  V30 24 C -1.458983 -2.824763 -1.313042 0
M  V30 25 C -1.781843 -2.984032 0.083742 0
M  V30 26 C -1.221273 -2.481541 1.170022 0
M  V30 27 C -1.592512 -2.673985 2.599833 0
M  V30 28 N -0.938992 -3.820567 3.201441 0
M  V30 29 C -3.100913 -2.702591 2.767260 0
M  V30 30 C -3.784817 -2.970837 1.445072 0
M  V30 31 C -2.914793 -3.821988 0.539939 0
M  V30 32 H -1.939286 2.780372 -1.941465 0
M  V30 33 H -2.532451 2.628308 -0.253504 0
M  V30 34 H -0.331683 4.433637 0.536570 0
M  V30 35 H 1.793195 4.088379 1.664040 0
M  V30 36 H 4.791370 0.709534 4.525739 0
M  V30 37 H 6.824334 1.151675 3.194098 0
M  V30 38 H 6.540911 2.013834 0.913604 0
M  V30 39 H 1.242984 -1.310474 -0.604082 0
M  V30 40 H 0.560439 -1.291000 -3.632655 0
M  V30 41 H -2.388863 -4.054854 -4.349764 0
M  V30 42 H -2.950198 -4.275767 -2.063763 0
M  V30 43 H -0.366482 -1.851581 1.007797 0
M  V30 44 H -1.255202 -1.778176 3.155556 0
M  V30 45 H -1.623295 -4.397535 3.743348 0
M  V30 46 H -0.101362 -3.546812 3.755051 0
M  V30 47 H -3.342690 -3.518830 3.474643 0
M  V30 48 H -3.498002 -1.763737 3.199628 0
M  V30 49 H -4.753100 -3.477300 1.617459 0
M  V30 50 H -3.979276 -2.011980 0.933699 0
M  V30 51 H -3.565061 -4.216708 -0.229264 0
M  V30 52 H -2.505197 -4.642857 1.185721 0
M  V30 END ATOM
M  V30 BEGIN BOND
M  V30 1 1 1 2
M  V30 2 2 2 3
M  V30 3 1 3 4
M  V30 4 2 4 5
M  V30 5 1 5 6
M  V30 6 2 6 7
M  V30 7 1 7 8
M  V30 8 1 7 9
M  V30 9 2 9 10
M  V30 10 1 10 11
M  V30 11 2 11 12
M  V30 12 1 12 13
M  V30 13 1 5 14
M  V30 14 2 14 15
M  V30 15 1 15 16
M  V30 16 2 16 17
M  V30 17 1 16 18
M  V30 18 1 18 19
M  V30 19 2 19 20
M  V30 20 1 20 21
M  V30 21 2 21 22
M  V30 22 1 22 23
M  V30 23 2 23 24
M  V30 24 1 24 25
M  V30 25 2 25 26
M  V30 26 1 26 27
M  V30 27 1 27 28
M  V30 28 1 27 29
M  V30 29 1 29 30
M  V30 30 1 30 31
M  V30 31 1 15 2
M  V30 32 1 24 19
M  V30 33 1 31 25
M  V30 34 1 12 6
M  V30 35 1 1 32
M  V30 36 1 1 33
M  V30 37 1 3 34
M  V30 38 1 4 35
M  V30 39 1 9 36
M  V30 40 1 10 37
M  V30 41 1 11 38
M  V30 42 1 18 39
M  V30 43 1 20 40
M  V30 44 1 22 41
M  V30 45 1 23 42
M  V30 46 1 26 43
M  V30 47 1 27 44
M  V30 48 1 28 45
M  V30 49 1 28 46
M  V30 50 1 29 47
M  V30 51 1 29 48
M  V30 52 1 30 49
M  V30 53 1 30 50
M  V30 54 1 31 51
M  V30 55 1 31 52
M  V30 END BOND
M  V30 END CTAB
M  END
>  <Dataset>  (319) 
ChEMBL_Kinases

>  <Ligand_Instance>  (319) 
nan

>  <PDB_ID>  (319) 
nan

>  <Standardized_SMILES>  (319) 
Nc1ccc(-c2c(F)cccc2F)nc1C(=O)Nc1cnccc1C1=CC(N)CCC1

>  <Name>  (319) 
nan

>  <Pocket>  (319) 
nan

>  <ATP_Site>  (319) 
nan

>  <Peripheral>  (319) 
nan

>  <Num_H_Atoms_ProtBoundConf>  (319) 
nan

>  <Num_Resolved_Atoms>  (319) 
nan

>  <Num_Not_Resolved_Atoms>  (319) 
nan

$$$$
CHEMBL3651993
     RDKit          3D

  0  0  0  0  0  0  0  0  0  0999 V3000
M  V30 BEGIN CTAB
M  V30 COUNTS 52 55 0 0 0
M  V30 BEGIN ATOM
M  V30 1 N 4.396238 -2.490397 0.923024 0
M  V30 2 C 3.333732 -1.683290 1.415971 0 CFG=1
M  V30 3 C 3.222665 -1.780085 2.909621 0
M  V30 4 C 2.079601 -0.981247 3.454982 0
M  V30 5 C 2.020923 0.423262 2.925995 0
M  V30 6 C 2.094963 0.392955 1.437309 0 CFG=1
M  V30 7 C 1.838145 1.665058 0.759836 0
M  V30 8 C 2.834130 2.573274 0.465217 0
M  V30 9 C 2.546240 3.759841 -0.174466 0
M  V30 10 N 1.279826 4.052276 -0.523775 0
M  V30 11 C 0.279973 3.177992 -0.246750 0
M  V30 12 C 0.539391 1.965107 0.401532 0
M  V30 13 N -0.587867 1.129808 0.638291 0
M  V30 14 C -1.548664 0.941252 1.655297 0
M  V30 15 O -1.543969 1.623711 2.711716 0
M  V30 16 C -2.519590 -0.102981 1.353532 0
M  V30 17 C -3.477602 -0.328928 2.308485 0
M  V30 18 C -4.455222 -1.309040 2.115704 0
M  V30 19 C -4.455767 -2.055372 0.954163 0
M  V30 20 F -5.339857 -3.034541 0.635252 0
M  V30 21 C -3.481725 -1.799487 0.023969 0
M  V30 22 C -3.303489 -2.477612 -1.275169 0
M  V30 23 C -2.492739 -3.593397 -1.252864 0
M  V30 24 F -1.877045 -4.071420 -0.122941 0
M  V30 25 C -2.232528 -4.332848 -2.394865 0
M  V30 26 C -2.790713 -3.962500 -3.609117 0
M  V30 27 C -3.598656 -2.843649 -3.610454 0
M  V30 28 C -3.864036 -2.099976 -2.477314 0
M  V30 29 F -4.645061 -1.003126 -2.432585 0
M  V30 30 N -2.581333 -0.858840 0.260640 0
M  V30 31 C 3.454249 -0.206853 1.056153 0
M  V30 32 H 5.278435 -2.005370 0.734722 0
M  V30 33 H 4.085429 -3.059177 0.107918 0
M  V30 34 H 2.372081 -2.002319 0.920458 0
M  V30 35 H 4.201390 -1.532531 3.330690 0
M  V30 36 H 2.981713 -2.859711 3.138094 0
M  V30 37 H 2.258376 -0.877805 4.565420 0
M  V30 38 H 1.130742 -1.509277 3.341406 0
M  V30 39 H 1.045878 0.858593 3.228390 0
M  V30 40 H 2.783939 1.082128 3.393254 0
M  V30 41 H 1.335966 -0.355194 1.098461 0
M  V30 42 H 3.846744 2.329623 0.749429 0
M  V30 43 H 3.375636 4.451115 -0.387286 0
M  V30 44 H -0.707221 3.530661 -0.581424 0
M  V30 45 H -0.533855 0.595095 -0.268220 0
M  V30 46 H -3.503883 0.244349 3.237114 0
M  V30 47 H -5.234352 -1.534106 2.828040 0
M  V30 48 H -1.607657 -5.209836 -2.428967 0
M  V30 49 H -2.651378 -4.464614 -4.540541 0
M  V30 50 H -4.091815 -2.461001 -4.516157 0
M  V30 51 H 4.190912 0.233087 1.757780 0
M  V30 52 H 3.683052 -0.039203 -0.011281 0
M  V30 END ATOM
M  V30 BEGIN BOND
M  V30 1 1 1 2
M  V30 2 1 2 3
M  V30 3 1 3 4
M  V30 4 1 4 5
M  V30 5 1 5 6
M  V30 6 1 6 7
M  V30 7 2 7 8
M  V30 8 1 8 9
M  V30 9 2 9 10
M  V30 10 1 10 11
M  V30 11 2 11 12
M  V30 12 1 12 13
M  V30 13 1 13 14
M  V30 14 2 14 15
M  V30 15 1 14 16
M  V30 16 2 16 17
M  V30 17 1 17 18
M  V30 18 2 18 19
M  V30 19 1 19 20
M  V30 20 1 19 21
M  V30 21 1 21 22
M  V30 22 2 22 23
M  V30 23 1 23 24
M  V30 24 1 23 25
M  V30 25 2 25 26
M  V30 26 1 26 27
M  V30 27 2 27 28
M  V30 28 1 28 29
M  V30 29 2 21 30
M  V30 30 1 6 31
M  V30 31 1 31 2
M  V30 32 1 12 7
M  V30 33 1 30 16
M  V30 34 1 28 22
M  V30 35 1 1 32
M  V30 36 1 1 33
M  V30 37 1 2 34 CFG=3
M  V30 38 1 3 35
M  V30 39 1 3 36
M  V30 40 1 4 37
M  V30 41 1 4 38
M  V30 42 1 5 39
M  V30 43 1 5 40
M  V30 44 1 6 41 CFG=3
M  V30 45 1 8 42
M  V30 46 1 9 43
M  V30 47 1 11 44
M  V30 48 1 13 45
M  V30 49 1 17 46
M  V30 50 1 18 47
M  V30 51 1 25 48
M  V30 52 1 26 49
M  V30 53 1 27 50
M  V30 54 1 31 51
M  V30 55 1 31 52
M  V30 END BOND
M  V30 END CTAB
M  END
>  <Dataset>  (320) 
ChEMBL_Kinases

>  <Ligand_Instance>  (320) 
nan

>  <PDB_ID>  (320) 
nan

>  <Standardized_SMILES>  (320) 
N[C@H]1CCC[C@@H](c2ccncc2NC(=O)c2ccc(F)c(-c3c(F)cccc3F)n2)C1

>  <Name>  (320) 
nan

>  <Pocket>  (320) 
nan

>  <ATP_Site>  (320) 
nan

>  <Peripheral>  (320) 
nan

>  <Num_H_Atoms_ProtBoundConf>  (320) 
nan

>  <Num_Resolved_Atoms>  (320) 
nan

>  <Num_Not_Resolved_Atoms>  (320) 
nan

$$$$
CHEMBL3651994
     RDKit          3D

  0  0  0  0  0  0  0  0  0  0999 V3000
M  V30 BEGIN CTAB
M  V30 COUNTS 54 57 0 0 0
M  V30 BEGIN ATOM
M  V30 1 N 3.314766 -0.472183 4.677255 0
M  V30 2 C 3.021087 0.384569 3.561284 0
M  V30 3 C 3.717044 1.599349 3.485287 0
M  V30 4 C 3.476868 2.470755 2.429482 0
M  V30 5 F 4.147284 3.648816 2.349687 0
M  V30 6 C 2.540111 2.076854 1.491193 0
M  V30 7 C 2.300282 3.006270 0.387225 0
M  V30 8 C 3.151200 2.754763 -0.692587 0
M  V30 9 F 4.093143 1.775695 -0.738542 0
M  V30 10 C 3.072106 3.538589 -1.839656 0
M  V30 11 C 2.140299 4.574671 -1.904997 0
M  V30 12 C 1.313617 4.801916 -0.827892 0
M  V30 13 C 1.390190 4.030882 0.302616 0
M  V30 14 F 0.622817 4.171019 1.418612 0
M  V30 15 N 1.878332 0.895130 1.585763 0
M  V30 16 C 2.096983 0.036632 2.601597 0
M  V30 17 C 1.381048 -1.217616 2.683647 0
M  V30 18 O 1.692834 -1.908399 3.685032 0
M  V30 19 N 0.420953 -1.685227 1.775523 0
M  V30 20 C -0.336623 -2.881754 1.753314 0
M  V30 21 C -0.216402 -3.822524 2.752618 0
M  V30 22 N -0.905437 -4.999954 2.821972 0
M  V30 23 C -1.795380 -5.284777 1.821396 0
M  V30 24 C -1.912737 -4.324452 0.808754 0
M  V30 25 C -1.209926 -3.117715 0.731725 0
M  V30 26 C -1.434704 -2.205887 -0.385192 0 CFG=2
M  V30 27 C -2.598848 -1.255606 -0.206315 0
M  V30 28 C -3.898889 -2.010370 -0.033510 0
M  V30 29 C -4.206410 -2.722525 -1.310067 0
M  V30 30 C -3.042313 -2.718290 -2.258903 0 CFG=2
M  V30 31 N -3.287969 -3.819116 -3.199598 0
M  V30 32 C -1.711115 -3.015437 -1.630248 0
M  V30 33 H 2.545738 -0.167348 5.288209 0
M  V30 34 H 4.082355 -1.183358 4.809043 0
M  V30 35 H 4.437553 1.852469 4.248766 0
M  V30 36 H 3.703141 3.386043 -2.696153 0
M  V30 37 H 2.060346 5.199548 -2.789825 0
M  V30 38 H 0.576549 5.588246 -0.825073 0
M  V30 39 H 0.303680 -0.975634 1.031283 0
M  V30 40 H 0.433835 -3.753143 3.607196 0
M  V30 41 H -2.346202 -6.212643 1.865369 0
M  V30 42 H -2.646728 -4.670332 0.099337 0
M  V30 43 H -0.530177 -1.597945 -0.628475 0
M  V30 44 H -2.428507 -0.507712 0.576138 0
M  V30 45 H -2.678714 -0.686953 -1.156312 0
M  V30 46 H -3.810759 -2.699236 0.835989 0
M  V30 47 H -4.658437 -1.244994 0.234345 0
M  V30 48 H -5.056854 -2.190787 -1.822931 0
M  V30 49 H -4.598841 -3.747755 -1.137688 0
M  V30 50 H -3.041510 -1.775300 -2.844400 0
M  V30 51 H -4.324147 -3.820308 -3.383806 0
M  V30 52 H -2.748550 -3.716100 -4.085697 0
M  V30 53 H -0.953481 -2.792971 -2.431667 0
M  V30 54 H -1.643543 -4.111317 -1.481425 0
M  V30 END ATOM
M  V30 BEGIN BOND
M  V30 1 1 1 2
M  V30 2 2 2 3
M  V30 3 1 3 4
M  V30 4 1 4 5
M  V30 5 2 4 6
M  V30 6 1 6 7
M  V30 7 2 7 8
M  V30 8 1 8 9
M  V30 9 1 8 10
M  V30 10 2 10 11
M  V30 11 1 11 12
M  V30 12 2 12 13
M  V30 13 1 13 14
M  V30 14 1 6 15
M  V30 15 2 15 16
M  V30 16 1 16 17
M  V30 17 2 17 18
M  V30 18 1 17 19
M  V30 19 1 19 20
M  V30 20 2 20 21
M  V30 21 1 21 22
M  V30 22 2 22 23
M  V30 23 1 23 24
M  V30 24 2 24 25
M  V30 25 1 25 26
M  V30 26 1 26 27
M  V30 27 1 27 28
M  V30 28 1 28 29
M  V30 29 1 29 30
M  V30 30 1 30 31
M  V30 31 1 30 32
M  V30 32 1 16 2
M  V30 33 1 25 20
M  V30 34 1 32 26
M  V30 35 1 13 7
M  V30 36 1 1 33
M  V30 37 1 1 34
M  V30 38 1 3 35
M  V30 39 1 10 36
M  V30 40 1 11 37
M  V30 41 1 12 38
M  V30 42 1 19 39
M  V30 43 1 21 40
M  V30 44 1 23 41
M  V30 45 1 24 42
M  V30 46 1 26 43 CFG=3
M  V30 47 1 27 44
M  V30 48 1 27 45
M  V30 49 1 28 46
M  V30 50 1 28 47
M  V30 51 1 29 48
M  V30 52 1 29 49
M  V30 53 1 30 50 CFG=3
M  V30 54 1 31 51
M  V30 55 1 31 52
M  V30 56 1 32 53
M  V30 57 1 32 54
M  V30 END BOND
M  V30 END CTAB
M  END
>  <Dataset>  (321) 
ChEMBL_Kinases

>  <Ligand_Instance>  (321) 
nan

>  <PDB_ID>  (321) 
nan

>  <Standardized_SMILES>  (321) 
Nc1cc(F)c(-c2c(F)cccc2F)nc1C(=O)Nc1cnccc1[C@@H]1CCC[C@H](N)C1

>  <Name>  (321) 
nan

>  <Pocket>  (321) 
nan

>  <ATP_Site>  (321) 
nan

>  <Peripheral>  (321) 
nan

>  <Num_H_Atoms_ProtBoundConf>  (321) 
nan

>  <Num_Resolved_Atoms>  (321) 
nan

>  <Num_Not_Resolved_Atoms>  (321) 
nan

$$$$
CHEMBL3652632
     RDKit          3D

  0  0  0  0  0  0  0  0  0  0999 V3000
M  V30 BEGIN CTAB
M  V30 COUNTS 43 45 0 0 0
M  V30 BEGIN ATOM
M  V30 1 C -0.546447 -4.328284 3.030930 0
M  V30 2 N 0.417991 -3.255210 2.887017 0
M  V30 3 N 1.588330 -3.216655 3.525601 0
M  V30 4 C 2.256759 -2.095728 3.177021 0
M  V30 5 C 1.410572 -1.439749 2.270198 0
M  V30 6 N 1.795040 -0.206051 1.701133 0
M  V30 7 C 2.545650 0.127409 0.542479 0
M  V30 8 O 3.013238 -0.751858 -0.207278 0
M  V30 9 C 2.744874 1.538698 0.271501 0
M  V30 10 N 2.254762 2.523616 1.025510 0
M  V30 11 C 2.460059 3.817672 0.747291 0
M  V30 12 Br 1.689664 5.135919 1.916091 0
M  V30 13 C 3.214767 4.195953 -0.371896 0
M  V30 14 N 3.717833 3.207203 -1.145010 0
M  V30 15 C 3.482275 1.917369 -0.821449 0
M  V30 16 N 4.021598 0.898276 -1.648298 0
M  V30 17 C 0.262690 -2.171049 2.094568 0
M  V30 18 N -0.848592 -1.871490 1.301335 0
M  V30 19 C -1.149632 -2.467376 0.046885 0
M  V30 20 C -2.441466 -2.055473 -0.560724 0
M  V30 21 C -2.997509 -0.735763 -0.135067 0
M  V30 22 C -2.065465 0.070455 0.757995 0 CFG=2
M  V30 23 N -0.974921 0.520968 -0.040250 0
M  V30 24 C -1.697560 -0.880400 1.875882 0
M  V30 25 H -0.376548 -4.896645 3.978419 0
M  V30 26 H -1.590691 -3.926065 3.071182 0
M  V30 27 H -0.469548 -5.042041 2.172406 0
M  V30 28 H 3.237119 -1.781651 3.529381 0
M  V30 29 H 1.400207 0.545134 2.334891 0
M  V30 30 H 3.314829 5.274351 -0.497465 0
M  V30 31 H 3.925640 0.465439 -2.604162 0
M  V30 32 H 4.806148 0.312426 -1.252993 0
M  V30 33 H -0.297453 -2.428435 -0.661945 0
M  V30 34 H -1.239502 -3.576848 0.259507 0
M  V30 35 H -3.256406 -2.814260 -0.370120 0
M  V30 36 H -2.326249 -2.028171 -1.665367 0
M  V30 37 H -3.954869 -0.834864 0.433008 0
M  V30 38 H -3.229807 -0.058162 -0.997007 0
M  V30 39 H -2.650240 0.939694 1.132853 0
M  V30 40 H -1.315035 0.893931 -0.940834 0
M  V30 41 H -0.215528 -0.116734 -0.233489 0
M  V30 42 H -2.634151 -1.429666 2.195426 0
M  V30 43 H -1.307459 -0.355269 2.763635 0
M  V30 END ATOM
M  V30 BEGIN BOND
M  V30 1 1 1 2
M  V30 2 1 2 3
M  V30 3 2 3 4
M  V30 4 1 4 5
M  V30 5 1 5 6
M  V30 6 1 6 7
M  V30 7 2 7 8
M  V30 8 1 7 9
M  V30 9 2 9 10
M  V30 10 1 10 11
M  V30 11 1 11 12
M  V30 12 2 11 13
M  V30 13 1 13 14
M  V30 14 2 14 15
M  V30 15 1 15 16
M  V30 16 2 5 17
M  V30 17 1 17 18
M  V30 18 1 18 19
M  V30 19 1 19 20
M  V30 20 1 20 21
M  V30 21 1 21 22
M  V30 22 1 22 23
M  V30 23 1 22 24
M  V30 24 1 17 2
M  V30 25 1 24 18
M  V30 26 1 15 9
M  V30 27 1 1 25
M  V30 28 1 1 26
M  V30 29 1 1 27
M  V30 30 1 4 28
M  V30 31 1 6 29
M  V30 32 1 13 30
M  V30 33 1 16 31
M  V30 34 1 16 32
M  V30 35 1 19 33
M  V30 36 1 19 34
M  V30 37 1 20 35
M  V30 38 1 20 36
M  V30 39 1 21 37
M  V30 40 1 21 38
M  V30 41 1 22 39 CFG=1
M  V30 42 1 23 40
M  V30 43 1 23 41
M  V30 44 1 24 42
M  V30 45 1 24 43
M  V30 END BOND
M  V30 END CTAB
M  END
>  <Dataset>  (322) 
ChEMBL_Kinases

>  <Ligand_Instance>  (322) 
nan

>  <PDB_ID>  (322) 
nan

>  <Standardized_SMILES>  (322) 
Cn1ncc(NC(=O)c2nc(Br)cnc2N)c1N1CCC[C@H](N)C1

>  <Name>  (322) 
nan

>  <Pocket>  (322) 
nan

>  <ATP_Site>  (322) 
nan

>  <Peripheral>  (322) 
nan

>  <Num_H_Atoms_ProtBoundConf>  (322) 
nan

>  <Num_Resolved_Atoms>  (322) 
nan

>  <Num_Not_Resolved_Atoms>  (322) 
nan

$$$$
CHEMBL3651995
     RDKit          3D

  0  0  0  0  0  0  0  0  0  0999 V3000
M  V30 BEGIN CTAB
M  V30 COUNTS 60 63 0 0 0
M  V30 BEGIN ATOM
M  V30 1 C 4.641228 -3.866123 2.779496 0
M  V30 2 C 3.461202 -3.206508 2.174288 0
M  V30 3 O 2.265549 -3.546709 2.009612 0
M  V30 4 O 3.764981 -1.922131 1.683950 0
M  V30 5 C 2.760109 -1.136893 1.069051 0 CFG=1
M  V30 6 C 2.557778 0.088375 1.933200 0
M  V30 7 C 1.349184 0.821681 1.399559 0
M  V30 8 C 1.365225 0.877524 -0.114418 0 CFG=1
M  V30 9 C 0.755076 2.176941 -0.498269 0
M  V30 10 C 1.620090 3.235969 -0.677553 0
M  V30 11 C 1.213129 4.504236 -1.039634 0
M  V30 12 N -0.128676 4.689452 -1.223571 0
M  V30 13 C -0.951119 3.641609 -1.042602 0
M  V30 14 C -0.594528 2.363428 -0.683039 0
M  V30 15 N -1.478534 1.275419 -0.495256 0
M  V30 16 C -2.874298 1.192908 -0.624174 0
M  V30 17 O -3.507031 2.226881 -0.960544 0
M  V30 18 C -3.670529 0.029704 -0.407577 0
M  V30 19 N -3.027916 -1.106648 -0.065374 0
M  V30 20 C -3.622200 -2.289175 0.170360 0
M  V30 21 C -2.783818 -3.429904 0.531016 0
M  V30 22 C -2.247868 -4.274741 -0.449955 0
M  V30 23 F -2.561423 -3.957123 -1.731199 0
M  V30 24 C -1.468590 -5.333045 -0.093524 0
M  V30 25 C -1.208958 -5.569844 1.238841 0
M  V30 26 C -1.700633 -4.781333 2.280750 0
M  V30 27 C -2.487161 -3.720428 1.844355 0
M  V30 28 F -2.974539 -2.939588 2.864328 0
M  V30 29 C -5.017888 -2.315686 0.044163 0
M  V30 30 C -5.677756 -1.155035 -0.305591 0
M  V30 31 C -5.040091 0.060172 -0.545401 0
M  V30 32 N -5.749048 1.207735 -0.896485 0
M  V30 33 C 2.816909 0.759597 -0.570996 0
M  V30 34 C 3.163096 -0.717451 -0.325815 0 CFG=1
M  V30 35 N 4.544921 -1.008636 -0.547227 0
M  V30 36 H 4.439547 -4.964237 2.871582 0
M  V30 37 H 5.535762 -3.724610 2.141664 0
M  V30 38 H 4.816042 -3.443394 3.810866 0
M  V30 39 H 1.784136 -1.683846 1.057437 0
M  V30 40 H 3.449264 0.739020 1.904457 0
M  V30 41 H 2.357137 -0.229444 2.994956 0
M  V30 42 H 0.400268 0.389443 1.776397 0
M  V30 43 H 1.406360 1.852629 1.803881 0
M  V30 44 H 0.870497 0.000022 -0.575034 0
M  V30 45 H 2.681529 3.180126 -0.554840 0
M  V30 46 H 1.871709 5.349515 -1.186393 0
M  V30 47 H -1.985420 3.887127 -1.210138 0
M  V30 48 H -1.084721 0.351140 -0.211305 0
M  V30 49 H -1.070794 -5.965595 -0.878435 0
M  V30 50 H -0.586321 -6.420668 1.472866 0
M  V30 51 H -1.496135 -4.969891 3.323979 0
M  V30 52 H -5.493084 -3.255489 0.231107 0
M  V30 53 H -6.761809 -1.230449 -0.389479 0
M  V30 54 H -5.642849 1.863399 -0.094251 0
M  V30 55 H -5.677136 1.906760 -0.121920 0
M  V30 56 H 3.503698 1.410260 -0.018810 0
M  V30 57 H 2.816213 0.940424 -1.662647 0
M  V30 58 H 2.544705 -1.303223 -1.037002 0
M  V30 59 H 5.037739 -1.179289 0.364143 0
M  V30 60 H 4.734465 -1.719328 -1.272978 0
M  V30 END ATOM
M  V30 BEGIN BOND
M  V30 1 1 1 2
M  V30 2 2 2 3
M  V30 3 1 2 4
M  V30 4 1 4 5
M  V30 5 1 5 6
M  V30 6 1 6 7
M  V30 7 1 7 8
M  V30 8 1 8 9
M  V30 9 2 9 10
M  V30 10 1 10 11
M  V30 11 2 11 12
M  V30 12 1 12 13
M  V30 13 2 13 14
M  V30 14 1 14 15
M  V30 15 1 15 16
M  V30 16 2 16 17
M  V30 17 1 16 18
M  V30 18 2 18 19
M  V30 19 1 19 20
M  V30 20 1 20 21
M  V30 21 2 21 22
M  V30 22 1 22 23
M  V30 23 1 22 24
M  V30 24 2 24 25
M  V30 25 1 25 26
M  V30 26 2 26 27
M  V30 27 1 27 28
M  V30 28 2 20 29
M  V30 29 1 29 30
M  V30 30 2 30 31
M  V30 31 1 31 32
M  V30 32 1 8 33
M  V30 33 1 33 34
M  V30 34 1 34 35
M  V30 35 1 34 5
M  V30 36 1 14 9
M  V30 37 1 31 18
M  V30 38 1 27 21
M  V30 39 1 1 36
M  V30 40 1 1 37
M  V30 41 1 1 38
M  V30 42 1 5 39 CFG=3
M  V30 43 1 6 40
M  V30 44 1 6 41
M  V30 45 1 7 42
M  V30 46 1 7 43
M  V30 47 1 8 44 CFG=3
M  V30 48 1 10 45
M  V30 49 1 11 46
M  V30 50 1 13 47
M  V30 51 1 15 48
M  V30 52 1 24 49
M  V30 53 1 25 50
M  V30 54 1 26 51
M  V30 55 1 29 52
M  V30 56 1 30 53
M  V30 57 1 32 54
M  V30 58 1 32 55
M  V30 59 1 33 56
M  V30 60 1 33 57
M  V30 61 1 34 58 CFG=3
M  V30 62 1 35 59
M  V30 63 1 35 60
M  V30 END BOND
M  V30 END CTAB
M  END
>  <Dataset>  (323) 
ChEMBL_Kinases

>  <Ligand_Instance>  (323) 
nan

>  <PDB_ID>  (323) 
nan

>  <Standardized_SMILES>  (323) 
CC(=O)O[C@H]1CC[C@@H](c2ccncc2NC(=O)c2nc(-c3c(F)cccc3F)ccc2N)C[C@H]1N

>  <Name>  (323) 
nan

>  <Pocket>  (323) 
nan

>  <ATP_Site>  (323) 
nan

>  <Peripheral>  (323) 
nan

>  <Num_H_Atoms_ProtBoundConf>  (323) 
nan

>  <Num_Resolved_Atoms>  (323) 
nan

>  <Num_Not_Resolved_Atoms>  (323) 
nan

$$$$
CHEMBL3651996
     RDKit          3D

  0  0  0  0  0  0  0  0  0  0999 V3000
M  V30 BEGIN CTAB
M  V30 COUNTS 55 58 0 0 0
M  V30 BEGIN ATOM
M  V30 1 N 1.366892 -1.508069 4.072717 0
M  V30 2 C 1.409517 -0.356798 3.243162 0
M  V30 3 C 2.485631 0.510165 3.363850 0
M  V30 4 C 2.589349 1.645797 2.589921 0
M  V30 5 C 1.619568 1.976045 1.651123 0
M  V30 6 C 1.613157 3.137561 0.779304 0
M  V30 7 C 1.037101 4.342223 1.124273 0
M  V30 8 F 0.439091 4.472362 2.336820 0
M  V30 9 C 1.056282 5.427703 0.254144 0
M  V30 10 C 1.681664 5.223458 -0.961853 0
M  V30 11 C 2.278078 4.026247 -1.357027 0
M  V30 12 C 2.232557 2.972736 -0.453812 0
M  V30 13 F 2.823861 1.831663 -0.882057 0
M  V30 14 N 0.583843 1.108338 1.559848 0
M  V30 15 C 0.477482 0.014948 2.300385 0
M  V30 16 C -0.680132 -0.896336 2.154901 0
M  V30 17 O -0.723563 -1.935226 2.899080 0
M  V30 18 N -1.778465 -0.705396 1.229568 0
M  V30 19 C -2.645820 -1.795897 1.417836 0
M  V30 20 C -3.557926 -1.567021 2.426541 0
M  V30 21 N -4.464661 -2.501837 2.752389 0
M  V30 22 C -4.482150 -3.649506 2.100713 0
M  V30 23 C -3.576032 -3.850222 1.113548 0
M  V30 24 C -2.583757 -2.942871 0.689123 0
M  V30 25 C -1.654431 -3.209909 -0.383749 0 CFG=2
M  V30 26 C -0.300382 -3.731853 -0.108569 0
M  V30 27 C 0.608897 -3.830833 -1.285575 0
M  V30 28 C 0.207869 -2.994170 -2.472307 0 CFG=2
M  V30 29 O 1.323413 -2.817671 -3.276825 0
M  V30 30 C -0.387284 -1.720273 -1.952283 0 CFG=2
M  V30 31 N 0.468803 -1.092971 -1.000204 0
M  V30 32 C -1.741439 -2.108100 -1.410795 0
M  V30 33 H 1.750728 -2.454352 3.784978 0
M  V30 34 H 0.987987 -1.647690 5.037242 0
M  V30 35 H 3.281900 0.305823 4.084581 0
M  V30 36 H 3.417905 2.335464 2.666674 0
M  V30 37 H 0.611673 6.378604 0.504100 0
M  V30 38 H 1.683034 6.088183 -1.624990 0
M  V30 39 H 2.719055 4.041288 -2.336692 0
M  V30 40 H -1.585043 0.201069 0.701675 0
M  V30 41 H -3.631609 -0.655800 3.027995 0
M  V30 42 H -5.209355 -4.405011 2.358732 0
M  V30 43 H -3.635626 -4.826740 0.602018 0
M  V30 44 H -2.161768 -4.080405 -0.936429 0
M  V30 45 H -0.392227 -4.788901 0.268807 0
M  V30 46 H 0.215008 -3.233749 0.706488 0
M  V30 47 H 1.662744 -3.570986 -1.070041 0
M  V30 48 H 0.676486 -4.873333 -1.686097 0
M  V30 49 H -0.601332 -3.483206 -3.087190 0
M  V30 50 H 1.816557 -3.682359 -3.242474 0
M  V30 51 H -0.606190 -0.983416 -2.762602 0
M  V30 52 H 1.471030 -1.380385 -1.062639 0
M  V30 53 H 0.351880 -0.056195 -0.975062 0
M  V30 54 H -2.329878 -2.413300 -2.331281 0
M  V30 55 H -2.274890 -1.229827 -1.034733 0
M  V30 END ATOM
M  V30 BEGIN BOND
M  V30 1 1 1 2
M  V30 2 2 2 3
M  V30 3 1 3 4
M  V30 4 2 4 5
M  V30 5 1 5 6
M  V30 6 2 6 7
M  V30 7 1 7 8
M  V30 8 1 7 9
M  V30 9 2 9 10
M  V30 10 1 10 11
M  V30 11 2 11 12
M  V30 12 1 12 13
M  V30 13 1 5 14
M  V30 14 2 14 15
M  V30 15 1 15 16
M  V30 16 2 16 17
M  V30 17 1 16 18
M  V30 18 1 18 19
M  V30 19 2 19 20
M  V30 20 1 20 21
M  V30 21 2 21 22
M  V30 22 1 22 23
M  V30 23 2 23 24
M  V30 24 1 24 25
M  V30 25 1 25 26
M  V30 26 1 26 27
M  V30 27 1 27 28
M  V30 28 1 28 29
M  V30 29 1 28 30
M  V30 30 1 30 31
M  V30 31 1 30 32
M  V30 32 1 15 2
M  V30 33 1 24 19
M  V30 34 1 32 25
M  V30 35 1 12 6
M  V30 36 1 1 33
M  V30 37 1 1 34
M  V30 38 1 3 35
M  V30 39 1 4 36
M  V30 40 1 9 37
M  V30 41 1 10 38
M  V30 42 1 11 39
M  V30 43 1 18 40
M  V30 44 1 20 41
M  V30 45 1 22 42
M  V30 46 1 23 43
M  V30 47 1 25 44 CFG=3
M  V30 48 1 26 45
M  V30 49 1 26 46
M  V30 50 1 27 47
M  V30 51 1 27 48
M  V30 52 1 28 49 CFG=3
M  V30 53 1 29 50
M  V30 54 1 30 51 CFG=3
M  V30 55 1 31 52
M  V30 56 1 31 53
M  V30 57 1 32 54
M  V30 58 1 32 55
M  V30 END BOND
M  V30 END CTAB
M  END
>  <Dataset>  (324) 
ChEMBL_Kinases

>  <Ligand_Instance>  (324) 
nan

>  <PDB_ID>  (324) 
nan

>  <Standardized_SMILES>  (324) 
Nc1ccc(-c2c(F)cccc2F)nc1C(=O)Nc1cnccc1[C@@H]1CC[C@H](O)[C@H](N)C1

>  <Name>  (324) 
nan

>  <Pocket>  (324) 
nan

>  <ATP_Site>  (324) 
nan

>  <Peripheral>  (324) 
nan

>  <Num_H_Atoms_ProtBoundConf>  (324) 
nan

>  <Num_Resolved_Atoms>  (324) 
nan

>  <Num_Not_Resolved_Atoms>  (324) 
nan

$$$$
CHEMBL3651997
     RDKit          3D

  0  0  0  0  0  0  0  0  0  0999 V3000
M  V30 BEGIN CTAB
M  V30 COUNTS 57 60 0 0 0
M  V30 BEGIN ATOM
M  V30 1 C 1.750719 -2.026523 4.224677 0
M  V30 2 C 2.084775 -3.095909 3.234211 0 CFG=2
M  V30 3 C 2.851056 -2.670441 2.044169 0
M  V30 4 N 2.137559 -1.883402 1.054683 0
M  V30 5 C 2.923411 -1.227282 0.107269 0
M  V30 6 C 4.294881 -1.371657 0.036551 0
M  V30 7 C 5.064333 -0.726142 -0.903132 0
M  V30 8 N 4.551002 0.090398 -1.821419 0
M  V30 9 C 3.214900 0.264381 -1.793846 0
M  V30 10 C 2.420340 -0.387016 -0.842182 0
M  V30 11 N 1.069333 -0.085438 -0.961824 0
M  V30 12 C 0.651106 1.049457 -0.177260 0
M  V30 13 O 1.450272 1.696826 0.545489 0
M  V30 14 C -0.734367 1.492064 -0.195508 0
M  V30 15 N -1.718491 0.919500 -0.909956 0
M  V30 16 C -2.987226 1.414150 -0.856919 0
M  V30 17 C -3.984193 0.730504 -1.662531 0
M  V30 18 C -4.321382 1.013297 -2.973015 0
M  V30 19 F -3.645140 2.033645 -3.552883 0
M  V30 20 C -5.297768 0.251110 -3.573591 0
M  V30 21 C -5.932830 -0.776937 -2.888601 0
M  V30 22 C -5.596385 -1.060818 -1.577520 0
M  V30 23 C -4.612020 -0.289452 -0.978146 0
M  V30 24 F -4.352464 -0.648965 0.316612 0
M  V30 25 C -3.391423 2.496128 -0.109581 0
M  V30 26 C -2.388800 3.095627 0.631141 0
M  V30 27 C -1.114216 2.572712 0.557321 0
M  V30 28 N -0.162561 3.250031 1.347999 0
M  V30 29 C 0.764965 -1.971172 1.286179 0
M  V30 30 C 0.236216 -3.367965 1.645934 0 CFG=1
M  V30 31 N 0.425040 -4.205989 0.480366 0
M  V30 32 C 0.929260 -3.957881 2.821615 0 CFG=1
M  V30 33 O 1.409696 -5.232679 2.490862 0
M  V30 34 H 2.207201 -2.195691 5.245063 0
M  V30 35 H 0.656033 -1.964718 4.445330 0
M  V30 36 H 2.151624 -1.038405 3.892262 0
M  V30 37 H 2.774572 -3.805033 3.784359 0
M  V30 38 H 3.723534 -2.077924 2.403919 0
M  V30 39 H 3.264974 -3.580176 1.554431 0
M  V30 40 H 4.839961 -2.007033 0.721561 0
M  V30 41 H 6.149326 -0.863824 -0.930312 0
M  V30 42 H 2.820897 0.939239 -2.558285 0
M  V30 43 H 0.382144 -0.620598 -1.574645 0
M  V30 44 H -5.536503 0.498883 -4.597539 0
M  V30 45 H -6.697080 -1.336601 -3.433278 0
M  V30 46 H -6.105634 -1.856471 -1.085751 0
M  V30 47 H -4.418909 2.806748 -0.137758 0
M  V30 48 H -2.649265 3.950783 1.237677 0
M  V30 49 H 0.465618 3.663176 2.040180 0
M  V30 50 H 0.355232 3.846995 0.639148 0
M  V30 51 H 0.055680 -1.683598 0.507228 0
M  V30 52 H 0.524394 -1.286665 2.152957 0
M  V30 53 H -0.862923 -3.244856 1.817286 0
M  V30 54 H -0.093329 -5.091862 0.660644 0
M  V30 55 H 0.026888 -3.749641 -0.383631 0
M  V30 56 H 0.201798 -4.079945 3.656961 0
M  V30 57 H 1.836182 -5.120696 1.586119 0
M  V30 END ATOM
M  V30 BEGIN BOND
M  V30 1 1 1 2
M  V30 2 1 2 3
M  V30 3 1 3 4
M  V30 4 1 4 5
M  V30 5 2 5 6
M  V30 6 1 6 7
M  V30 7 2 7 8
M  V30 8 1 8 9
M  V30 9 2 9 10
M  V30 10 1 10 11
M  V30 11 1 11 12
M  V30 12 2 12 13
M  V30 13 1 12 14
M  V30 14 2 14 15
M  V30 15 1 15 16
M  V30 16 1 16 17
M  V30 17 2 17 18
M  V30 18 1 18 19
M  V30 19 1 18 20
M  V30 20 2 20 21
M  V30 21 1 21 22
M  V30 22 2 22 23
M  V30 23 1 23 24
M  V30 24 2 16 25
M  V30 25 1 25 26
M  V30 26 2 26 27
M  V30 27 1 27 28
M  V30 28 1 4 29
M  V30 29 1 29 30
M  V30 30 1 30 31
M  V30 31 1 30 32
M  V30 32 1 32 33
M  V30 33 1 32 2
M  V30 34 1 10 5
M  V30 35 1 27 14
M  V30 36 1 23 17
M  V30 37 1 1 34
M  V30 38 1 1 35
M  V30 39 1 1 36
M  V30 40 1 2 37 CFG=1
M  V30 41 1 3 38
M  V30 42 1 3 39
M  V30 43 1 6 40
M  V30 44 1 7 41
M  V30 45 1 9 42
M  V30 46 1 11 43
M  V30 47 1 20 44
M  V30 48 1 21 45
M  V30 49 1 22 46
M  V30 50 1 25 47
M  V30 51 1 26 48
M  V30 52 1 28 49
M  V30 53 1 28 50
M  V30 54 1 29 51
M  V30 55 1 29 52
M  V30 56 1 30 53 CFG=1
M  V30 57 1 31 54
M  V30 58 1 31 55
M  V30 59 1 32 56 CFG=1
M  V30 60 1 33 57
M  V30 END BOND
M  V30 END CTAB
M  END
>  <Dataset>  (325) 
ChEMBL_Kinases

>  <Ligand_Instance>  (325) 
nan

>  <PDB_ID>  (325) 
nan

>  <Standardized_SMILES>  (325) 
C[C@@H]1CN(c2ccncc2NC(=O)c2nc(-c3c(F)cccc3F)ccc2N)C[C@@H](N)[C@H]1O

>  <Name>  (325) 
nan

>  <Pocket>  (325) 
nan

>  <ATP_Site>  (325) 
nan

>  <Peripheral>  (325) 
nan

>  <Num_H_Atoms_ProtBoundConf>  (325) 
nan

>  <Num_Resolved_Atoms>  (325) 
nan

>  <Num_Not_Resolved_Atoms>  (325) 
nan

$$$$
CHEMBL3651998
     RDKit          3D

  0  0  0  0  0  0  0  0  0  0999 V3000
M  V30 BEGIN CTAB
M  V30 COUNTS 55 58 0 0 0
M  V30 BEGIN ATOM
M  V30 1 N -0.448931 2.294522 3.400637 0
M  V30 2 C 0.523688 2.045048 2.396573 0
M  V30 3 C 1.283189 3.094250 1.875097 0
M  V30 4 C 2.244805 2.868567 0.886805 0
M  V30 5 C 2.473011 1.593491 0.394427 0
M  V30 6 C 3.479137 1.369369 -0.637068 0
M  V30 7 C 3.201068 1.425869 -1.989971 0
M  V30 8 F 1.930216 1.703254 -2.382048 0
M  V30 9 C 4.152602 1.214011 -2.957932 0
M  V30 10 C 5.456517 0.929291 -2.592540 0
M  V30 11 C 5.738471 0.871954 -1.233608 0
M  V30 12 C 4.768302 1.087888 -0.269406 0
M  V30 13 F 5.082231 1.023394 1.047765 0
M  V30 14 N 1.723472 0.592516 0.916339 0
M  V30 15 C 0.801398 0.809771 1.864169 0
M  V30 16 C 0.006490 -0.300015 2.407520 0
M  V30 17 O -0.852505 -0.072078 3.295812 0
M  V30 18 N 0.152595 -1.671644 1.975240 0
M  V30 19 C -0.768408 -2.462171 2.709325 0
M  V30 20 C -0.341432 -2.889074 3.946596 0
M  V30 21 N -1.158397 -3.640671 4.689518 0
M  V30 22 C -2.380576 -3.986712 4.257446 0
M  V30 23 C -2.762829 -3.537500 3.015779 0
M  V30 24 C -1.990692 -2.746873 2.153390 0
M  V30 25 C -2.562050 -2.392362 0.867537 0 CFG=2
M  V30 26 C -2.258258 -3.544625 -0.091638 0
M  V30 27 C -1.607579 -3.041413 -1.351588 0
M  V30 28 C -2.304905 -1.922603 -2.036837 0 CFG=2
M  V30 29 O -1.310270 -1.189104 -2.726597 0
M  V30 30 C -2.924899 -0.961260 -1.069469 0 CFG=1
M  V30 31 N -4.331730 -1.228425 -0.848992 0
M  V30 32 C -2.142362 -1.106401 0.251262 0
M  V30 33 H -0.089444 2.579923 4.317072 0
M  V30 34 H -1.469184 2.180235 3.171845 0
M  V30 35 H 1.116537 4.102149 2.250885 0
M  V30 36 H 2.805108 3.744653 0.523630 0
M  V30 37 H 3.951328 1.254609 -4.024680 0
M  V30 38 H 6.289151 0.744561 -3.241495 0
M  V30 39 H 6.740097 0.653510 -0.872816 0
M  V30 40 H 0.882915 -1.844835 1.224402 0
M  V30 41 H 0.637397 -2.626115 4.320726 0
M  V30 42 H -3.049268 -4.593863 4.850440 0
M  V30 43 H -3.771932 -3.839962 2.692144 0
M  V30 44 H -3.685923 -2.331909 1.023278 0
M  V30 45 H -1.538833 -4.261259 0.356480 0
M  V30 46 H -3.168224 -4.145474 -0.290053 0
M  V30 47 H -0.545807 -2.771506 -1.070294 0
M  V30 48 H -1.457135 -3.931134 -2.025229 0
M  V30 49 H -3.003704 -2.246714 -2.834422 0
M  V30 50 H -1.683668 -0.653760 -3.459991 0
M  V30 51 H -2.861193 0.067290 -1.462782 0
M  V30 52 H -4.727564 -1.536529 -1.748798 0
M  V30 53 H -4.786505 -0.359498 -0.557183 0
M  V30 54 H -1.087541 -1.107331 -0.083890 0
M  V30 55 H -2.422893 -0.248238 0.884439 0
M  V30 END ATOM
M  V30 BEGIN BOND
M  V30 1 1 1 2
M  V30 2 2 2 3
M  V30 3 1 3 4
M  V30 4 2 4 5
M  V30 5 1 5 6
M  V30 6 2 6 7
M  V30 7 1 7 8
M  V30 8 1 7 9
M  V30 9 2 9 10
M  V30 10 1 10 11
M  V30 11 2 11 12
M  V30 12 1 12 13
M  V30 13 1 5 14
M  V30 14 2 14 15
M  V30 15 1 15 16
M  V30 16 2 16 17
M  V30 17 1 16 18
M  V30 18 1 18 19
M  V30 19 2 19 20
M  V30 20 1 20 21
M  V30 21 2 21 22
M  V30 22 1 22 23
M  V30 23 2 23 24
M  V30 24 1 24 25
M  V30 25 1 25 26
M  V30 26 1 26 27
M  V30 27 1 27 28
M  V30 28 1 28 29
M  V30 29 1 28 30
M  V30 30 1 30 31
M  V30 31 1 30 32
M  V30 32 1 15 2
M  V30 33 1 24 19
M  V30 34 1 32 25
M  V30 35 1 12 6
M  V30 36 1 1 33
M  V30 37 1 1 34
M  V30 38 1 3 35
M  V30 39 1 4 36
M  V30 40 1 9 37
M  V30 41 1 10 38
M  V30 42 1 11 39
M  V30 43 1 18 40
M  V30 44 1 20 41
M  V30 45 1 22 42
M  V30 46 1 23 43
M  V30 47 1 25 44 CFG=1
M  V30 48 1 26 45
M  V30 49 1 26 46
M  V30 50 1 27 47
M  V30 51 1 27 48
M  V30 52 1 28 49 CFG=3
M  V30 53 1 29 50
M  V30 54 1 30 51 CFG=3
M  V30 55 1 31 52
M  V30 56 1 31 53
M  V30 57 1 32 54
M  V30 58 1 32 55
M  V30 END BOND
M  V30 END CTAB
M  END
>  <Dataset>  (326) 
ChEMBL_Kinases

>  <Ligand_Instance>  (326) 
nan

>  <PDB_ID>  (326) 
nan

>  <Standardized_SMILES>  (326) 
Nc1ccc(-c2c(F)cccc2F)nc1C(=O)Nc1cnccc1[C@@H]1CC[C@H](O)[C@@H](N)C1

>  <Name>  (326) 
nan

>  <Pocket>  (326) 
nan

>  <ATP_Site>  (326) 
nan

>  <Peripheral>  (326) 
nan

>  <Num_H_Atoms_ProtBoundConf>  (326) 
nan

>  <Num_Resolved_Atoms>  (326) 
nan

>  <Num_Not_Resolved_Atoms>  (326) 
nan

$$$$
CHEMBL3651999
     RDKit          3D

  0  0  0  0  0  0  0  0  0  0999 V3000
M  V30 BEGIN CTAB
M  V30 COUNTS 54 57 0 0 0
M  V30 BEGIN ATOM
M  V30 1 C 1.783208 -3.448289 0.478652 0
M  V30 2 C 2.542844 -2.346016 -0.224686 0
M  V30 3 C 1.619196 -1.150020 -0.355767 0
M  V30 4 C 2.197211 -0.078381 -1.162795 0
M  V30 5 C 1.920929 1.340689 -1.088024 0
M  V30 6 C 2.562495 2.291874 -1.838084 0
M  V30 7 C 2.293872 3.640467 -1.780706 0
M  V30 8 N 1.349213 4.119970 -0.952542 0
M  V30 9 C 0.674479 3.233782 -0.180844 0
M  V30 10 C 0.968876 1.875000 -0.261638 0
M  V30 11 N 0.143528 1.132871 0.610140 0
M  V30 12 C -1.026171 0.782058 -0.158919 0
M  V30 13 O -1.077223 1.178635 -1.371434 0
M  V30 14 C -2.172922 -0.003484 0.351882 0
M  V30 15 N -2.152698 -0.434799 1.624971 0
M  V30 16 C -3.184484 -1.160708 2.144412 0
M  V30 17 C -2.989626 -1.541581 3.539768 0
M  V30 18 C -3.486196 -0.602613 4.425427 0
M  V30 19 F -4.092015 0.552377 4.062232 0
M  V30 20 C -3.357560 -0.856260 5.791943 0
M  V30 21 C -2.752739 -2.010166 6.252865 0
M  V30 22 C -2.267216 -2.928243 5.350153 0
M  V30 23 C -2.380235 -2.704158 3.973617 0
M  V30 24 F -1.941313 -3.533085 2.996543 0
M  V30 25 C -4.249050 -1.434652 1.312169 0
M  V30 26 C -4.245461 -0.979120 0.005815 0
M  V30 27 C -3.187527 -0.236121 -0.523013 0
M  V30 28 N -3.263832 0.187228 -1.858264 0
M  V30 29 C 3.082473 -0.443088 -2.063045 0
M  V30 30 C 3.603722 -1.773071 -2.407037 0
M  V30 31 O 5.001935 -1.788686 -2.225685 0
M  V30 32 C 2.965811 -2.871033 -1.576728 0
M  V30 33 H 1.771907 -3.315086 1.577920 0
M  V30 34 H 2.283322 -4.436558 0.296395 0
M  V30 35 H 0.728943 -3.497681 0.087555 0
M  V30 36 H 3.427870 -2.087295 0.385086 0
M  V30 37 H 1.498915 -0.783224 0.688392 0
M  V30 38 H 0.616893 -1.495232 -0.704014 0
M  V30 39 H 3.334113 2.071821 -2.537175 0
M  V30 40 H 2.807951 4.385904 -2.379598 0
M  V30 41 H -0.070578 3.676437 0.463525 0
M  V30 42 H 0.017600 0.736487 1.587214 0
M  V30 43 H -3.713025 -0.184494 6.570520 0
M  V30 44 H -2.643302 -2.225017 7.310985 0
M  V30 45 H -1.779673 -3.857883 5.619975 0
M  V30 46 H -5.024992 -2.008191 1.780446 0
M  V30 47 H -5.133443 -1.259555 -0.538733 0
M  V30 48 H -2.704783 -0.581882 -2.318582 0
M  V30 49 H -2.811183 -0.343425 -2.635022 0
M  V30 50 H 3.623440 0.177449 -2.758499 0
M  V30 51 H 3.424107 -2.042236 -3.471288 0
M  V30 52 H 5.481789 -1.448523 -3.013256 0
M  V30 53 H 2.125098 -3.377397 -2.092469 0
M  V30 54 H 3.746463 -3.639250 -1.402057 0
M  V30 END ATOM
M  V30 BEGIN BOND
M  V30 1 1 1 2
M  V30 2 1 2 3
M  V30 3 1 3 4
M  V30 4 1 4 5
M  V30 5 2 5 6
M  V30 6 1 6 7
M  V30 7 2 7 8
M  V30 8 1 8 9
M  V30 9 2 9 10
M  V30 10 1 10 11
M  V30 11 1 11 12
M  V30 12 2 12 13
M  V30 13 1 12 14
M  V30 14 2 14 15
M  V30 15 1 15 16
M  V30 16 1 16 17
M  V30 17 2 17 18
M  V30 18 1 18 19
M  V30 19 1 18 20
M  V30 20 2 20 21
M  V30 21 1 21 22
M  V30 22 2 22 23
M  V30 23 1 23 24
M  V30 24 2 16 25
M  V30 25 1 25 26
M  V30 26 2 26 27
M  V30 27 1 27 28
M  V30 28 2 4 29
M  V30 29 1 29 30
M  V30 30 1 30 31
M  V30 31 1 30 32
M  V30 32 1 32 2
M  V30 33 1 10 5
M  V30 34 1 27 14
M  V30 35 1 23 17
M  V30 36 1 1 33
M  V30 37 1 1 34
M  V30 38 1 1 35
M  V30 39 1 2 36
M  V30 40 1 3 37
M  V30 41 1 3 38
M  V30 42 1 6 39
M  V30 43 1 7 40
M  V30 44 1 9 41
M  V30 45 1 11 42
M  V30 46 1 20 43
M  V30 47 1 21 44
M  V30 48 1 22 45
M  V30 49 1 25 46
M  V30 50 1 26 47
M  V30 51 1 28 48
M  V30 52 1 28 49
M  V30 53 1 29 50
M  V30 54 1 30 51
M  V30 55 1 31 52
M  V30 56 1 32 53
M  V30 57 1 32 54
M  V30 END BOND
M  V30 END CTAB
M  END
>  <Dataset>  (327) 
ChEMBL_Kinases

>  <Ligand_Instance>  (327) 
nan

>  <PDB_ID>  (327) 
nan

>  <Standardized_SMILES>  (327) 
CC1CC(c2ccncc2NC(=O)c2nc(-c3c(F)cccc3F)ccc2N)=CC(O)C1

>  <Name>  (327) 
nan

>  <Pocket>  (327) 
nan

>  <ATP_Site>  (327) 
nan

>  <Peripheral>  (327) 
nan

>  <Num_H_Atoms_ProtBoundConf>  (327) 
nan

>  <Num_Resolved_Atoms>  (327) 
nan

>  <Num_Not_Resolved_Atoms>  (327) 
nan

$$$$
CHEMBL3652631
     RDKit          3D

  0  0  0  0  0  0  0  0  0  0999 V3000
M  V30 BEGIN CTAB
M  V30 COUNTS 50 53 0 0 0
M  V30 BEGIN ATOM
M  V30 1 C 1.901062 -4.639895 3.333510 0
M  V30 2 N 1.940579 -3.179919 3.308350 0
M  V30 3 N 2.508355 -2.252472 4.055402 0
M  V30 4 C 2.201165 -1.024048 3.555878 0
M  V30 5 C 1.394283 -1.266704 2.434956 0
M  V30 6 N 0.996694 -0.025295 1.807321 0
M  V30 7 C 1.777829 0.572985 0.783311 0
M  V30 8 O 2.813007 -0.083083 0.502973 0
M  V30 9 C 1.424786 1.818467 0.119548 0
M  V30 10 N 0.360332 2.573671 0.349003 0
M  V30 11 C 0.065999 3.538452 -0.149759 0
M  V30 12 C -1.092791 4.509645 -0.011077 0
M  V30 13 C -2.036469 4.163388 0.948558 0
M  V30 14 F -1.869969 3.038332 1.662702 0
M  V30 15 C -3.077017 5.060149 1.054437 0
M  V30 16 C -3.171147 6.197438 0.277395 0
M  V30 17 C -2.187567 6.464092 -0.652623 0
M  V30 18 C -1.106069 5.615711 -0.824983 0
M  V30 19 F -0.148380 5.862893 -1.721206 0
M  V30 20 S 1.445424 3.855273 -1.410535 0
M  V30 21 C 2.310726 2.257423 -0.865316 0
M  V30 22 N 3.499270 1.767941 -1.384778 0
M  V30 23 C 1.240128 -2.656037 2.294816 0
M  V30 24 O 0.455980 -2.876115 1.204574 0
M  V30 25 C 0.007789 -4.053963 0.638187 0
M  V30 26 C 0.472297 -4.082112 -0.811630 0
M  V30 27 C -0.485255 -4.868555 -1.678417 0
M  V30 28 N -1.079139 -5.918586 -0.882407 0
M  V30 29 C -2.070910 -5.288015 -0.010380 0
M  V30 30 C -1.512740 -4.094567 0.709832 0
M  V30 31 H 2.427538 -5.000861 4.268614 0
M  V30 32 H 0.848137 -4.937658 3.498000 0
M  V30 33 H 2.350138 -5.111199 2.455240 0
M  V30 34 H 2.617846 -0.191355 4.095679 0
M  V30 35 H 0.108435 0.445494 2.116325 0
M  V30 36 H -3.829443 4.802692 1.805686 0
M  V30 37 H -4.038102 6.804525 0.469921 0
M  V30 38 H -2.298867 7.368105 -1.243172 0
M  V30 39 H 4.444952 2.079445 -1.091152 0
M  V30 40 H 3.500769 1.022268 -2.136918 0
M  V30 41 H 0.359082 -4.940114 1.176691 0
M  V30 42 H 0.572249 -3.051578 -1.182135 0
M  V30 43 H 1.434711 -4.650086 -0.809312 0
M  V30 44 H -1.275227 -4.225917 -2.126845 0
M  V30 45 H 0.077995 -5.296816 -2.546595 0
M  V30 46 H -0.333924 -6.368623 -0.296104 0
M  V30 47 H -2.415184 -6.073265 0.704718 0
M  V30 48 H -2.910292 -4.997393 -0.674602 0
M  V30 49 H -1.943235 -3.156700 0.260826 0
M  V30 50 H -1.774310 -4.148894 1.786760 0
M  V30 END ATOM
M  V30 BEGIN BOND
M  V30 1 1 1 2
M  V30 2 1 2 3
M  V30 3 2 3 4
M  V30 4 1 4 5
M  V30 5 1 5 6
M  V30 6 1 6 7
M  V30 7 2 7 8
M  V30 8 1 7 9
M  V30 9 1 9 10
M  V30 10 2 10 11
M  V30 11 1 11 12
M  V30 12 2 12 13
M  V30 13 1 13 14
M  V30 14 1 13 15
M  V30 15 2 15 16
M  V30 16 1 16 17
M  V30 17 2 17 18
M  V30 18 1 18 19
M  V30 19 1 11 20
M  V30 20 1 20 21
M  V30 21 1 21 22
M  V30 22 2 5 23
M  V30 23 1 23 24
M  V30 24 1 24 25
M  V30 25 1 25 26
M  V30 26 1 26 27
M  V30 27 1 27 28
M  V30 28 1 28 29
M  V30 29 1 29 30
M  V30 30 1 23 2
M  V30 31 1 30 25
M  V30 32 2 21 9
M  V30 33 1 18 12
M  V30 34 1 1 31
M  V30 35 1 1 32
M  V30 36 1 1 33
M  V30 37 1 4 34
M  V30 38 1 6 35
M  V30 39 1 15 36
M  V30 40 1 16 37
M  V30 41 1 17 38
M  V30 42 1 22 39
M  V30 43 1 22 40
M  V30 44 1 25 41
M  V30 45 1 26 42
M  V30 46 1 26 43
M  V30 47 1 27 44
M  V30 48 1 27 45
M  V30 49 1 28 46
M  V30 50 1 29 47
M  V30 51 1 29 48
M  V30 52 1 30 49
M  V30 53 1 30 50
M  V30 END BOND
M  V30 END CTAB
M  END
>  <Dataset>  (328) 
ChEMBL_Kinases

>  <Ligand_Instance>  (328) 
nan

>  <PDB_ID>  (328) 
nan

>  <Standardized_SMILES>  (328) 
Cn1ncc(NC(=O)c2nc(-c3c(F)cccc3F)sc2N)c1OC1CCNCC1

>  <Name>  (328) 
nan

>  <Pocket>  (328) 
nan

>  <ATP_Site>  (328) 
nan

>  <Peripheral>  (328) 
nan

>  <Num_H_Atoms_ProtBoundConf>  (328) 
nan

>  <Num_Resolved_Atoms>  (328) 
nan

>  <Num_Not_Resolved_Atoms>  (328) 
nan

$$$$
CHEMBL3652633
     RDKit          3D

  0  0  0  0  0  0  0  0  0  0999 V3000
M  V30 BEGIN CTAB
M  V30 COUNTS 53 56 0 0 0
M  V30 BEGIN ATOM
M  V30 1 C -1.475326 -4.368014 4.192820 0
M  V30 2 N -0.545730 -3.416475 3.664725 0
M  V30 3 N 0.623803 -3.120377 4.221652 0
M  V30 4 C 1.289233 -2.191652 3.513698 0
M  V30 5 C 0.467346 -1.897532 2.445185 0
M  V30 6 N 0.944541 -0.926991 1.523395 0
M  V30 7 C 1.745690 -1.080956 0.333346 0
M  V30 8 O 2.156470 -2.205460 -0.067105 0
M  V30 9 C 2.086932 0.107612 -0.425168 0
M  V30 10 N 1.676398 1.326570 -0.042574 0
M  V30 11 C 1.969104 2.452947 -0.714538 0
M  V30 12 C 1.457606 3.701250 -0.183007 0
M  V30 13 C 0.705549 3.661611 0.969695 0
M  V30 14 C 0.171019 4.785772 1.562097 0
M  V30 15 C 0.371670 6.031094 1.011427 0
M  V30 16 C 1.114094 6.102056 -0.132877 0
M  V30 17 C 1.629532 4.958483 -0.692390 0
M  V30 18 F 2.342252 5.116839 -1.808268 0
M  V30 19 C 2.728014 2.260379 -1.834070 0
M  V30 20 N 3.152541 1.055265 -2.240807 0
M  V30 21 C 2.849243 -0.062095 -1.554472 0
M  V30 22 N 3.334165 -1.302643 -2.046285 0
M  V30 23 C -0.665904 -2.666929 2.555981 0
M  V30 24 N -1.709753 -2.621275 1.625450 0
M  V30 25 C -2.881738 -3.471919 1.672696 0
M  V30 26 C -3.476994 -3.609925 0.278791 0
M  V30 27 C -2.307533 -3.870922 -0.655824 0
M  V30 28 N -2.679303 -4.494028 -1.887178 0
M  V30 29 C -1.610925 -2.536874 -0.821273 0
M  V30 30 C -1.832324 -1.744761 0.478402 0
M  V30 31 H -2.528238 -4.023626 4.236797 0
M  V30 32 H -1.360780 -5.403427 3.779193 0
M  V30 33 H -1.218825 -4.520847 5.286468 0
M  V30 34 H 2.251636 -1.848256 3.837817 0
M  V30 35 H 0.644461 0.035867 1.788096 0
M  V30 36 H 0.486202 2.724311 1.488141 0
M  V30 37 H -0.414222 4.713009 2.467064 0
M  V30 38 H -0.065863 6.885172 1.509450 0
M  V30 39 H 1.273085 7.067449 -0.565275 0
M  V30 40 H 3.000898 3.097345 -2.418041 0
M  V30 41 H 4.334678 -1.657457 -2.094867 0
M  V30 42 H 2.796141 -2.102795 -2.454452 0
M  V30 43 H -2.529030 -4.510951 1.905871 0
M  V30 44 H -3.670532 -3.106375 2.351071 0
M  V30 45 H -4.103782 -4.530654 0.237141 0
M  V30 46 H -4.118089 -2.783483 -0.020338 0
M  V30 47 H -1.596038 -4.520183 -0.091575 0
M  V30 48 H -2.569099 -5.542025 -1.741033 0
M  V30 49 H -2.156453 -4.180247 -2.719404 0
M  V30 50 H -1.995125 -1.921521 -1.634544 0
M  V30 51 H -0.516760 -2.686790 -0.902647 0
M  V30 52 H -2.854980 -1.258328 0.430814 0
M  V30 53 H -1.132892 -0.911224 0.448327 0
M  V30 END ATOM
M  V30 BEGIN BOND
M  V30 1 1 1 2
M  V30 2 1 2 3
M  V30 3 2 3 4
M  V30 4 1 4 5
M  V30 5 1 5 6
M  V30 6 1 6 7
M  V30 7 2 7 8
M  V30 8 1 7 9
M  V30 9 2 9 10
M  V30 10 1 10 11
M  V30 11 1 11 12
M  V30 12 2 12 13
M  V30 13 1 13 14
M  V30 14 2 14 15
M  V30 15 1 15 16
M  V30 16 2 16 17
M  V30 17 1 17 18
M  V30 18 2 11 19
M  V30 19 1 19 20
M  V30 20 2 20 21
M  V30 21 1 21 22
M  V30 22 2 5 23
M  V30 23 1 23 24
M  V30 24 1 24 25
M  V30 25 1 25 26
M  V30 26 1 26 27
M  V30 27 1 27 28
M  V30 28 1 27 29
M  V30 29 1 29 30
M  V30 30 1 23 2
M  V30 31 1 30 24
M  V30 32 1 21 9
M  V30 33 1 17 12
M  V30 34 1 1 31
M  V30 35 1 1 32
M  V30 36 1 1 33
M  V30 37 1 4 34
M  V30 38 1 6 35
M  V30 39 1 13 36
M  V30 40 1 14 37
M  V30 41 1 15 38
M  V30 42 1 16 39
M  V30 43 1 19 40
M  V30 44 1 22 41
M  V30 45 1 22 42
M  V30 46 1 25 43
M  V30 47 1 25 44
M  V30 48 1 26 45
M  V30 49 1 26 46
M  V30 50 1 27 47
M  V30 51 1 28 48
M  V30 52 1 28 49
M  V30 53 1 29 50
M  V30 54 1 29 51
M  V30 55 1 30 52
M  V30 56 1 30 53
M  V30 END BOND
M  V30 END CTAB
M  END
>  <Dataset>  (329) 
ChEMBL_Kinases

>  <Ligand_Instance>  (329) 
nan

>  <PDB_ID>  (329) 
nan

>  <Standardized_SMILES>  (329) 
Cn1ncc(NC(=O)c2nc(-c3ccccc3F)cnc2N)c1N1CCC(N)CC1

>  <Name>  (329) 
nan

>  <Pocket>  (329) 
nan

>  <ATP_Site>  (329) 
nan

>  <Peripheral>  (329) 
nan

>  <Num_H_Atoms_ProtBoundConf>  (329) 
nan

>  <Num_Resolved_Atoms>  (329) 
nan

>  <Num_Not_Resolved_Atoms>  (329) 
nan

$$$$
CHEMBL3652545
     RDKit          3D

  0  0  0  0  0  0  0  0  0  0999 V3000
M  V30 BEGIN CTAB
M  V30 COUNTS 43 46 0 0 0
M  V30 BEGIN ATOM
M  V30 1 C 0.603240 -4.594759 3.192879 0
M  V30 2 C 0.768870 -3.457314 2.258386 0
M  V30 3 C 1.980736 -2.804939 2.293007 0
M  V30 4 C 2.135964 -1.737626 1.410360 0
M  V30 5 N 3.316930 -0.909757 1.313507 0
M  V30 6 C 3.413253 0.157067 0.344337 0
M  V30 7 N 4.124394 0.071077 -0.783164 0
M  V30 8 N 4.011653 1.212112 -1.484766 0
M  V30 9 C 3.215748 2.015117 -0.774373 0
M  V30 10 N 2.762397 3.278390 -1.009601 0
M  V30 11 C 1.937447 3.894869 -0.116155 0
M  V30 12 C 1.549364 3.261986 1.028687 0
M  V30 13 F 0.727852 3.868437 1.915863 0
M  V30 14 C 1.965474 1.968384 1.348951 0
M  V30 15 C 2.801834 1.412219 0.390637 0
M  V30 16 N 1.095449 -1.443671 0.609806 0
M  V30 17 C -0.074315 -2.077067 0.580061 0
M  V30 18 C -1.039686 -1.535516 -0.413077 0
M  V30 19 C -1.034894 -0.012663 -0.151423 0
M  V30 20 C -1.444759 0.147395 1.296902 0
M  V30 21 C -2.913657 -0.164672 1.365500 0
M  V30 22 C -3.403715 -1.064007 0.274134 0
M  V30 23 C -2.395966 -2.090161 -0.190994 0
M  V30 24 N -0.224289 -3.113930 1.438467 0
M  V30 25 H 0.601662 -4.292083 4.259462 0
M  V30 26 H -0.315369 -5.180273 2.985037 0
M  V30 27 H 1.436270 -5.347177 3.081088 0
M  V30 28 H 2.831360 -3.023755 2.927360 0
M  V30 29 H 4.070602 -1.160154 1.992086 0
M  V30 30 H 4.453706 1.452182 -2.411561 0
M  V30 31 H 1.608965 4.889723 -0.348685 0
M  V30 32 H 1.682522 1.431921 2.239774 0
M  V30 33 H -0.600843 -1.691379 -1.423284 0
M  V30 34 H -1.683630 0.535860 -0.835163 0
M  V30 35 H 0.042867 0.293450 -0.259061 0
M  V30 36 H -0.849673 -0.565878 1.905971 0
M  V30 37 H -1.247670 1.208498 1.646280 0
M  V30 38 H -3.423943 0.829431 1.188725 0
M  V30 39 H -3.215514 -0.458559 2.384957 0
M  V30 40 H -3.822622 -0.507864 -0.611512 0
M  V30 41 H -4.278063 -1.622175 0.670668 0
M  V30 42 H -2.779271 -2.478503 -1.154625 0
M  V30 43 H -2.415714 -2.973619 0.513339 0
M  V30 END ATOM
M  V30 BEGIN BOND
M  V30 1 1 1 2
M  V30 2 2 2 3
M  V30 3 1 3 4
M  V30 4 1 4 5
M  V30 5 1 5 6
M  V30 6 2 6 7
M  V30 7 1 7 8
M  V30 8 1 8 9
M  V30 9 2 9 10
M  V30 10 1 10 11
M  V30 11 2 11 12
M  V30 12 1 12 13
M  V30 13 1 12 14
M  V30 14 2 14 15
M  V30 15 2 4 16
M  V30 16 1 16 17
M  V30 17 1 17 18
M  V30 18 1 18 19
M  V30 19 1 19 20
M  V30 20 1 20 21
M  V30 21 1 21 22
M  V30 22 1 22 23
M  V30 23 2 17 24
M  V30 24 1 24 2
M  V30 25 1 15 6
M  V30 26 1 23 18
M  V30 27 1 15 9
M  V30 28 1 1 25
M  V30 29 1 1 26
M  V30 30 1 1 27
M  V30 31 1 3 28
M  V30 32 1 5 29
M  V30 33 1 8 30
M  V30 34 1 11 31
M  V30 35 1 14 32
M  V30 36 1 18 33
M  V30 37 1 19 34
M  V30 38 1 19 35
M  V30 39 1 20 36
M  V30 40 1 20 37
M  V30 41 1 21 38
M  V30 42 1 21 39
M  V30 43 1 22 40
M  V30 44 1 22 41
M  V30 45 1 23 42
M  V30 46 1 23 43
M  V30 END BOND
M  V30 END CTAB
M  END
>  <Dataset>  (330) 
ChEMBL_Kinases

>  <Ligand_Instance>  (330) 
nan

>  <PDB_ID>  (330) 
nan

>  <Standardized_SMILES>  (330) 
Cc1cc(Nc2n[nH]c3ncc(F)cc23)nc(C2CCCCC2)n1

>  <Name>  (330) 
nan

>  <Pocket>  (330) 
nan

>  <ATP_Site>  (330) 
nan

>  <Peripheral>  (330) 
nan

>  <Num_H_Atoms_ProtBoundConf>  (330) 
nan

>  <Num_Resolved_Atoms>  (330) 
nan

>  <Num_Not_Resolved_Atoms>  (330) 
nan

$$$$
CHEMBL3652546
     RDKit          3D

  0  0  0  0  0  0  0  0  0  0999 V3000
M  V30 BEGIN CTAB
M  V30 COUNTS 42 45 0 0 0
M  V30 BEGIN ATOM
M  V30 1 C 0.305891 -2.981704 4.471229 0
M  V30 2 C 0.603332 -2.320619 3.178930 0
M  V30 3 C 1.694824 -1.489336 3.067433 0
M  V30 4 C 1.928207 -0.905718 1.859523 0
M  V30 5 N 3.015740 -0.019488 1.619426 0
M  V30 6 C 3.301836 0.638811 0.385747 0
M  V30 7 N 4.091704 0.407754 -0.702063 0
M  V30 8 N 3.936814 1.391779 -1.572733 0
M  V30 9 C 3.051824 2.278114 -1.079950 0
M  V30 10 C 2.569013 3.471642 -1.638630 0
M  V30 11 C 1.657222 4.238235 -0.968864 0
M  V30 12 C 1.212308 3.817738 0.278769 0
M  V30 13 F 0.319572 4.500607 1.012380 0
M  V30 14 C 1.702952 2.634508 0.813800 0
M  V30 15 C 2.626562 1.842754 0.153308 0
M  V30 16 N 1.081313 -1.166204 0.822711 0
M  V30 17 C 0.026322 -1.977049 0.952630 0
M  V30 18 C -0.820978 -2.191789 -0.254444 0
M  V30 19 C -2.022123 -1.254606 -0.131079 0
M  V30 20 C -2.932689 -1.772567 0.923431 0
M  V30 21 O -3.368172 -3.076985 0.747238 0
M  V30 22 C -2.804939 -3.717046 -0.346477 0
M  V30 23 C -1.292368 -3.597185 -0.373591 0
M  V30 24 N -0.228027 -2.570470 2.145930 0
M  V30 25 H -0.188830 -2.217614 5.115600 0
M  V30 26 H -0.289926 -3.902784 4.381464 0
M  V30 27 H 1.302817 -3.147234 4.972572 0
M  V30 28 H 2.377818 -1.271193 3.869709 0
M  V30 29 H 3.691352 0.188460 2.405685 0
M  V30 30 H 4.449128 1.434481 -2.496998 0
M  V30 31 H 2.865364 3.864458 -2.600102 0
M  V30 32 H 1.254582 5.172599 -1.359356 0
M  V30 33 H 1.362338 2.303069 1.780528 0
M  V30 34 H -0.206538 -1.835610 -1.122050 0
M  V30 35 H -1.579424 -0.298611 0.280730 0
M  V30 36 H -2.502689 -1.034871 -1.090321 0
M  V30 37 H -2.413499 -1.705551 1.903793 0
M  V30 38 H -3.818580 -1.075556 1.053475 0
M  V30 39 H -3.058456 -4.790859 -0.232723 0
M  V30 40 H -3.230345 -3.374663 -1.311430 0
M  V30 41 H -0.858016 -4.246641 0.444342 0
M  V30 42 H -0.948344 -4.035601 -1.327861 0
M  V30 END ATOM
M  V30 BEGIN BOND
M  V30 1 1 1 2
M  V30 2 2 2 3
M  V30 3 1 3 4
M  V30 4 1 4 5
M  V30 5 1 5 6
M  V30 6 2 6 7
M  V30 7 1 7 8
M  V30 8 1 8 9
M  V30 9 2 9 10
M  V30 10 1 10 11
M  V30 11 2 11 12
M  V30 12 1 12 13
M  V30 13 1 12 14
M  V30 14 2 14 15
M  V30 15 2 4 16
M  V30 16 1 16 17
M  V30 17 1 17 18
M  V30 18 1 18 19
M  V30 19 1 19 20
M  V30 20 1 20 21
M  V30 21 1 21 22
M  V30 22 1 22 23
M  V30 23 2 17 24
M  V30 24 1 24 2
M  V30 25 1 15 6
M  V30 26 1 23 18
M  V30 27 1 15 9
M  V30 28 1 1 25
M  V30 29 1 1 26
M  V30 30 1 1 27
M  V30 31 1 3 28
M  V30 32 1 5 29
M  V30 33 1 8 30
M  V30 34 1 10 31
M  V30 35 1 11 32
M  V30 36 1 14 33
M  V30 37 1 18 34
M  V30 38 1 19 35
M  V30 39 1 19 36
M  V30 40 1 20 37
M  V30 41 1 20 38
M  V30 42 1 22 39
M  V30 43 1 22 40
M  V30 44 1 23 41
M  V30 45 1 23 42
M  V30 END BOND
M  V30 END CTAB
M  END
>  <Dataset>  (331) 
ChEMBL_Kinases

>  <Ligand_Instance>  (331) 
nan

>  <PDB_ID>  (331) 
nan

>  <Standardized_SMILES>  (331) 
Cc1cc(Nc2n[nH]c3ccc(F)cc23)nc(C2CCOCC2)n1

>  <Name>  (331) 
nan

>  <Pocket>  (331) 
nan

>  <ATP_Site>  (331) 
nan

>  <Peripheral>  (331) 
nan

>  <Num_H_Atoms_ProtBoundConf>  (331) 
nan

>  <Num_Resolved_Atoms>  (331) 
nan

>  <Num_Not_Resolved_Atoms>  (331) 
nan

$$$$
CHEMBL3652547
     RDKit          3D

  0  0  0  0  0  0  0  0  0  0999 V3000
M  V30 BEGIN CTAB
M  V30 COUNTS 41 44 0 0 0
M  V30 BEGIN ATOM
M  V30 1 C 0.000964 -4.487098 3.441108 0
M  V30 2 C 0.306927 -3.385726 2.506978 0
M  V30 3 C 1.419372 -2.611969 2.785222 0
M  V30 4 C 1.739295 -1.573458 1.928481 0
M  V30 5 N 2.843521 -0.657688 2.077743 0
M  V30 6 C 3.099528 0.366126 1.098392 0
M  V30 7 N 4.100263 0.207642 0.217659 0
M  V30 8 N 4.115664 1.278448 -0.575134 0
M  V30 9 C 3.126180 2.151252 -0.225772 0
M  V30 10 N 2.702203 3.344535 -0.677843 0
M  V30 11 C 1.646454 3.915202 -0.050230 0
M  V30 12 C 0.981530 3.358581 1.013585 0
M  V30 13 F -0.073158 3.991312 1.587713 0
M  V30 14 C 1.393400 2.121753 1.510592 0
M  V30 15 C 2.472629 1.591066 0.831589 0
M  V30 16 N 0.918178 -1.408075 0.877658 0
M  V30 17 C -0.151001 -2.128558 0.585113 0
M  V30 18 C -0.901374 -1.752370 -0.644257 0
M  V30 19 C -0.962714 -0.213250 -0.600427 0
M  V30 20 C -1.759715 0.193753 0.587589 0
M  V30 21 O -2.967748 -0.483658 0.694609 0
M  V30 22 C -3.256569 -1.167403 -0.491901 0
M  V30 23 C -2.280012 -2.314945 -0.711847 0
M  V30 24 N -0.448863 -3.140584 1.434141 0
M  V30 25 H 0.148554 -4.177957 4.498453 0
M  V30 26 H -1.009849 -4.883117 3.255624 0
M  V30 27 H 0.739927 -5.306791 3.245384 0
M  V30 28 H 2.088368 -2.745361 3.637285 0
M  V30 29 H 3.441089 -0.783926 2.930944 0
M  V30 30 H 4.788950 1.422131 -1.347146 0
M  V30 31 H 1.364788 4.882403 -0.475752 0
M  V30 32 H 0.921380 1.633659 2.333143 0
M  V30 33 H -0.321725 -2.021275 -1.558485 0
M  V30 34 H -1.265640 0.200871 -1.560205 0
M  V30 35 H 0.091153 0.096035 -0.401959 0
M  V30 36 H -1.150271 -0.092694 1.489393 0
M  V30 37 H -1.861653 1.301610 0.641781 0
M  V30 38 H -4.305618 -1.517012 -0.444030 0
M  V30 39 H -3.195780 -0.444995 -1.334011 0
M  V30 40 H -2.544166 -2.803171 -1.657441 0
M  V30 41 H -2.441623 -3.051347 0.101345 0
M  V30 END ATOM
M  V30 BEGIN BOND
M  V30 1 1 1 2
M  V30 2 2 2 3
M  V30 3 1 3 4
M  V30 4 1 4 5
M  V30 5 1 5 6
M  V30 6 2 6 7
M  V30 7 1 7 8
M  V30 8 1 8 9
M  V30 9 2 9 10
M  V30 10 1 10 11
M  V30 11 2 11 12
M  V30 12 1 12 13
M  V30 13 1 12 14
M  V30 14 2 14 15
M  V30 15 2 4 16
M  V30 16 1 16 17
M  V30 17 1 17 18
M  V30 18 1 18 19
M  V30 19 1 19 20
M  V30 20 1 20 21
M  V30 21 1 21 22
M  V30 22 1 22 23
M  V30 23 2 17 24
M  V30 24 1 24 2
M  V30 25 1 15 6
M  V30 26 1 23 18
M  V30 27 1 15 9
M  V30 28 1 1 25
M  V30 29 1 1 26
M  V30 30 1 1 27
M  V30 31 1 3 28
M  V30 32 1 5 29
M  V30 33 1 8 30
M  V30 34 1 11 31
M  V30 35 1 14 32
M  V30 36 1 18 33
M  V30 37 1 19 34
M  V30 38 1 19 35
M  V30 39 1 20 36
M  V30 40 1 20 37
M  V30 41 1 22 38
M  V30 42 1 22 39
M  V30 43 1 23 40
M  V30 44 1 23 41
M  V30 END BOND
M  V30 END CTAB
M  END
>  <Dataset>  (332) 
ChEMBL_Kinases

>  <Ligand_Instance>  (332) 
nan

>  <PDB_ID>  (332) 
nan

>  <Standardized_SMILES>  (332) 
Cc1cc(Nc2n[nH]c3ncc(F)cc23)nc(C2CCOCC2)n1

>  <Name>  (332) 
nan

>  <Pocket>  (332) 
nan

>  <ATP_Site>  (332) 
nan

>  <Peripheral>  (332) 
nan

>  <Num_H_Atoms_ProtBoundConf>  (332) 
nan

>  <Num_Resolved_Atoms>  (332) 
nan

>  <Num_Not_Resolved_Atoms>  (332) 
nan

$$$$
CHEMBL3652548
     RDKit          3D

  0  0  0  0  0  0  0  0  0  0999 V3000
M  V30 BEGIN CTAB
M  V30 COUNTS 46 49 0 0 0
M  V30 BEGIN ATOM
M  V30 1 C 1.096046 -5.329953 1.410973 0
M  V30 2 C 1.103967 -3.857303 1.215258 0
M  V30 3 C 1.911727 -3.195001 0.282321 0
M  V30 4 C 1.830183 -1.809984 0.194678 0
M  V30 5 N 2.622779 -1.091125 -0.729150 0
M  V30 6 C 2.453668 -0.562874 -2.026236 0
M  V30 7 N 2.550352 -0.991407 -3.284675 0
M  V30 8 N 2.278045 -0.026966 -4.134904 0
M  V30 9 C 1.985064 1.098771 -3.448713 0
M  V30 10 N 1.647769 2.336659 -3.910071 0
M  V30 11 C 1.391825 3.346705 -3.045015 0
M  V30 12 C 1.481406 3.090015 -1.691963 0
M  V30 13 F 1.242408 4.047550 -0.748508 0
M  V30 14 C 1.823428 1.833734 -1.248835 0
M  V30 15 C 2.093441 0.770599 -2.109382 0
M  V30 16 N 0.972471 -1.181077 1.017754 0
M  V30 17 C 0.198061 -1.819800 1.912024 0
M  V30 18 C -0.708306 -0.994263 2.749901 0 CFG=1
M  V30 19 C 0.013511 0.174372 3.378501 0
M  V30 20 C -0.897124 1.324900 3.707902 0
M  V30 21 C -2.290532 0.868823 4.065876 0
M  V30 22 C -2.894296 0.068256 2.944199 0
M  V30 23 C -1.867733 -0.442628 1.954812 0 CFG=2
M  V30 24 C -2.560983 -1.494404 1.127595 0
M  V30 25 N 0.244469 -3.180607 2.034642 0
M  V30 26 H 0.100645 -5.709435 1.091989 0
M  V30 27 H 1.947498 -5.843323 0.932920 0
M  V30 28 H 1.156166 -5.486549 2.520757 0
M  V30 29 H 2.564059 -3.780666 -0.329620 0
M  V30 30 H 3.533730 -0.974408 -0.237658 0
M  V30 31 H 2.282014 -0.101953 -5.184768 0
M  V30 32 H 1.118854 4.356621 -3.273932 0
M  V30 33 H 1.896472 1.623042 -0.185856 0
M  V30 34 H -1.162837 -1.617584 3.561044 0
M  V30 35 H 0.671197 -0.125697 4.227134 0
M  V30 36 H 0.704357 0.561087 2.572199 0
M  V30 37 H -0.479405 1.865852 4.578370 0
M  V30 38 H -0.995083 2.076005 2.897012 0
M  V30 39 H -2.328324 0.369813 5.042577 0
M  V30 40 H -2.894646 1.797106 4.169057 0
M  V30 41 H -3.370563 -0.831525 3.412881 0
M  V30 42 H -3.731005 0.604446 2.448086 0
M  V30 43 H -1.533885 0.418362 1.348014 0
M  V30 44 H -3.346305 -0.978008 0.531796 0
M  V30 45 H -1.896734 -2.004378 0.403492 0
M  V30 46 H -3.069553 -2.248271 1.743425 0
M  V30 END ATOM
M  V30 BEGIN BOND
M  V30 1 1 1 2
M  V30 2 2 2 3
M  V30 3 1 3 4
M  V30 4 1 4 5
M  V30 5 1 5 6
M  V30 6 2 6 7
M  V30 7 1 7 8
M  V30 8 1 8 9
M  V30 9 2 9 10
M  V30 10 1 10 11
M  V30 11 2 11 12
M  V30 12 1 12 13
M  V30 13 1 12 14
M  V30 14 2 14 15
M  V30 15 2 4 16
M  V30 16 1 16 17
M  V30 17 1 17 18
M  V30 18 1 18 19
M  V30 19 1 19 20
M  V30 20 1 20 21
M  V30 21 1 21 22
M  V30 22 1 22 23
M  V30 23 1 23 24
M  V30 24 2 17 25
M  V30 25 1 25 2
M  V30 26 1 15 6
M  V30 27 1 23 18
M  V30 28 1 15 9
M  V30 29 1 1 26
M  V30 30 1 1 27
M  V30 31 1 1 28
M  V30 32 1 3 29
M  V30 33 1 5 30
M  V30 34 1 8 31
M  V30 35 1 11 32
M  V30 36 1 14 33
M  V30 37 1 18 34 CFG=1
M  V30 38 1 19 35
M  V30 39 1 19 36
M  V30 40 1 20 37
M  V30 41 1 20 38
M  V30 42 1 21 39
M  V30 43 1 21 40
M  V30 44 1 22 41
M  V30 45 1 22 42
M  V30 46 1 23 43 CFG=3
M  V30 47 1 24 44
M  V30 48 1 24 45
M  V30 49 1 24 46
M  V30 END BOND
M  V30 END CTAB
M  END
>  <Dataset>  (333) 
ChEMBL_Kinases

>  <Ligand_Instance>  (333) 
nan

>  <PDB_ID>  (333) 
nan

>  <Standardized_SMILES>  (333) 
Cc1cc(Nc2n[nH]c3ncc(F)cc23)nc([C@H]2CCCC[C@@H]2C)n1

>  <Name>  (333) 
nan

>  <Pocket>  (333) 
nan

>  <ATP_Site>  (333) 
nan

>  <Peripheral>  (333) 
nan

>  <Num_H_Atoms_ProtBoundConf>  (333) 
nan

>  <Num_Resolved_Atoms>  (333) 
nan

>  <Num_Not_Resolved_Atoms>  (333) 
nan

$$$$
CHEMBL3652549
     RDKit          3D

  0  0  0  0  0  0  0  0  0  0999 V3000
M  V30 BEGIN CTAB
M  V30 COUNTS 52 57 0 0 0
M  V30 BEGIN ATOM
M  V30 1 C 0.806796 -3.555616 4.390627 0
M  V30 2 C 1.092474 -2.840582 3.121977 0
M  V30 3 C 2.348826 -2.128482 2.903429 0
M  V30 4 C 2.294102 -1.438710 1.747544 0
M  V30 5 N 3.055843 -0.317857 1.456457 0
M  V30 6 C 3.816415 0.801124 1.163542 0
M  V30 7 C 4.938588 1.513400 1.286136 0
M  V30 8 N 5.000283 2.640710 0.832176 0
M  V30 9 C 3.875673 3.129853 0.221116 0
M  V30 10 N 3.351303 4.118458 -0.443787 0
M  V30 11 C 2.171671 4.205060 -0.984353 0
M  V30 12 C 1.466242 3.082735 -0.773490 0
M  V30 13 F 0.186809 2.847051 -1.214029 0
M  V30 14 C 1.791406 1.836517 -0.077866 0
M  V30 15 C 3.136049 1.920216 0.453441 0
M  V30 16 N 1.205729 -1.431360 0.869623 0
M  V30 17 C 0.138161 -2.096842 1.136213 0
M  V30 18 C -1.169966 -1.978443 0.358943 0
M  V30 19 C -1.408864 -0.455930 0.266252 0
M  V30 20 C -2.767181 -0.158302 -0.370965 0
M  V30 21 C -3.815547 -0.816202 0.448413 0
M  V30 22 C -3.616874 -2.289040 0.413129 0
M  V30 23 C -3.551161 -2.839075 -1.003528 0
M  V30 24 C -2.378345 -2.164687 -1.708418 0
M  V30 25 C -2.654618 -0.677123 -1.780197 0
M  V30 26 C -1.079491 -2.486125 -1.035561 0
M  V30 27 C -2.303676 -2.622390 1.094254 0
M  V30 28 N -0.016025 -2.823852 2.242510 0
M  V30 29 H 0.413564 -2.704559 5.064613 0
M  V30 30 H 1.681027 -4.001334 4.856244 0
M  V30 31 H -0.079671 -4.209542 4.291698 0
M  V30 32 H 3.112293 -2.155381 3.654389 0
M  V30 33 H 3.085494 0.086569 2.451009 0
M  V30 34 H 5.792224 1.063413 1.813372 0
M  V30 35 H 5.674196 3.452061 0.840567 0
M  V30 36 H 1.536544 4.796156 -1.567921 0
M  V30 37 H 1.109671 1.076297 0.045406 0
M  V30 38 H -0.679562 -0.142072 -0.543792 0
M  V30 39 H -1.225963 0.069921 1.185977 0
M  V30 40 H -2.851949 0.971778 -0.375398 0
M  V30 41 H -3.637941 -0.500449 1.527021 0
M  V30 42 H -4.847436 -0.501032 0.208144 0
M  V30 43 H -4.456975 -2.761882 0.960860 0
M  V30 44 H -4.458811 -2.622714 -1.611287 0
M  V30 45 H -3.344400 -3.914791 -0.903322 0
M  V30 46 H -2.434957 -2.522766 -2.763813 0
M  V30 47 H -3.552284 -0.530480 -2.408276 0
M  V30 48 H -1.740984 -0.228986 -2.223460 0
M  V30 49 H -0.937580 -3.587329 -1.117995 0
M  V30 50 H -0.253998 -1.999791 -1.612915 0
M  V30 51 H -2.292455 -2.297284 2.170690 0
M  V30 52 H -2.160329 -3.706850 1.028288 0
M  V30 END ATOM
M  V30 BEGIN BOND
M  V30 1 1 1 2
M  V30 2 2 2 3
M  V30 3 1 3 4
M  V30 4 1 4 5
M  V30 5 1 5 6
M  V30 6 2 6 7
M  V30 7 1 7 8
M  V30 8 1 8 9
M  V30 9 2 9 10
M  V30 10 1 10 11
M  V30 11 2 11 12
M  V30 12 1 12 13
M  V30 13 1 12 14
M  V30 14 2 14 15
M  V30 15 2 4 16
M  V30 16 1 16 17
M  V30 17 1 17 18
M  V30 18 1 18 19
M  V30 19 1 19 20
M  V30 20 1 20 21
M  V30 21 1 21 22
M  V30 22 1 22 23
M  V30 23 1 23 24
M  V30 24 1 24 25
M  V30 25 1 24 26
M  V30 26 1 22 27
M  V30 27 2 17 28
M  V30 28 1 28 2
M  V30 29 1 15 6
M  V30 30 1 26 18
M  V30 31 1 15 9
M  V30 32 1 27 18
M  V30 33 1 25 20
M  V30 34 1 1 29
M  V30 35 1 1 30
M  V30 36 1 1 31
M  V30 37 1 3 32
M  V30 38 1 5 33
M  V30 39 1 7 34
M  V30 40 1 8 35
M  V30 41 1 11 36
M  V30 42 1 14 37
M  V30 43 1 19 38
M  V30 44 1 19 39
M  V30 45 1 20 40
M  V30 46 1 21 41
M  V30 47 1 21 42
M  V30 48 1 22 43
M  V30 49 1 23 44
M  V30 50 1 23 45
M  V30 51 1 24 46
M  V30 52 1 25 47
M  V30 53 1 25 48
M  V30 54 1 26 49
M  V30 55 1 26 50
M  V30 56 1 27 51
M  V30 57 1 27 52
M  V30 END BOND
M  V30 END CTAB
M  END
>  <Dataset>  (334) 
ChEMBL_Kinases

>  <Ligand_Instance>  (334) 
nan

>  <PDB_ID>  (334) 
nan

>  <Standardized_SMILES>  (334) 
Cc1cc(Nc2c[nH]c3ncc(F)cc23)nc(C23CC4CC(CC(C4)C2)C3)n1

>  <Name>  (334) 
nan

>  <Pocket>  (334) 
nan

>  <ATP_Site>  (334) 
nan

>  <Peripheral>  (334) 
nan

>  <Num_H_Atoms_ProtBoundConf>  (334) 
nan

>  <Num_Resolved_Atoms>  (334) 
nan

>  <Num_Not_Resolved_Atoms>  (334) 
nan

$$$$
CHEMBL3652550
     RDKit          3D

  0  0  0  0  0  0  0  0  0  0999 V3000
M  V30 BEGIN CTAB
M  V30 COUNTS 50 53 0 0 0
M  V30 BEGIN ATOM
M  V30 1 C -0.177478 -2.937002 3.595060 0
M  V30 2 C 0.897235 -1.940695 3.223853 0
M  V30 3 C 0.598826 -0.621066 3.937729 0
M  V30 4 O 2.130223 -2.460310 3.550704 0
M  V30 5 C 0.877426 -1.588497 1.768828 0
M  V30 6 C 1.903489 -0.813382 1.204902 0
M  V30 7 C 1.886999 -0.474957 -0.144117 0
M  V30 8 N 2.932634 0.319298 -0.691786 0
M  V30 9 C 2.484236 1.629868 -1.002611 0
M  V30 10 N 2.181588 1.857723 -2.294730 0
M  V30 11 N 1.775141 3.101910 -2.453668 0
M  V30 12 C 1.810053 3.707839 -1.241228 0
M  V30 13 N 1.519942 4.943922 -0.748632 0
M  V30 14 C 1.674295 5.197705 0.561288 0
M  V30 15 C 2.119971 4.281502 1.494391 0
M  V30 16 F 2.276420 4.528736 2.813664 0
M  V30 17 C 2.434828 2.993708 1.040504 0
M  V30 18 C 2.254389 2.796295 -0.312510 0
M  V30 19 N 0.843017 -0.918406 -0.904944 0
M  V30 20 C -0.139323 -1.656747 -0.371789 0
M  V30 21 C -1.226536 -2.073334 -1.290721 0
M  V30 22 C -2.508479 -1.364801 -0.960227 0
M  V30 23 C -3.365752 -2.040391 0.046250 0
M  V30 24 C -3.156099 -3.510286 0.217808 0
M  V30 25 C -2.753865 -4.053577 -1.141145 0
M  V30 26 C -1.339282 -3.558095 -1.342466 0
M  V30 27 N -0.130364 -1.990116 0.935557 0
M  V30 28 H 0.313870 -3.914987 3.806561 0
M  V30 29 H -0.605032 -2.613821 4.564629 0
M  V30 30 H -1.003620 -3.016407 2.882886 0
M  V30 31 H 0.559125 0.238618 3.247838 0
M  V30 32 H 1.359003 -0.381370 4.715622 0
M  V30 33 H -0.415271 -0.708453 4.400456 0
M  V30 34 H 2.796225 -1.783215 3.866746 0
M  V30 35 H 2.730709 -0.459520 1.793085 0
M  V30 36 H 3.891620 -0.067395 -0.826312 0
M  V30 37 H 1.470774 3.566134 -3.342997 0
M  V30 38 H 1.458005 6.156492 1.014115 0
M  V30 39 H 2.790633 2.212767 1.685877 0
M  V30 40 H -0.953893 -1.723461 -2.309744 0
M  V30 41 H -2.240746 -0.358339 -0.565759 0
M  V30 42 H -3.127281 -1.165947 -1.860624 0
M  V30 43 H -3.246680 -1.591245 1.076016 0
M  V30 44 H -4.449115 -1.875369 -0.179771 0
M  V30 45 H -4.090831 -3.950714 0.597972 0
M  V30 46 H -2.331814 -3.711047 0.937548 0
M  V30 47 H -2.666768 -5.177610 -1.128434 0
M  V30 48 H -3.454804 -3.684365 -1.907523 0
M  V30 49 H -0.730320 -3.977044 -0.511288 0
M  V30 50 H -0.955804 -4.011987 -2.277599 0
M  V30 END ATOM
M  V30 BEGIN BOND
M  V30 1 1 1 2
M  V30 2 1 2 3
M  V30 3 1 2 4
M  V30 4 1 2 5
M  V30 5 2 5 6
M  V30 6 1 6 7
M  V30 7 1 7 8
M  V30 8 1 8 9
M  V30 9 2 9 10
M  V30 10 1 10 11
M  V30 11 1 11 12
M  V30 12 2 12 13
M  V30 13 1 13 14
M  V30 14 2 14 15
M  V30 15 1 15 16
M  V30 16 1 15 17
M  V30 17 2 17 18
M  V30 18 2 7 19
M  V30 19 1 19 20
M  V30 20 1 20 21
M  V30 21 1 21 22
M  V30 22 1 22 23
M  V30 23 1 23 24
M  V30 24 1 24 25
M  V30 25 1 25 26
M  V30 26 2 20 27
M  V30 27 1 27 5
M  V30 28 1 18 9
M  V30 29 1 26 21
M  V30 30 1 18 12
M  V30 31 1 1 28
M  V30 32 1 1 29
M  V30 33 1 1 30
M  V30 34 1 3 31
M  V30 35 1 3 32
M  V30 36 1 3 33
M  V30 37 1 4 34
M  V30 38 1 6 35
M  V30 39 1 8 36
M  V30 40 1 11 37
M  V30 41 1 14 38
M  V30 42 1 17 39
M  V30 43 1 21 40
M  V30 44 1 22 41
M  V30 45 1 22 42
M  V30 46 1 23 43
M  V30 47 1 23 44
M  V30 48 1 24 45
M  V30 49 1 24 46
M  V30 50 1 25 47
M  V30 51 1 25 48
M  V30 52 1 26 49
M  V30 53 1 26 50
M  V30 END BOND
M  V30 END CTAB
M  END
>  <Dataset>  (335) 
ChEMBL_Kinases

>  <Ligand_Instance>  (335) 
nan

>  <PDB_ID>  (335) 
nan

>  <Standardized_SMILES>  (335) 
CC(C)(O)c1cc(Nc2n[nH]c3ncc(F)cc23)nc(C2CCCCC2)n1

>  <Name>  (335) 
nan

>  <Pocket>  (335) 
nan

>  <ATP_Site>  (335) 
nan

>  <Peripheral>  (335) 
nan

>  <Num_H_Atoms_ProtBoundConf>  (335) 
nan

>  <Num_Resolved_Atoms>  (335) 
nan

>  <Num_Not_Resolved_Atoms>  (335) 
nan

$$$$
CHEMBL3652627
     RDKit          3D

  0  0  0  0  0  0  0  0  0  0999 V3000
M  V30 BEGIN CTAB
M  V30 COUNTS 57 60 0 0 0
M  V30 BEGIN ATOM
M  V30 1 C -2.672435 -4.698101 3.170161 0
M  V30 2 N -2.174811 -3.371935 2.997631 0
M  V30 3 N -2.466572 -2.370113 3.848126 0
M  V30 4 C -1.870917 -1.248552 3.463586 0
M  V30 5 C -1.177909 -1.589354 2.312886 0
M  V30 6 N -0.468592 -0.495972 1.743515 0
M  V30 7 C -1.045903 0.383477 0.761788 0
M  V30 8 O -2.248023 0.164811 0.392350 0
M  V30 9 C -0.330127 1.500200 0.175562 0
M  V30 10 N 0.920388 1.783917 0.513608 0
M  V30 11 C 1.635158 2.804814 0.004777 0
M  V30 12 C 3.009477 3.066228 0.417004 0
M  V30 13 C 3.778998 4.097116 -0.078449 0
M  V30 14 C 5.079386 4.347704 0.307421 0
M  V30 15 C 5.647725 3.512554 1.250499 0
M  V30 16 C 4.885965 2.469390 1.759716 0
M  V30 17 C 3.568026 2.226563 1.359541 0
M  V30 18 F 2.932270 1.185689 1.924732 0
M  V30 19 C 0.966758 3.569072 -0.925179 0
M  V30 20 C -0.339391 3.340976 -1.334125 0
M  V30 21 C -0.988582 2.272159 -0.756121 0
M  V30 22 N -2.327201 1.994130 -1.139829 0
M  V30 23 C -1.369213 -2.923454 2.020273 0
M  V30 24 N -0.805989 -3.554705 0.895694 0
M  V30 25 C -1.214059 -4.911007 0.582308 0
M  V30 26 C -1.041110 -5.265584 -0.887179 0
M  V30 27 C -1.873704 -4.369253 -1.769946 0
M  V30 28 C -1.886051 -2.939267 -1.261775 0
M  V30 29 N -2.555553 -2.148865 -2.279277 0
M  V30 30 C -0.440377 -2.482692 -1.220600 0
M  V30 31 C 0.177284 -2.899220 0.064543 0
M  V30 32 H -3.655142 -4.905162 2.677506 0
M  V30 33 H -1.930432 -5.513983 3.049318 0
M  V30 34 H -2.950830 -4.815752 4.270105 0
M  V30 35 H -2.023327 -0.355098 4.066658 0
M  V30 36 H 0.531024 -0.209982 1.975752 0
M  V30 37 H 3.372158 4.760001 -0.806405 0
M  V30 38 H 5.649500 5.166151 -0.104309 0
M  V30 39 H 6.663797 3.647838 1.600369 0
M  V30 40 H 5.368995 1.824207 2.508725 0
M  V30 41 H 1.456487 4.410393 -1.390161 0
M  V30 42 H -0.811155 3.973182 -2.065870 0
M  V30 43 H -3.021991 2.432737 -0.467514 0
M  V30 44 H -2.238510 1.417449 -2.004160 0
M  V30 45 H -0.530719 -5.588851 1.124416 0
M  V30 46 H -2.291948 -5.076743 0.765181 0
M  V30 47 H 0.030922 -5.189071 -1.142947 0
M  V30 48 H -1.357698 -6.298181 -1.014495 0
M  V30 49 H -1.447652 -4.344111 -2.793074 0
M  V30 50 H -2.928935 -4.706565 -1.812084 0
M  V30 51 H -2.402709 -2.818308 -0.297735 0
M  V30 52 H -2.642191 -1.140011 -2.027309 0
M  V30 53 H -3.464479 -2.583781 -2.549252 0
M  V30 54 H 0.066673 -2.929729 -2.112991 0
M  V30 55 H -0.443761 -1.391036 -1.421307 0
M  V30 56 H 1.006685 -3.628475 -0.222049 0
M  V30 57 H 0.752337 -2.101595 0.571482 0
M  V30 END ATOM
M  V30 BEGIN BOND
M  V30 1 1 1 2
M  V30 2 1 2 3
M  V30 3 2 3 4
M  V30 4 1 4 5
M  V30 5 1 5 6
M  V30 6 1 6 7
M  V30 7 2 7 8
M  V30 8 1 7 9
M  V30 9 2 9 10
M  V30 10 1 10 11
M  V30 11 1 11 12
M  V30 12 2 12 13
M  V30 13 1 13 14
M  V30 14 2 14 15
M  V30 15 1 15 16
M  V30 16 2 16 17
M  V30 17 1 17 18
M  V30 18 2 11 19
M  V30 19 1 19 20
M  V30 20 2 20 21
M  V30 21 1 21 22
M  V30 22 2 5 23
M  V30 23 1 23 24
M  V30 24 1 24 25
M  V30 25 1 25 26
M  V30 26 1 26 27
M  V30 27 1 27 28
M  V30 28 1 28 29
M  V30 29 1 28 30
M  V30 30 1 30 31
M  V30 31 1 23 2
M  V30 32 1 31 24
M  V30 33 1 21 9
M  V30 34 1 17 12
M  V30 35 1 1 32
M  V30 36 1 1 33
M  V30 37 1 1 34
M  V30 38 1 4 35
M  V30 39 1 6 36
M  V30 40 1 13 37
M  V30 41 1 14 38
M  V30 42 1 15 39
M  V30 43 1 16 40
M  V30 44 1 19 41
M  V30 45 1 20 42
M  V30 46 1 22 43
M  V30 47 1 22 44
M  V30 48 1 25 45
M  V30 49 1 25 46
M  V30 50 1 26 47
M  V30 51 1 26 48
M  V30 52 1 27 49
M  V30 53 1 27 50
M  V30 54 1 28 51
M  V30 55 1 29 52
M  V30 56 1 29 53
M  V30 57 1 30 54
M  V30 58 1 30 55
M  V30 59 1 31 56
M  V30 60 1 31 57
M  V30 END BOND
M  V30 END CTAB
M  END
>  <Dataset>  (336) 
ChEMBL_Kinases

>  <Ligand_Instance>  (336) 
nan

>  <PDB_ID>  (336) 
nan

>  <Standardized_SMILES>  (336) 
Cn1ncc(NC(=O)c2nc(-c3ccccc3F)ccc2N)c1N1CCCC(N)CC1

>  <Name>  (336) 
nan

>  <Pocket>  (336) 
nan

>  <ATP_Site>  (336) 
nan

>  <Peripheral>  (336) 
nan

>  <Num_H_Atoms_ProtBoundConf>  (336) 
nan

>  <Num_Resolved_Atoms>  (336) 
nan

>  <Num_Not_Resolved_Atoms>  (336) 
nan

$$$$
CHEMBL3652551
     RDKit          3D

  0  0  0  0  0  0  0  0  0  0999 V3000
M  V30 BEGIN CTAB
M  V30 COUNTS 44 47 0 0 0
M  V30 BEGIN ATOM
M  V30 1 C 1.664837 -4.848076 2.535961 0
M  V30 2 C 1.566154 -3.411526 2.142155 0
M  V30 3 C 2.674938 -2.745352 1.658532 0
M  V30 4 C 2.523035 -1.426863 1.304936 0
M  V30 5 N 3.584533 -0.608473 0.775391 0
M  V30 6 C 3.246007 -0.521874 -0.619695 0
M  V30 7 N 3.454453 -1.230979 -1.745527 0
M  V30 8 N 2.882043 -0.639304 -2.774780 0
M  V30 9 C 2.259980 0.489766 -2.412379 0
M  V30 10 C 1.523230 1.491813 -3.005089 0
M  V30 11 C 0.987165 2.579008 -2.351666 0
M  V30 12 C 1.205470 2.672043 -0.989356 0
M  V30 13 F 0.705632 3.722290 -0.271983 0
M  V30 14 C 1.936630 1.682058 -0.383456 0
M  V30 15 C 2.484231 0.578300 -1.034184 0
M  V30 16 N 1.308157 -0.815851 1.434676 0
M  V30 17 C 0.219729 -1.481652 1.912585 0
M  V30 18 C -1.073748 -0.773484 2.004232 0
M  V30 19 C -1.853320 -0.885007 0.696971 0
M  V30 20 C -3.129618 -0.085810 0.886160 0
M  V30 21 C -3.415379 0.242545 2.326443 0
M  V30 22 C -2.331658 1.042684 2.996901 0
M  V30 23 C -0.998502 0.663437 2.350324 0
M  V30 24 N 0.379582 -2.758943 2.252805 0
M  V30 25 H 1.400993 -4.912029 3.610577 0
M  V30 26 H 0.859738 -5.375499 1.983488 0
M  V30 27 H 2.661500 -5.223632 2.307948 0
M  V30 28 H 3.641298 -3.210867 1.548742 0
M  V30 29 H 4.433604 -0.143252 1.203392 0
M  V30 30 H 2.904824 -1.000917 -3.752504 0
M  V30 31 H 1.348389 1.419809 -4.083927 0
M  V30 32 H 0.414205 3.339728 -2.864771 0
M  V30 33 H 2.075892 1.810611 0.692229 0
M  V30 34 H -1.726496 -1.299563 2.749313 0
M  V30 35 H -1.279210 -0.416054 -0.126530 0
M  V30 36 H -2.111105 -1.947325 0.459882 0
M  V30 37 H -4.002481 -0.708006 0.540666 0
M  V30 38 H -3.118710 0.857496 0.294417 0
M  V30 39 H -3.672701 -0.680344 2.902274 0
M  V30 40 H -4.321908 0.875955 2.327068 0
M  V30 41 H -2.516248 2.133687 2.985967 0
M  V30 42 H -2.276935 0.673470 4.062812 0
M  V30 43 H -0.988275 1.254184 1.389130 0
M  V30 44 H -0.132071 0.950976 2.957455 0
M  V30 END ATOM
M  V30 BEGIN BOND
M  V30 1 1 1 2
M  V30 2 2 2 3
M  V30 3 1 3 4
M  V30 4 1 4 5
M  V30 5 1 5 6
M  V30 6 2 6 7
M  V30 7 1 7 8
M  V30 8 1 8 9
M  V30 9 2 9 10
M  V30 10 1 10 11
M  V30 11 2 11 12
M  V30 12 1 12 13
M  V30 13 1 12 14
M  V30 14 2 14 15
M  V30 15 2 4 16
M  V30 16 1 16 17
M  V30 17 1 17 18
M  V30 18 1 18 19
M  V30 19 1 19 20
M  V30 20 1 20 21
M  V30 21 1 21 22
M  V30 22 1 22 23
M  V30 23 2 17 24
M  V30 24 1 24 2
M  V30 25 1 15 6
M  V30 26 1 23 18
M  V30 27 1 15 9
M  V30 28 1 1 25
M  V30 29 1 1 26
M  V30 30 1 1 27
M  V30 31 1 3 28
M  V30 32 1 5 29
M  V30 33 1 8 30
M  V30 34 1 10 31
M  V30 35 1 11 32
M  V30 36 1 14 33
M  V30 37 1 18 34
M  V30 38 1 19 35
M  V30 39 1 19 36
M  V30 40 1 20 37
M  V30 41 1 20 38
M  V30 42 1 21 39
M  V30 43 1 21 40
M  V30 44 1 22 41
M  V30 45 1 22 42
M  V30 46 1 23 43
M  V30 47 1 23 44
M  V30 END BOND
M  V30 END CTAB
M  END
>  <Dataset>  (337) 
ChEMBL_Kinases

>  <Ligand_Instance>  (337) 
nan

>  <PDB_ID>  (337) 
nan

>  <Standardized_SMILES>  (337) 
Cc1cc(Nc2n[nH]c3ccc(F)cc23)nc(C2CCCCC2)n1

>  <Name>  (337) 
nan

>  <Pocket>  (337) 
nan

>  <ATP_Site>  (337) 
nan

>  <Peripheral>  (337) 
nan

>  <Num_H_Atoms_ProtBoundConf>  (337) 
nan

>  <Num_Resolved_Atoms>  (337) 
nan

>  <Num_Not_Resolved_Atoms>  (337) 
nan

$$$$
CHEMBL3652626
     RDKit          3D

  0  0  0  0  0  0  0  0  0  0999 V3000
M  V30 BEGIN CTAB
M  V30 COUNTS 54 57 0 0 0
M  V30 BEGIN ATOM
M  V30 1 C -1.796257 -4.792157 3.691847 0
M  V30 2 N -1.075864 -3.552198 3.499912 0
M  V30 3 N -0.378087 -2.979311 4.497310 0
M  V30 4 C 0.179809 -1.844635 4.049049 0
M  V30 5 C -0.209783 -1.751770 2.731255 0
M  V30 6 N 0.302775 -0.587041 2.095658 0
M  V30 7 C 1.571821 -0.556806 1.411119 0
M  V30 8 O 2.182851 -1.660582 1.429169 0
M  V30 9 C 2.130876 0.619335 0.748050 0
M  V30 10 N 1.475263 1.773555 0.745316 0
M  V30 11 C 1.941943 2.764552 0.190113 0
M  V30 12 C 1.401808 4.176831 0.046310 0
M  V30 13 C 2.157149 5.102741 -0.642562 0
M  V30 14 F 3.354731 4.798268 -1.191075 0
M  V30 15 C 1.580967 6.352161 -0.717233 0
M  V30 16 C 0.357888 6.684461 -0.163865 0
M  V30 17 C -0.322472 5.692068 0.505250 0
M  V30 18 C 0.175626 4.403947 0.633627 0
M  V30 19 F -0.471062 3.404435 1.287096 0
M  V30 20 S 3.490484 2.314621 -0.502998 0
M  V30 21 C 3.350773 0.532014 0.119921 0
M  V30 22 N 4.223663 -0.562991 -0.012203 0
M  V30 23 C -1.001848 -2.821875 2.371053 0
M  V30 24 N -1.533499 -2.990293 1.065162 0
M  V30 25 C -2.261897 -4.187707 0.751820 0
M  V30 26 C -2.351490 -4.576597 -0.677295 0
M  V30 27 C -1.166005 -4.234941 -1.528946 0
M  V30 28 C -1.481238 -2.869875 -2.130100 0
M  V30 29 N -0.214082 -2.249674 -2.456614 0
M  V30 30 C -2.157601 -1.993926 -1.081070 0
M  V30 31 C -1.296291 -1.916855 0.156115 0
M  V30 32 H -2.830309 -4.790046 3.307543 0
M  V30 33 H -1.207504 -5.700856 3.445262 0
M  V30 34 H -1.960550 -4.917410 4.815163 0
M  V30 35 H 0.771396 -1.286012 4.760180 0
M  V30 36 H -0.194991 0.356639 2.076465 0
M  V30 37 H 2.102055 7.151362 -1.241717 0
M  V30 38 H -0.049040 7.680969 -0.251830 0
M  V30 39 H -1.296990 5.899699 0.963691 0
M  V30 40 H 4.854365 -0.786707 0.785997 0
M  V30 41 H 4.292424 -1.180806 -0.859913 0
M  V30 42 H -3.303824 -4.095784 1.126661 0
M  V30 43 H -1.686442 -5.020545 1.253898 0
M  V30 44 H -3.312887 -4.242132 -1.170545 0
M  V30 45 H -2.442792 -5.703259 -0.744400 0
M  V30 46 H -1.046669 -4.954159 -2.353623 0
M  V30 47 H -0.245527 -4.195841 -0.919935 0
M  V30 48 H -2.152322 -2.956926 -2.981642 0
M  V30 49 H -0.015368 -2.406217 -3.479922 0
M  V30 50 H 0.568727 -2.722700 -1.958611 0
M  V30 51 H -3.204060 -2.231042 -0.906381 0
M  V30 52 H -2.152941 -0.971165 -1.540138 0
M  V30 53 H -1.505810 -0.915973 0.592408 0
M  V30 54 H -0.250933 -2.024296 -0.231103 0
M  V30 END ATOM
M  V30 BEGIN BOND
M  V30 1 1 1 2
M  V30 2 1 2 3
M  V30 3 2 3 4
M  V30 4 1 4 5
M  V30 5 1 5 6
M  V30 6 1 6 7
M  V30 7 2 7 8
M  V30 8 1 7 9
M  V30 9 1 9 10
M  V30 10 2 10 11
M  V30 11 1 11 12
M  V30 12 2 12 13
M  V30 13 1 13 14
M  V30 14 1 13 15
M  V30 15 2 15 16
M  V30 16 1 16 17
M  V30 17 2 17 18
M  V30 18 1 18 19
M  V30 19 1 11 20
M  V30 20 1 20 21
M  V30 21 1 21 22
M  V30 22 2 5 23
M  V30 23 1 23 24
M  V30 24 1 24 25
M  V30 25 1 25 26
M  V30 26 1 26 27
M  V30 27 1 27 28
M  V30 28 1 28 29
M  V30 29 1 28 30
M  V30 30 1 30 31
M  V30 31 1 23 2
M  V30 32 1 31 24
M  V30 33 2 21 9
M  V30 34 1 18 12
M  V30 35 1 1 32
M  V30 36 1 1 33
M  V30 37 1 1 34
M  V30 38 1 4 35
M  V30 39 1 6 36
M  V30 40 1 15 37
M  V30 41 1 16 38
M  V30 42 1 17 39
M  V30 43 1 22 40
M  V30 44 1 22 41
M  V30 45 1 25 42
M  V30 46 1 25 43
M  V30 47 1 26 44
M  V30 48 1 26 45
M  V30 49 1 27 46
M  V30 50 1 27 47
M  V30 51 1 28 48
M  V30 52 1 29 49
M  V30 53 1 29 50
M  V30 54 1 30 51
M  V30 55 1 30 52
M  V30 56 1 31 53
M  V30 57 1 31 54
M  V30 END BOND
M  V30 END CTAB
M  END
>  <Dataset>  (338) 
ChEMBL_Kinases

>  <Ligand_Instance>  (338) 
nan

>  <PDB_ID>  (338) 
nan

>  <Standardized_SMILES>  (338) 
Cn1ncc(NC(=O)c2nc(-c3c(F)cccc3F)sc2N)c1N1CCCC(N)CC1

>  <Name>  (338) 
nan

>  <Pocket>  (338) 
nan

>  <ATP_Site>  (338) 
nan

>  <Peripheral>  (338) 
nan

>  <Num_H_Atoms_ProtBoundConf>  (338) 
nan

>  <Num_Resolved_Atoms>  (338) 
nan

>  <Num_Not_Resolved_Atoms>  (338) 
nan

$$$$
CHEMBL3652020
     RDKit          3D

  0  0  0  0  0  0  0  0  0  0999 V3000
M  V30 BEGIN CTAB
M  V30 COUNTS 59 62 0 0 0
M  V30 BEGIN ATOM
M  V30 1 C 4.385924 -0.408887 2.529993 0
M  V30 2 C 3.748114 -1.245384 1.424326 0 CFG=1
M  V30 3 C 2.346454 -0.808935 1.131197 0
M  V30 4 C 2.214414 0.299545 0.154505 0 CFG=1
M  V30 5 C 1.969553 1.629548 0.771421 0
M  V30 6 C 2.980905 2.501351 1.145651 0
M  V30 7 C 2.728040 3.735600 1.718821 0
M  V30 8 N 1.462433 4.135218 1.934861 0
M  V30 9 C 0.430366 3.332684 1.592966 0
M  V30 10 C 0.677458 2.104361 1.022665 0
M  V30 11 N -0.392438 1.247463 0.656776 0
M  V30 12 C -1.013586 1.266044 -0.622313 0
M  V30 13 O -0.510249 2.125335 -1.393037 0
M  V30 14 C -2.113474 0.394043 -1.016874 0
M  V30 15 C -2.593816 0.550145 -2.299138 0
M  V30 16 C -3.633144 -0.280028 -2.659230 0
M  V30 17 C -4.095335 -1.177641 -1.726982 0
M  V30 18 F -5.113668 -1.965315 -2.132989 0
M  V30 19 C -3.618153 -1.334016 -0.450452 0
M  V30 20 C -4.073978 -2.263749 0.561033 0
M  V30 21 C -5.076399 -3.191833 0.477054 0
M  V30 22 C -5.456456 -4.042826 1.477126 0
M  V30 23 C -6.562072 -5.017368 1.283031 0
M  V30 24 F -6.449232 -5.508018 -0.003989 0
M  V30 25 F -7.799795 -4.440891 1.476244 0
M  V30 26 F -6.353361 -6.079346 2.147095 0
M  V30 27 C -4.795725 -3.989258 2.686460 0
M  V30 28 C -3.775581 -3.072841 2.829969 0
M  V30 29 C -3.435732 -2.237887 1.782722 0
M  V30 30 F -2.420040 -1.401107 2.081942 0
M  V30 31 N -2.607709 -0.504739 -0.146210 0
M  V30 32 C 3.318287 0.337475 -0.877436 0
M  V30 33 C 3.856988 -1.092445 -1.010548 0 CFG=1
M  V30 34 N 4.765253 -1.158954 -2.150316 0
M  V30 35 C 4.648820 -1.358280 0.241704 0 CFG=2
M  V30 36 O 5.234002 -2.638665 0.144576 0
M  V30 37 H 3.592001 0.121090 3.082889 0
M  V30 38 H 5.168046 0.257158 2.114062 0
M  V30 39 H 4.909766 -1.053197 3.281098 0
M  V30 40 H 3.653308 -2.279949 1.866732 0
M  V30 41 H 1.885443 -0.500583 2.094047 0
M  V30 42 H 1.741918 -1.705731 0.817666 0
M  V30 43 H 1.282181 0.099863 -0.452017 0
M  V30 44 H 3.991032 2.219297 0.990157 0
M  V30 45 H 3.528990 4.408404 2.007105 0
M  V30 46 H -0.591746 3.644844 1.762583 0
M  V30 47 H -0.732814 0.571255 1.374595 0
M  V30 48 H -2.207994 1.266628 -3.009535 0
M  V30 49 H -4.062440 -0.216049 -3.649102 0
M  V30 50 H -5.616676 -3.273820 -0.432936 0
M  V30 51 H -5.080705 -4.653496 3.490391 0
M  V30 52 H -3.297870 -3.073068 3.784885 0
M  V30 53 H 2.961862 0.616289 -1.895748 0
M  V30 54 H 4.154767 0.992779 -0.631703 0
M  V30 55 H 3.024767 -1.780279 -1.171016 0
M  V30 56 H 5.237874 -2.089481 -2.105998 0
M  V30 57 H 4.185233 -1.169880 -3.009629 0
M  V30 58 H 5.441842 -0.585471 0.307472 0
M  V30 59 H 4.623015 -3.271937 0.610927 0
M  V30 END ATOM
M  V30 BEGIN BOND
M  V30 1 1 1 2
M  V30 2 1 2 3
M  V30 3 1 3 4
M  V30 4 1 4 5
M  V30 5 2 5 6
M  V30 6 1 6 7
M  V30 7 2 7 8
M  V30 8 1 8 9
M  V30 9 2 9 10
M  V30 10 1 10 11
M  V30 11 1 11 12
M  V30 12 2 12 13
M  V30 13 1 12 14
M  V30 14 2 14 15
M  V30 15 1 15 16
M  V30 16 2 16 17
M  V30 17 1 17 18
M  V30 18 1 17 19
M  V30 19 1 19 20
M  V30 20 2 20 21
M  V30 21 1 21 22
M  V30 22 1 22 23
M  V30 23 1 23 24
M  V30 24 1 23 25
M  V30 25 1 23 26
M  V30 26 2 22 27
M  V30 27 1 27 28
M  V30 28 2 28 29
M  V30 29 1 29 30
M  V30 30 2 19 31
M  V30 31 1 4 32
M  V30 32 1 32 33
M  V30 33 1 33 34
M  V30 34 1 33 35
M  V30 35 1 35 36
M  V30 36 1 35 2
M  V30 37 1 10 5
M  V30 38 1 31 14
M  V30 39 1 29 20
M  V30 40 1 1 37
M  V30 41 1 1 38
M  V30 42 1 1 39
M  V30 43 1 2 40 CFG=1
M  V30 44 1 3 41
M  V30 45 1 3 42
M  V30 46 1 4 43 CFG=3
M  V30 47 1 6 44
M  V30 48 1 7 45
M  V30 49 1 9 46
M  V30 50 1 11 47
M  V30 51 1 15 48
M  V30 52 1 16 49
M  V30 53 1 21 50
M  V30 54 1 27 51
M  V30 55 1 28 52
M  V30 56 1 32 53
M  V30 57 1 32 54
M  V30 58 1 33 55 CFG=3
M  V30 59 1 34 56
M  V30 60 1 34 57
M  V30 61 1 35 58 CFG=1
M  V30 62 1 36 59
M  V30 END BOND
M  V30 END CTAB
M  END
>  <Dataset>  (339) 
ChEMBL_Kinases

>  <Ligand_Instance>  (339) 
nan

>  <PDB_ID>  (339) 
nan

>  <Standardized_SMILES>  (339) 
C[C@H]1C[C@@H](c2ccncc2NC(=O)c2ccc(F)c(-c3cc(C(F)(F)F)ccc3F)n2)C[C@@H](N)[C@@H]1O

>  <Name>  (339) 
nan

>  <Pocket>  (339) 
nan

>  <ATP_Site>  (339) 
nan

>  <Peripheral>  (339) 
nan

>  <Num_H_Atoms_ProtBoundConf>  (339) 
nan

>  <Num_Resolved_Atoms>  (339) 
nan

>  <Num_Not_Resolved_Atoms>  (339) 
nan

$$$$
CHEMBL3652625
     RDKit          3D

  0  0  0  0  0  0  0  0  0  0999 V3000
M  V30 BEGIN CTAB
M  V30 COUNTS 54 57 0 0 0
M  V30 BEGIN ATOM
M  V30 1 C -2.034407 -5.032419 3.223191 0
M  V30 2 N -1.767464 -3.620163 3.043383 0
M  V30 3 N -2.244025 -2.684690 3.886954 0
M  V30 4 C -1.829046 -1.484466 3.439473 0
M  V30 5 C -1.087642 -1.720408 2.300645 0
M  V30 6 N -0.588971 -0.525943 1.721570 0
M  V30 7 C -1.407594 0.191293 0.768385 0
M  V30 8 O -2.553448 -0.212758 0.435772 0
M  V30 9 C -0.908494 1.418855 0.165207 0
M  V30 10 N 0.312758 1.876272 0.501508 0
M  V30 11 C 0.856852 2.998086 -0.001966 0
M  V30 12 C 2.168865 3.369635 0.444953 0
M  V30 13 C 2.800169 2.559263 1.364611 0
M  V30 14 C 4.060250 2.825206 1.858706 0
M  V30 15 C 4.762701 3.936005 1.448536 0
M  V30 16 C 4.170842 4.774529 0.530212 0
M  V30 17 C 2.913050 4.461618 0.070827 0
M  V30 18 F 2.393459 5.319709 -0.822220 0
M  V30 19 C 0.042810 3.641478 -0.900993 0
M  V30 20 C -1.213254 3.229396 -1.288420 0
M  V30 21 C -1.721923 2.070047 -0.739000 0
M  V30 22 N -3.007886 1.566624 -1.077538 0
M  V30 23 C -1.050903 -3.072747 2.054517 0
M  V30 24 N -0.359055 -3.616725 0.959607 0
M  V30 25 C -0.239114 -5.018608 0.612476 0
M  V30 26 C -1.098801 -5.254071 -0.613758 0
M  V30 27 C -0.385255 -4.485343 -1.734904 0
M  V30 28 C -0.244831 -3.036859 -1.409910 0 CFG=1
M  V30 29 N -1.493417 -2.367634 -1.595018 0
M  V30 30 C 0.357678 -2.851764 -0.030633 0
M  V30 31 H -2.810644 -5.169842 4.043725 0
M  V30 32 H -2.514518 -5.517685 2.352567 0
M  V30 33 H -1.152051 -5.565094 3.628972 0
M  V30 34 H -2.149018 -0.635113 4.037611 0
M  V30 35 H 0.348752 -0.126591 1.945420 0
M  V30 36 H 2.331510 1.644572 1.762013 0
M  V30 37 H 4.522556 2.170849 2.575570 0
M  V30 38 H 5.745190 4.137979 1.837634 0
M  V30 39 H 4.703109 5.648959 0.196079 0
M  V30 40 H 0.392161 4.538764 -1.350198 0
M  V30 41 H -1.795036 3.777097 -1.993449 0
M  V30 42 H -3.246992 0.970947 -1.904777 0
M  V30 43 H -3.530896 1.975204 -0.281518 0
M  V30 44 H 0.815305 -5.244212 0.247702 0
M  V30 45 H -0.387389 -5.724012 1.421084 0
M  V30 46 H -1.053556 -6.325205 -0.878914 0
M  V30 47 H -2.128183 -4.907471 -0.506791 0
M  V30 48 H -0.878337 -4.617127 -2.700667 0
M  V30 49 H 0.615149 -4.962073 -1.814520 0
M  V30 50 H 0.477525 -2.594867 -2.127217 0
M  V30 51 H -2.301930 -2.865521 -1.152263 0
M  V30 52 H -1.656682 -2.251898 -2.621759 0
M  V30 53 H 1.389307 -3.320298 -0.118024 0
M  V30 54 H 0.551723 -1.814232 0.194246 0
M  V30 END ATOM
M  V30 BEGIN BOND
M  V30 1 1 1 2
M  V30 2 1 2 3
M  V30 3 2 3 4
M  V30 4 1 4 5
M  V30 5 1 5 6
M  V30 6 1 6 7
M  V30 7 2 7 8
M  V30 8 1 7 9
M  V30 9 2 9 10
M  V30 10 1 10 11
M  V30 11 1 11 12
M  V30 12 2 12 13
M  V30 13 1 13 14
M  V30 14 2 14 15
M  V30 15 1 15 16
M  V30 16 2 16 17
M  V30 17 1 17 18
M  V30 18 2 11 19
M  V30 19 1 19 20
M  V30 20 2 20 21
M  V30 21 1 21 22
M  V30 22 2 5 23
M  V30 23 1 23 24
M  V30 24 1 24 25
M  V30 25 1 25 26
M  V30 26 1 26 27
M  V30 27 1 27 28
M  V30 28 1 28 29
M  V30 29 1 28 30
M  V30 30 1 23 2
M  V30 31 1 30 24
M  V30 32 1 21 9
M  V30 33 1 17 12
M  V30 34 1 1 31
M  V30 35 1 1 32
M  V30 36 1 1 33
M  V30 37 1 4 34
M  V30 38 1 6 35
M  V30 39 1 13 36
M  V30 40 1 14 37
M  V30 41 1 15 38
M  V30 42 1 16 39
M  V30 43 1 19 40
M  V30 44 1 20 41
M  V30 45 1 22 42
M  V30 46 1 22 43
M  V30 47 1 25 44
M  V30 48 1 25 45
M  V30 49 1 26 46
M  V30 50 1 26 47
M  V30 51 1 27 48
M  V30 52 1 27 49
M  V30 53 1 28 50 CFG=3
M  V30 54 1 29 51
M  V30 55 1 29 52
M  V30 56 1 30 53
M  V30 57 1 30 54
M  V30 END BOND
M  V30 END CTAB
M  END
>  <Dataset>  (340) 
ChEMBL_Kinases

>  <Ligand_Instance>  (340) 
nan

>  <PDB_ID>  (340) 
nan

>  <Standardized_SMILES>  (340) 
Cn1ncc(NC(=O)c2nc(-c3ccccc3F)ccc2N)c1N1CCC[C@@H](N)C1

>  <Name>  (340) 
nan

>  <Pocket>  (340) 
nan

>  <ATP_Site>  (340) 
nan

>  <Peripheral>  (340) 
nan

>  <Num_H_Atoms_ProtBoundConf>  (340) 
nan

>  <Num_Resolved_Atoms>  (340) 
nan

>  <Num_Not_Resolved_Atoms>  (340) 
nan

$$$$
CHEMBL3652624
     RDKit          3D

  0  0  0  0  0  0  0  0  0  0999 V3000
M  V30 BEGIN CTAB
M  V30 COUNTS 54 57 0 0 0
M  V30 BEGIN ATOM
M  V30 1 C 3.837328 -3.964766 1.593501 0
M  V30 2 N 3.072908 -2.723959 1.520990 0
M  V30 3 N 3.700427 -1.651608 2.021854 0
M  V30 4 C 2.916103 -0.575766 1.905103 0
M  V30 5 C 1.741860 -0.959284 1.309773 0
M  V30 6 N 0.632908 -0.172078 0.979837 0
M  V30 7 C -0.654620 -0.313632 0.425623 0
M  V30 8 O -0.928344 -1.494944 0.127808 0
M  V30 9 C -1.585005 0.780153 0.211494 0
M  V30 10 N -1.232684 2.039724 0.526330 0
M  V30 11 C -2.046497 3.092672 0.344977 0
M  V30 12 C -1.554058 4.411146 0.716139 0
M  V30 13 C -0.278481 4.511436 1.232486 0
M  V30 14 C 0.286908 5.710618 1.613377 0
M  V30 15 C -0.437126 6.891768 1.483840 0
M  V30 16 C -1.704049 6.751662 0.965867 0
M  V30 17 C -2.306854 5.578292 0.573303 0
M  V30 18 C -3.288084 2.827891 -0.189229 0
M  V30 19 C -3.664856 1.523657 -0.519732 0
M  V30 20 C -2.809560 0.449202 -0.324855 0
M  V30 21 N -3.197661 -0.887348 -0.664945 0
M  V30 22 C 1.869783 -2.302220 1.082994 0
M  V30 23 N 1.139326 -3.361137 0.534570 0
M  V30 24 C 0.305560 -4.190836 1.398780 0
M  V30 25 C 0.469366 -5.655759 1.018770 0
M  V30 26 C 0.127429 -5.788029 -0.448828 0
M  V30 27 N -1.271015 -5.529843 -0.614839 0
M  V30 28 C 1.034399 -4.991077 -1.319193 0
M  V30 29 C 1.290018 -3.583762 -0.907238 0
M  V30 30 H 3.464117 -4.645469 0.770879 0
M  V30 31 H 4.905078 -3.831775 1.398356 0
M  V30 32 H 3.694224 -4.384965 2.589161 0
M  V30 33 H 3.189080 0.432956 2.235917 0
M  V30 34 H 0.786279 0.855939 1.208916 0
M  V30 35 H 0.353469 3.625433 1.364364 0
M  V30 36 H 1.290831 5.729503 2.013484 0
M  V30 37 H -0.041707 7.854225 1.765525 0
M  V30 38 H -2.272476 7.685794 0.865105 0
M  V30 39 H -3.304448 5.510550 0.171593 0
M  V30 40 H -3.953282 3.646795 -0.342479 0
M  V30 41 H -4.645537 1.321265 -0.939482 0
M  V30 42 H -3.432081 -1.258477 -1.612946 0
M  V30 43 H -3.306221 -1.694616 -0.018406 0
M  V30 44 H 0.567014 -3.994937 2.436538 0
M  V30 45 H -0.750261 -3.947818 1.200679 0
M  V30 46 H 1.491066 -6.009227 1.149220 0
M  V30 47 H -0.205349 -6.241124 1.640164 0
M  V30 48 H 0.287212 -6.869557 -0.734525 0
M  V30 49 H -1.487471 -4.633008 -1.060263 0
M  V30 50 H -1.864882 -6.332948 -0.838629 0
M  V30 51 H 2.008713 -5.540827 -1.383158 0
M  V30 52 H 0.614404 -4.972923 -2.357949 0
M  V30 53 H 0.673171 -2.904772 -1.514887 0
M  V30 54 H 2.364588 -3.345642 -1.197034 0
M  V30 END ATOM
M  V30 BEGIN BOND
M  V30 1 1 1 2
M  V30 2 1 2 3
M  V30 3 2 3 4
M  V30 4 1 4 5
M  V30 5 1 5 6
M  V30 6 1 6 7
M  V30 7 2 7 8
M  V30 8 1 7 9
M  V30 9 2 9 10
M  V30 10 1 10 11
M  V30 11 1 11 12
M  V30 12 2 12 13
M  V30 13 1 13 14
M  V30 14 2 14 15
M  V30 15 1 15 16
M  V30 16 2 16 17
M  V30 17 2 11 18
M  V30 18 1 18 19
M  V30 19 2 19 20
M  V30 20 1 20 21
M  V30 21 2 5 22
M  V30 22 1 22 23
M  V30 23 1 23 24
M  V30 24 1 24 25
M  V30 25 1 25 26
M  V30 26 1 26 27
M  V30 27 1 26 28
M  V30 28 1 28 29
M  V30 29 1 22 2
M  V30 30 1 29 23
M  V30 31 1 20 9
M  V30 32 1 17 12
M  V30 33 1 1 30
M  V30 34 1 1 31
M  V30 35 1 1 32
M  V30 36 1 4 33
M  V30 37 1 6 34
M  V30 38 1 13 35
M  V30 39 1 14 36
M  V30 40 1 15 37
M  V30 41 1 16 38
M  V30 42 1 17 39
M  V30 43 1 18 40
M  V30 44 1 19 41
M  V30 45 1 21 42
M  V30 46 1 21 43
M  V30 47 1 24 44
M  V30 48 1 24 45
M  V30 49 1 25 46
M  V30 50 1 25 47
M  V30 51 1 26 48
M  V30 52 1 27 49
M  V30 53 1 27 50
M  V30 54 1 28 51
M  V30 55 1 28 52
M  V30 56 1 29 53
M  V30 57 1 29 54
M  V30 END BOND
M  V30 END CTAB
M  END
>  <Dataset>  (341) 
ChEMBL_Kinases

>  <Ligand_Instance>  (341) 
nan

>  <PDB_ID>  (341) 
nan

>  <Standardized_SMILES>  (341) 
Cn1ncc(NC(=O)c2nc(-c3ccccc3)ccc2N)c1N1CCC(N)CC1

>  <Name>  (341) 
nan

>  <Pocket>  (341) 
nan

>  <ATP_Site>  (341) 
nan

>  <Peripheral>  (341) 
nan

>  <Num_H_Atoms_ProtBoundConf>  (341) 
nan

>  <Num_Resolved_Atoms>  (341) 
nan

>  <Num_Not_Resolved_Atoms>  (341) 
nan

$$$$
CHEMBL3955445
     RDKit          3D

  0  0  0  0  0  0  0  0  0  0999 V3000
M  V30 BEGIN CTAB
M  V30 COUNTS 44 46 0 0 0
M  V30 BEGIN ATOM
M  V30 1 C -2.901014 -2.757662 3.792538 0
M  V30 2 O -2.663750 -3.288187 2.492611 0
M  V30 3 C -1.876426 -2.635589 1.564232 0
M  V30 4 C -1.250814 -1.409393 1.818772 0
M  V30 5 C -0.462947 -0.753879 0.893131 0
M  V30 6 C 0.145648 0.522189 1.257378 0
M  V30 7 O -0.099576 0.938450 2.417245 0
M  V30 8 N 0.960978 1.249524 0.365962 0
M  V30 9 C 1.535943 2.499389 0.772131 0 CFG=2
M  V30 10 C 1.054797 3.662238 -0.066761 0
M  V30 11 O 1.371587 3.500186 -1.409719 0
M  V30 12 C 3.001721 2.508088 0.771027 0
M  V30 13 C 3.700904 1.973443 -0.290050 0
M  V30 14 C 5.092797 1.985689 -0.283474 0
M  V30 15 C 5.786577 2.538660 0.796157 0
M  V30 16 C 5.118719 3.083230 1.876376 0
M  V30 17 C 3.749508 3.037248 1.803115 0
M  V30 18 C -0.309101 -1.370597 -0.331926 0
M  V30 19 C -0.919632 -2.581022 -0.599700 0
M  V30 20 C -1.706326 -3.231316 0.330522 0
M  V30 21 C -2.334656 -4.507243 0.012264 0
M  V30 22 C -2.392548 -5.646240 0.800053 0
M  V30 23 N -3.065693 -6.616607 0.141788 0
M  V30 24 N -3.449744 -6.143807 -1.054895 0
M  V30 25 C -3.014635 -4.872630 -1.144566 0
M  V30 26 H -3.395652 -3.473665 4.449614 0
M  V30 27 H -1.924903 -2.392139 4.215683 0
M  V30 28 H -3.565644 -1.880200 3.661847 0
M  V30 29 H -1.429657 -1.004411 2.805367 0
M  V30 30 H 1.162945 0.901216 -0.597063 0
M  V30 31 H 1.207992 2.697904 1.818064 0
M  V30 32 H -0.031686 3.820936 0.093513 0
M  V30 33 H 1.571718 4.574355 0.300080 0
M  V30 34 H 1.794325 4.306828 -1.799276 0
M  V30 35 H 3.223601 1.534508 -1.147866 0
M  V30 36 H 5.627151 1.552840 -1.142207 0
M  V30 37 H 6.866745 2.529275 0.764076 0
M  V30 38 H 5.629866 3.516505 2.722856 0
M  V30 39 H 3.158053 3.452309 2.627477 0
M  V30 40 H 0.300949 -0.883542 -1.077196 0
M  V30 41 H -0.789893 -3.059371 -1.574425 0
M  V30 42 H -1.952411 -5.718674 1.795927 0
M  V30 43 H -3.987215 -6.649838 -1.795518 0
M  V30 44 H -3.140717 -4.179816 -1.967575 0
M  V30 END ATOM
M  V30 BEGIN BOND
M  V30 1 1 1 2
M  V30 2 1 2 3
M  V30 3 2 3 4
M  V30 4 1 4 5
M  V30 5 1 5 6
M  V30 6 2 6 7
M  V30 7 1 6 8
M  V30 8 1 8 9
M  V30 9 1 9 10
M  V30 10 1 10 11
M  V30 11 1 9 12
M  V30 12 2 12 13
M  V30 13 1 13 14
M  V30 14 2 14 15
M  V30 15 1 15 16
M  V30 16 2 16 17
M  V30 17 2 5 18
M  V30 18 1 18 19
M  V30 19 2 19 20
M  V30 20 1 20 21
M  V30 21 1 21 22
M  V30 22 2 22 23
M  V30 23 1 23 24
M  V30 24 1 24 25
M  V30 25 1 20 3
M  V30 26 2 25 21
M  V30 27 1 17 12
M  V30 28 1 1 26
M  V30 29 1 1 27
M  V30 30 1 1 28
M  V30 31 1 4 29
M  V30 32 1 8 30
M  V30 33 1 9 31 CFG=1
M  V30 34 1 10 32
M  V30 35 1 10 33
M  V30 36 1 11 34
M  V30 37 1 13 35
M  V30 38 1 14 36
M  V30 39 1 15 37
M  V30 40 1 16 38
M  V30 41 1 17 39
M  V30 42 1 18 40
M  V30 43 1 19 41
M  V30 44 1 22 42
M  V30 45 1 24 43
M  V30 46 1 25 44
M  V30 END BOND
M  V30 END CTAB
M  END
>  <Dataset>  (342) 
ChEMBL_Kinases

>  <Ligand_Instance>  (342) 
nan

>  <PDB_ID>  (342) 
nan

>  <Standardized_SMILES>  (342) 
COc1cc(C(=O)N[C@H](CO)c2ccccc2)ccc1-c1cn[nH]c1

>  <Name>  (342) 
nan

>  <Pocket>  (342) 
nan

>  <ATP_Site>  (342) 
nan

>  <Peripheral>  (342) 
nan

>  <Num_H_Atoms_ProtBoundConf>  (342) 
nan

>  <Num_Resolved_Atoms>  (342) 
nan

>  <Num_Not_Resolved_Atoms>  (342) 
nan

$$$$
CHEMBL3954695
     RDKit          3D

  0  0  0  0  0  0  0  0  0  0999 V3000
M  V30 BEGIN CTAB
M  V30 COUNTS 53 56 0 0 0
M  V30 BEGIN ATOM
M  V30 1 O 1.068724 -2.545955 4.023301 0
M  V30 2 C 1.991408 -3.318244 3.758763 0
M  V30 3 O 1.780785 -4.177447 4.814564 0
M  V30 4 C 3.088875 -3.607653 2.839865 0
M  V30 5 C 3.448262 -2.925091 1.785907 0
M  V30 6 C 2.708653 -1.729500 1.435808 0
M  V30 7 O 1.725745 -1.235680 2.031505 0
M  V30 8 N 3.040267 -0.941586 0.309982 0
M  V30 9 C 2.484512 0.240563 -0.228056 0
M  V30 10 C 3.021626 0.787263 -1.346074 0
M  V30 11 C 2.557130 1.933388 -1.949204 0
M  V30 12 C 1.477722 2.605472 -1.419711 0
M  V30 13 C 0.890216 2.098850 -0.285467 0
M  V30 14 C -0.252222 2.794908 0.292656 0
M  V30 15 N -0.328716 4.129514 0.481713 0
M  V30 16 N -1.484539 4.475698 1.023269 0
M  V30 17 C -2.209887 3.357404 1.207065 0
M  V30 18 C -3.467429 3.149024 1.727372 0
M  V30 19 C -3.905645 1.845823 1.764381 0
M  V30 20 C -3.203137 0.720763 1.328109 0
M  V30 21 N -3.776790 -0.575259 1.418429 0
M  V30 22 S -3.853955 -1.838379 0.274783 0
M  V30 23 O -4.665101 -2.951406 0.848348 0
M  V30 24 O -4.579050 -1.397219 -0.990814 0
M  V30 25 C -2.321606 -2.448774 -0.234818 0
M  V30 26 C -1.785214 -3.484926 0.539228 0
M  V30 27 C -0.579319 -4.106798 0.295131 0
M  V30 28 C 0.161083 -3.687780 -0.785330 0
M  V30 29 N 1.414766 -4.263093 -1.121870 0 CHG=1 VAL=4
M  V30 30 O 1.903291 -5.190207 -0.436190 0
M  V30 31 O 2.075789 -3.772175 -2.222299 0 CHG=-1 VAL=1
M  V30 32 C -0.329555 -2.671529 -1.572928 0
M  V30 33 C -1.536645 -2.052792 -1.324247 0
M  V30 34 C -1.949144 1.021169 0.820272 0
M  V30 35 C -1.452450 2.297279 0.754802 0
M  V30 36 C 1.414463 0.948057 0.256940 0
M  V30 37 H 0.915115 -4.576542 5.099326 0
M  V30 38 H 3.724857 -4.467417 2.985838 0
M  V30 39 H 4.278594 -3.209407 1.154018 0
M  V30 40 H 3.877053 -1.330866 -0.227234 0
M  V30 41 H 3.885388 0.341152 -1.858807 0
M  V30 42 H 3.012684 2.337668 -2.839871 0
M  V30 43 H 1.105089 3.504570 -1.883883 0
M  V30 44 H -1.793057 5.443976 1.270194 0
M  V30 45 H -4.104202 3.940483 2.096010 0
M  V30 46 H -4.896015 1.675897 2.173467 0
M  V30 47 H -4.201448 -0.689106 2.388496 0
M  V30 48 H -2.312106 -3.881081 1.421958 0
M  V30 49 H -0.197474 -4.890595 0.899838 0
M  V30 50 H 0.165969 -2.260651 -2.447609 0
M  V30 51 H -1.990133 -1.252823 -1.890244 0
M  V30 52 H -1.356728 0.198625 0.468089 0
M  V30 53 H 0.899569 0.618458 1.142829 0
M  V30 END ATOM
M  V30 BEGIN BOND
M  V30 1 2 1 2
M  V30 2 1 2 3
M  V30 3 1 2 4
M  V30 4 2 4 5
M  V30 5 1 5 6
M  V30 6 2 6 7
M  V30 7 1 6 8
M  V30 8 1 8 9
M  V30 9 2 9 10
M  V30 10 1 10 11
M  V30 11 2 11 12
M  V30 12 1 12 13
M  V30 13 1 13 14
M  V30 14 2 14 15
M  V30 15 1 15 16
M  V30 16 1 16 17
M  V30 17 2 17 18
M  V30 18 1 18 19
M  V30 19 2 19 20
M  V30 20 1 20 21
M  V30 21 1 21 22
M  V30 22 2 22 23
M  V30 23 2 22 24
M  V30 24 1 22 25
M  V30 25 2 25 26
M  V30 26 1 26 27
M  V30 27 2 27 28
M  V30 28 1 28 29
M  V30 29 2 29 30
M  V30 30 1 29 31
M  V30 31 1 28 32
M  V30 32 2 32 33
M  V30 33 1 20 34
M  V30 34 2 34 35
M  V30 35 2 13 36
M  V30 36 1 36 9
M  V30 37 1 35 14
M  V30 38 1 35 17
M  V30 39 1 33 25
M  V30 40 1 3 37
M  V30 41 1 4 38
M  V30 42 1 5 39
M  V30 43 1 8 40
M  V30 44 1 10 41
M  V30 45 1 11 42
M  V30 46 1 12 43
M  V30 47 1 16 44
M  V30 48 1 18 45
M  V30 49 1 19 46
M  V30 50 1 21 47
M  V30 51 1 26 48
M  V30 52 1 27 49
M  V30 53 1 32 50
M  V30 54 1 33 51
M  V30 55 1 34 52
M  V30 56 1 36 53
M  V30 END BOND
M  V30 END CTAB
M  END
>  <Dataset>  (343) 
ChEMBL_Kinases

>  <Ligand_Instance>  (343) 
nan

>  <PDB_ID>  (343) 
nan

>  <Standardized_SMILES>  (343) 
O=C(O)/C=C\C(=O)Nc1cccc(-c2n[nH]c3ccc(NS(=O)(=O)c4ccc([N+](=O)[O-])cc4)cc23)c1

>  <Name>  (343) 
nan

>  <Pocket>  (343) 
nan

>  <ATP_Site>  (343) 
nan

>  <Peripheral>  (343) 
nan

>  <Num_H_Atoms_ProtBoundConf>  (343) 
nan

>  <Num_Resolved_Atoms>  (343) 
nan

>  <Num_Not_Resolved_Atoms>  (343) 
nan

$$$$
CHEMBL3954429
     RDKit          3D

  0  0  0  0  0  0  0  0  0  0999 V3000
M  V30 BEGIN CTAB
M  V30 COUNTS 68 72 0 0 0
M  V30 BEGIN ATOM
M  V30 1 C 5.774501 0.347179 5.833451 0
M  V30 2 C 6.523067 0.812605 4.633152 0
M  V30 3 N 5.696561 1.471414 3.650300 0
M  V30 4 C 6.432819 1.920572 2.481662 0
M  V30 5 C 5.418039 2.133349 1.359719 0
M  V30 6 N 4.145633 2.449901 1.979467 0
M  V30 7 C 2.903705 1.896329 1.574316 0
M  V30 8 C 2.800010 1.022106 0.518805 0
M  V30 9 C 1.548263 0.532203 0.210089 0
M  V30 10 C 0.377606 0.839714 0.866789 0
M  V30 11 N -0.911751 0.339588 0.570688 0
M  V30 12 C -1.297086 -0.580895 -0.439489 0
M  V30 13 N -0.470042 -1.143517 -1.328952 0
M  V30 14 C -0.814632 -2.020179 -2.282114 0
M  V30 15 C -2.128117 -2.375949 -2.357767 0
M  V30 16 C -2.611457 -3.262304 -3.289324 0
M  V30 17 C -1.632937 -3.840651 -4.228415 0
M  V30 18 C -3.979561 -3.535792 -3.257394 0
M  V30 19 C -4.370871 -4.489691 -4.294925 0
M  V30 20 C -4.832804 -4.427654 -5.714129 0
M  V30 21 O -4.277193 -5.650124 -3.818636 0
M  V30 22 C -4.812335 -2.937923 -2.324961 0
M  V30 23 O -6.000131 -3.367196 -2.529571 0
M  V30 24 N -4.316960 -2.057032 -1.401695 0
M  V30 25 C -5.361788 -1.579393 -0.559763 0
M  V30 26 C -5.866820 -2.745565 0.261093 0
M  V30 27 C -4.705819 -2.831096 1.265652 0
M  V30 28 C -4.512213 -1.360372 1.663220 0
M  V30 29 C -5.032489 -0.618342 0.506820 0
M  V30 30 C -2.997890 -1.816205 -1.460680 0
M  V30 31 N -2.576820 -0.952050 -0.542955 0
M  V30 32 N 0.546698 1.698504 1.887023 0
M  V30 33 C 1.738124 2.207629 2.234052 0
M  V30 34 C 4.370958 3.395793 3.051749 0
M  V30 35 C 4.914111 2.549526 4.215028 0
M  V30 36 H 4.672611 0.241940 5.642535 0
M  V30 37 H 6.129894 -0.668729 6.104505 0
M  V30 38 H 5.970140 0.967272 6.733082 0
M  V30 39 H 7.094960 -0.019574 4.187083 0
M  V30 40 H 7.272048 1.575333 4.995504 0
M  V30 41 H 7.040807 2.825029 2.685125 0
M  V30 42 H 7.124378 1.129742 2.165592 0
M  V30 43 H 5.728637 2.965529 0.695931 0
M  V30 44 H 5.410400 1.213508 0.760152 0
M  V30 45 H 3.647818 0.717902 -0.061055 0
M  V30 46 H 1.504050 -0.149181 -0.621178 0
M  V30 47 H -1.693872 0.705704 1.191182 0
M  V30 48 H -0.098242 -2.444787 -2.977426 0
M  V30 49 H -1.171282 -3.094691 -4.905644 0
M  V30 50 H -0.850410 -4.443722 -3.683766 0
M  V30 51 H -2.167735 -4.574463 -4.894470 0
M  V30 52 H -5.883910 -4.777228 -5.699705 0
M  V30 53 H -4.848017 -3.381902 -6.078358 0
M  V30 54 H -4.180227 -5.001455 -6.378140 0
M  V30 55 H -6.228069 -1.208556 -1.202921 0
M  V30 56 H -6.765319 -2.439546 0.860459 0
M  V30 57 H -6.014815 -3.676918 -0.261325 0
M  V30 58 H -3.811462 -3.121217 0.689973 0
M  V30 59 H -4.937564 -3.461000 2.124095 0
M  V30 60 H -3.503886 -1.143125 2.015785 0
M  V30 61 H -5.170652 -1.222408 2.570011 0
M  V30 62 H -6.028358 -0.160955 0.824709 0
M  V30 63 H -4.452349 0.268166 0.199587 0
M  V30 64 H 1.684244 2.879118 3.077593 0
M  V30 65 H 3.418508 3.832041 3.411031 0
M  V30 66 H 5.118285 4.180855 2.808528 0
M  V30 67 H 4.029602 2.103599 4.711940 0
M  V30 68 H 5.462189 3.178369 4.912049 0
M  V30 END ATOM
M  V30 BEGIN BOND
M  V30 1 1 1 2
M  V30 2 1 2 3
M  V30 3 1 3 4
M  V30 4 1 4 5
M  V30 5 1 5 6
M  V30 6 1 6 7
M  V30 7 2 7 8
M  V30 8 1 8 9
M  V30 9 2 9 10
M  V30 10 1 10 11
M  V30 11 1 11 12
M  V30 12 2 12 13
M  V30 13 1 13 14
M  V30 14 2 14 15
M  V30 15 1 15 16
M  V30 16 1 16 17
M  V30 17 2 16 18
M  V30 18 1 18 19
M  V30 19 1 19 20
M  V30 20 2 19 21
M  V30 21 1 18 22
M  V30 22 2 22 23
M  V30 23 1 22 24
M  V30 24 1 24 25
M  V30 25 1 25 26
M  V30 26 1 26 27
M  V30 27 1 27 28
M  V30 28 1 28 29
M  V30 29 1 24 30
M  V30 30 2 30 31
M  V30 31 1 10 32
M  V30 32 2 32 33
M  V30 33 1 6 34
M  V30 34 1 34 35
M  V30 35 1 35 3
M  V30 36 1 33 7
M  V30 37 1 31 12
M  V30 38 1 30 15
M  V30 39 1 29 25
M  V30 40 1 1 36
M  V30 41 1 1 37
M  V30 42 1 1 38
M  V30 43 1 2 39
M  V30 44 1 2 40
M  V30 45 1 4 41
M  V30 46 1 4 42
M  V30 47 1 5 43
M  V30 48 1 5 44
M  V30 49 1 8 45
M  V30 50 1 9 46
M  V30 51 1 11 47
M  V30 52 1 14 48
M  V30 53 1 17 49
M  V30 54 1 17 50
M  V30 55 1 17 51
M  V30 56 1 20 52
M  V30 57 1 20 53
M  V30 58 1 20 54
M  V30 59 1 25 55
M  V30 60 1 26 56
M  V30 61 1 26 57
M  V30 62 1 27 58
M  V30 63 1 27 59
M  V30 64 1 28 60
M  V30 65 1 28 61
M  V30 66 1 29 62
M  V30 67 1 29 63
M  V30 68 1 33 64
M  V30 69 1 34 65
M  V30 70 1 34 66
M  V30 71 1 35 67
M  V30 72 1 35 68
M  V30 END BOND
M  V30 END CTAB
M  END
>  <Dataset>  (344) 
ChEMBL_Kinases

>  <Ligand_Instance>  (344) 
nan

>  <PDB_ID>  (344) 
nan

>  <Standardized_SMILES>  (344) 
CCN1CCN(c2ccc(Nc3ncc4c(C)c(C(C)=O)c(=O)n(C5CCCC5)c4n3)nc2)CC1

>  <Name>  (344) 
nan

>  <Pocket>  (344) 
nan

>  <ATP_Site>  (344) 
nan

>  <Peripheral>  (344) 
nan

>  <Num_H_Atoms_ProtBoundConf>  (344) 
nan

>  <Num_Resolved_Atoms>  (344) 
nan

>  <Num_Not_Resolved_Atoms>  (344) 
nan

$$$$
CHEMBL3652620
     RDKit          3D

  0  0  0  0  0  0  0  0  0  0999 V3000
M  V30 BEGIN CTAB
M  V30 COUNTS 34 36 0 0 0
M  V30 BEGIN ATOM
M  V30 1 C -1.484455 -6.798275 2.053609 0
M  V30 2 N -1.127253 -5.418195 2.319629 0
M  V30 3 C -0.939820 -4.473433 1.359936 0
M  V30 4 C -0.610134 -3.264651 1.929937 0
M  V30 5 N -0.326219 -2.005623 1.333933 0
M  V30 6 C -0.336174 -1.766018 -0.064841 0
M  V30 7 O -0.608161 -2.699132 -0.860844 0
M  V30 8 C -0.034434 -0.445429 -0.609842 0
M  V30 9 N 0.273021 0.671195 -0.014797 0
M  V30 10 C 0.507795 1.696084 -0.424340 0
M  V30 11 C 0.881692 3.109057 0.024045 0
M  V30 12 C 1.088727 4.116573 -0.856316 0
M  V30 13 F 0.973076 3.913539 -2.168790 0
M  V30 14 C 1.422882 5.342024 -0.267746 0
M  V30 15 C 1.524416 5.473610 1.118669 0
M  V30 16 C 1.292410 4.376538 1.944977 0
M  V30 17 C 0.959283 3.151546 1.374720 0
M  V30 18 F 0.746478 2.126166 2.228461 0
M  V30 19 S 0.347170 1.423476 -2.294104 0
M  V30 20 C -0.070148 -0.299897 -2.059684 0
M  V30 21 N -0.346536 -1.197861 -3.125779 0
M  V30 22 C -0.608058 -3.527966 3.283918 0
M  V30 23 N -0.920740 -4.822413 3.481089 0
M  V30 24 H -1.356833 -7.359041 2.995776 0
M  V30 25 H -2.567103 -6.863278 1.785749 0
M  V30 26 H -0.909920 -7.231518 1.213357 0
M  V30 27 H -1.039846 -4.663675 0.307282 0
M  V30 28 H -0.092412 -1.187209 1.935820 0
M  V30 29 H 1.601751 6.193497 -0.933420 0
M  V30 30 H 1.783199 6.424867 1.563350 0
M  V30 31 H 1.371846 4.480125 3.026374 0
M  V30 32 H 0.268104 -1.838528 -3.652309 0
M  V30 33 H -1.273966 -1.361415 -3.572892 0
M  V30 34 H -0.391245 -2.818221 4.083315 0
M  V30 END ATOM
M  V30 BEGIN BOND
M  V30 1 1 1 2
M  V30 2 1 2 3
M  V30 3 2 3 4
M  V30 4 1 4 5
M  V30 5 1 5 6
M  V30 6 2 6 7
M  V30 7 1 6 8
M  V30 8 1 8 9
M  V30 9 2 9 10
M  V30 10 1 10 11
M  V30 11 2 11 12
M  V30 12 1 12 13
M  V30 13 1 12 14
M  V30 14 2 14 15
M  V30 15 1 15 16
M  V30 16 2 16 17
M  V30 17 1 17 18
M  V30 18 1 10 19
M  V30 19 1 19 20
M  V30 20 1 20 21
M  V30 21 1 4 22
M  V30 22 2 22 23
M  V30 23 1 23 2
M  V30 24 2 20 8
M  V30 25 1 17 11
M  V30 26 1 1 24
M  V30 27 1 1 25
M  V30 28 1 1 26
M  V30 29 1 3 27
M  V30 30 1 5 28
M  V30 31 1 14 29
M  V30 32 1 15 30
M  V30 33 1 16 31
M  V30 34 1 21 32
M  V30 35 1 21 33
M  V30 36 1 22 34
M  V30 END BOND
M  V30 END CTAB
M  END
>  <Dataset>  (345) 
ChEMBL_Kinases

>  <Ligand_Instance>  (345) 
nan

>  <PDB_ID>  (345) 
nan

>  <Standardized_SMILES>  (345) 
Cn1cc(NC(=O)c2nc(-c3c(F)cccc3F)sc2N)cn1

>  <Name>  (345) 
nan

>  <Pocket>  (345) 
nan

>  <ATP_Site>  (345) 
nan

>  <Peripheral>  (345) 
nan

>  <Num_H_Atoms_ProtBoundConf>  (345) 
nan

>  <Num_Resolved_Atoms>  (345) 
nan

>  <Num_Not_Resolved_Atoms>  (345) 
nan

$$$$
CHEMBL3652623
     RDKit          3D

  0  0  0  0  0  0  0  0  0  0999 V3000
M  V30 BEGIN CTAB
M  V30 COUNTS 51 54 0 0 0
M  V30 BEGIN ATOM
M  V30 1 C -3.555122 -3.696714 2.393037 0
M  V30 2 N -3.113372 -2.399917 1.917501 0
M  V30 3 N -3.870156 -1.299944 1.957464 0
M  V30 4 C -3.157977 -0.291269 1.434465 0
M  V30 5 C -1.904673 -0.791561 1.054544 0
M  V30 6 N -1.034193 0.167314 0.492928 0
M  V30 7 C -0.672314 0.707312 -0.767824 0
M  V30 8 O -1.236202 0.271451 -1.789245 0
M  V30 9 C 0.347740 1.759092 -0.850250 0
M  V30 10 N 1.012588 2.314139 0.141500 0
M  V30 11 C 1.826873 3.160675 0.071912 0
M  V30 12 C 2.593926 3.798423 1.248207 0
M  V30 13 C 2.338195 3.395323 2.536570 0
M  V30 14 C 3.081261 4.035359 3.496818 0
M  V30 15 C 3.997322 4.996507 3.160788 0
M  V30 16 C 4.278601 5.426230 1.860939 0
M  V30 17 C 3.503834 4.753669 0.905639 0
M  V30 18 F 3.731268 5.123964 -0.379185 0
M  V30 19 S 1.986860 3.550786 -1.672815 0
M  V30 20 C 0.659646 2.242817 -2.114044 0
M  V30 21 N 0.189698 1.929127 -3.410063 0
M  V30 22 C -1.917380 -2.128771 1.376327 0
M  V30 23 N -0.804372 -2.946336 1.151928 0
M  V30 24 C -0.376883 -3.921709 2.143127 0
M  V30 25 C -0.332013 -5.263200 1.502603 0
M  V30 26 C -0.842280 -5.348969 0.110339 0
M  V30 27 C -0.501986 -4.220428 -0.798284 0 CFG=2
M  V30 28 N 0.355909 -4.620307 -1.892037 0
M  V30 29 C 0.048892 -2.998424 -0.046266 0
M  V30 30 H -3.224995 -3.918293 3.432499 0
M  V30 31 H -4.685135 -3.688675 2.489303 0
M  V30 32 H -3.369142 -4.516776 1.673656 0
M  V30 33 H -3.645040 0.676274 1.397182 0
M  V30 34 H -0.498751 0.591893 1.314903 0
M  V30 35 H 1.605459 2.643008 2.652875 0
M  V30 36 H 2.906991 3.745941 4.521781 0
M  V30 37 H 4.588933 5.505153 3.934208 0
M  V30 38 H 4.994161 6.177971 1.595230 0
M  V30 39 H -0.769924 2.293207 -3.594147 0
M  V30 40 H 0.643699 1.408763 -4.176904 0
M  V30 41 H -0.863633 -3.842733 3.108151 0
M  V30 42 H 0.703194 -3.640184 2.339918 0
M  V30 43 H -0.970151 -5.939055 2.136789 0
M  V30 44 H 0.683171 -5.737487 1.551225 0
M  V30 45 H -1.938153 -5.562911 0.051443 0
M  V30 46 H -0.386655 -6.278516 -0.346538 0
M  V30 47 H -1.441046 -3.826055 -1.286775 0
M  V30 48 H 0.188060 -3.984161 -2.699199 0
M  V30 49 H 0.008962 -5.595177 -2.151998 0
M  V30 50 H 1.096585 -3.245375 0.203217 0
M  V30 51 H -0.012577 -2.098161 -0.658783 0
M  V30 END ATOM
M  V30 BEGIN BOND
M  V30 1 1 1 2
M  V30 2 1 2 3
M  V30 3 2 3 4
M  V30 4 1 4 5
M  V30 5 1 5 6
M  V30 6 1 6 7
M  V30 7 2 7 8
M  V30 8 1 7 9
M  V30 9 1 9 10
M  V30 10 2 10 11
M  V30 11 1 11 12
M  V30 12 2 12 13
M  V30 13 1 13 14
M  V30 14 2 14 15
M  V30 15 1 15 16
M  V30 16 2 16 17
M  V30 17 1 17 18
M  V30 18 1 11 19
M  V30 19 1 19 20
M  V30 20 1 20 21
M  V30 21 2 5 22
M  V30 22 1 22 23
M  V30 23 1 23 24
M  V30 24 1 24 25
M  V30 25 1 25 26
M  V30 26 1 26 27
M  V30 27 1 27 28
M  V30 28 1 27 29
M  V30 29 1 22 2
M  V30 30 1 29 23
M  V30 31 2 20 9
M  V30 32 1 17 12
M  V30 33 1 1 30
M  V30 34 1 1 31
M  V30 35 1 1 32
M  V30 36 1 4 33
M  V30 37 1 6 34
M  V30 38 1 13 35
M  V30 39 1 14 36
M  V30 40 1 15 37
M  V30 41 1 16 38
M  V30 42 1 21 39
M  V30 43 1 21 40
M  V30 44 1 24 41
M  V30 45 1 24 42
M  V30 46 1 25 43
M  V30 47 1 25 44
M  V30 48 1 26 45
M  V30 49 1 26 46
M  V30 50 1 27 47 CFG=3
M  V30 51 1 28 48
M  V30 52 1 28 49
M  V30 53 1 29 50
M  V30 54 1 29 51
M  V30 END BOND
M  V30 END CTAB
M  END
>  <Dataset>  (346) 
ChEMBL_Kinases

>  <Ligand_Instance>  (346) 
nan

>  <PDB_ID>  (346) 
nan

>  <Standardized_SMILES>  (346) 
Cn1ncc(NC(=O)c2nc(-c3ccccc3F)sc2N)c1N1CCC[C@H](N)C1

>  <Name>  (346) 
nan

>  <Pocket>  (346) 
nan

>  <ATP_Site>  (346) 
nan

>  <Peripheral>  (346) 
nan

>  <Num_H_Atoms_ProtBoundConf>  (346) 
nan

>  <Num_Resolved_Atoms>  (346) 
nan

>  <Num_Not_Resolved_Atoms>  (346) 
nan

$$$$
CHEMBL3652622
     RDKit          3D

  0  0  0  0  0  0  0  0  0  0999 V3000
M  V30 BEGIN CTAB
M  V30 COUNTS 54 57 0 0 0
M  V30 BEGIN ATOM
M  V30 1 C -0.890493 -4.855014 2.770197 0
M  V30 2 N -0.004006 -3.747211 2.994228 0
M  V30 3 N 0.641571 -3.435303 4.108528 0
M  V30 4 C 1.364548 -2.319660 3.957132 0
M  V30 5 C 1.153497 -1.907586 2.655306 0
M  V30 6 N 1.688703 -0.787750 2.019133 0
M  V30 7 C 2.762870 -0.286319 1.264479 0
M  V30 8 O 3.701085 -1.085222 0.983865 0
M  V30 9 C 2.886367 1.081422 0.774278 0
M  V30 10 N 1.988854 2.003013 1.032702 0
M  V30 11 C 1.964019 3.121818 0.696850 0
M  V30 12 C 1.002187 4.275374 0.905950 0
M  V30 13 C 1.227832 5.477595 0.316088 0
M  V30 14 F 2.286049 5.685638 -0.475138 0
M  V30 15 C 0.263564 6.402623 0.629030 0
M  V30 16 C -0.817816 6.172294 1.441181 0
M  V30 17 C -1.003507 4.927743 2.019751 0
M  V30 18 C -0.053380 3.972813 1.727285 0
M  V30 19 F -0.252828 2.751598 2.307920 0
M  V30 20 S 3.475842 3.306814 -0.283462 0
M  V30 21 C 3.931848 1.486818 0.009586 0
M  V30 22 N 5.062617 0.755591 -0.453010 0
M  V30 23 C 0.275859 -2.819796 2.031354 0
M  V30 24 N -0.101425 -2.645271 0.677764 0
M  V30 25 C -1.303551 -2.327178 -0.039400 0
M  V30 26 C -2.276568 -3.455573 -0.173515 0
M  V30 27 C -1.697966 -4.641467 -0.905172 0
M  V30 28 C -1.771247 -4.519678 -2.407862 0
M  V30 29 N -1.913022 -3.158944 -2.861055 0
M  V30 30 C -3.139722 -2.564866 -2.370379 0
M  V30 31 C -3.498265 -3.037393 -0.994697 0
M  V30 32 H -0.750264 -5.604622 3.599492 0
M  V30 33 H -0.686899 -5.323869 1.811951 0
M  V30 34 H -1.974555 -4.549357 2.904885 0
M  V30 35 H 1.977505 -1.878713 4.741970 0
M  V30 36 H 0.969330 -0.015322 2.193845 0
M  V30 37 H 0.354256 7.415005 0.198051 0
M  V30 38 H -1.521142 6.994752 1.616662 0
M  V30 39 H -1.857082 4.783010 2.652389 0
M  V30 40 H 5.612519 0.499054 0.395737 0
M  V30 41 H 5.182861 0.587420 -1.474364 0
M  V30 42 H 0.773621 -2.815922 0.091554 0
M  V30 43 H -1.831440 -1.465946 0.438002 0
M  V30 44 H -1.026011 -1.969710 -1.043251 0
M  V30 45 H -2.705843 -3.815757 0.773220 0
M  V30 46 H -2.299887 -5.524803 -0.632446 0
M  V30 47 H -0.648948 -4.863631 -0.562041 0
M  V30 48 H -0.869258 -4.939356 -2.899391 0
M  V30 49 H -2.643141 -5.089347 -2.845724 0
M  V30 50 H -1.969857 -3.170904 -3.901788 0
M  V30 51 H -3.953454 -2.801167 -3.103066 0
M  V30 52 H -2.995846 -1.465081 -2.376686 0
M  V30 53 H -4.122514 -2.340381 -0.435722 0
M  V30 54 H -4.076510 -3.995728 -1.093498 0
M  V30 END ATOM
M  V30 BEGIN BOND
M  V30 1 1 1 2
M  V30 2 1 2 3
M  V30 3 2 3 4
M  V30 4 1 4 5
M  V30 5 1 5 6
M  V30 6 1 6 7
M  V30 7 2 7 8
M  V30 8 1 7 9
M  V30 9 1 9 10
M  V30 10 2 10 11
M  V30 11 1 11 12
M  V30 12 2 12 13
M  V30 13 1 13 14
M  V30 14 1 13 15
M  V30 15 2 15 16
M  V30 16 1 16 17
M  V30 17 2 17 18
M  V30 18 1 18 19
M  V30 19 1 11 20
M  V30 20 1 20 21
M  V30 21 1 21 22
M  V30 22 2 5 23
M  V30 23 1 23 24
M  V30 24 1 24 25
M  V30 25 1 25 26
M  V30 26 1 26 27
M  V30 27 1 27 28
M  V30 28 1 28 29
M  V30 29 1 29 30
M  V30 30 1 30 31
M  V30 31 1 23 2
M  V30 32 1 31 26
M  V30 33 2 21 9
M  V30 34 1 18 12
M  V30 35 1 1 32
M  V30 36 1 1 33
M  V30 37 1 1 34
M  V30 38 1 4 35
M  V30 39 1 6 36
M  V30 40 1 15 37
M  V30 41 1 16 38
M  V30 42 1 17 39
M  V30 43 1 22 40
M  V30 44 1 22 41
M  V30 45 1 24 42
M  V30 46 1 25 43
M  V30 47 1 25 44
M  V30 48 1 26 45
M  V30 49 1 27 46
M  V30 50 1 27 47
M  V30 51 1 28 48
M  V30 52 1 28 49
M  V30 53 1 29 50
M  V30 54 1 30 51
M  V30 55 1 30 52
M  V30 56 1 31 53
M  V30 57 1 31 54
M  V30 END BOND
M  V30 END CTAB
M  END
>  <Dataset>  (347) 
ChEMBL_Kinases

>  <Ligand_Instance>  (347) 
nan

>  <PDB_ID>  (347) 
nan

>  <Standardized_SMILES>  (347) 
Cn1ncc(NC(=O)c2nc(-c3c(F)cccc3F)sc2N)c1NCC1CCNCC1

>  <Name>  (347) 
nan

>  <Pocket>  (347) 
nan

>  <ATP_Site>  (347) 
nan

>  <Peripheral>  (347) 
nan

>  <Num_H_Atoms_ProtBoundConf>  (347) 
nan

>  <Num_Resolved_Atoms>  (347) 
nan

>  <Num_Not_Resolved_Atoms>  (347) 
nan

$$$$
CHEMBL3652621
     RDKit          3D

  0  0  0  0  0  0  0  0  0  0999 V3000
M  V30 BEGIN CTAB
M  V30 COUNTS 48 51 0 0 0
M  V30 BEGIN ATOM
M  V30 1 N 2.687636 3.594480 3.696770 0
M  V30 2 C 2.423334 3.007562 2.468479 0
M  V30 3 S 3.249671 3.525221 0.862828 0
M  V30 4 C 2.280844 2.229086 -0.091131 0
M  V30 5 C 2.419048 2.009119 -1.603769 0
M  V30 6 C 1.576033 1.055707 -2.097232 0
M  V30 7 F 0.708818 0.387886 -1.305329 0
M  V30 8 C 1.706868 0.861355 -3.454574 0
M  V30 9 C 2.607379 1.571192 -4.216969 0
M  V30 10 C 3.418116 2.516237 -3.624673 0
M  V30 11 C 3.353126 2.777418 -2.261210 0
M  V30 12 F 4.134330 3.692327 -1.676653 0
M  V30 13 N 1.661500 1.746277 0.724301 0
M  V30 14 C 1.583044 1.974370 2.018314 0
M  V30 15 C 0.721187 1.273926 2.985872 0
M  V30 16 O 0.713279 1.647976 4.174364 0
M  V30 17 N -0.107238 0.179033 2.618506 0
M  V30 18 C -0.958433 -0.547698 3.456414 0
M  V30 19 C -1.232472 -0.340003 4.787940 0
M  V30 20 N -2.094156 -1.270743 5.212880 0
M  V30 21 N -2.381970 -2.069575 4.196807 0
M  V30 22 C -1.694020 -1.642791 3.107552 0
M  V30 23 N -1.763377 -2.287646 1.816085 0
M  V30 24 C -0.682983 -3.235684 1.684671 0
M  V30 25 C -0.468941 -3.776741 0.315899 0
M  V30 26 C -1.693495 -4.190526 -0.426220 0
M  V30 27 C -2.923585 -3.698337 0.299651 0 CFG=2
M  V30 28 N -4.105745 -3.778998 -0.514057 0
M  V30 29 C -2.629216 -2.232515 0.637160 0
M  V30 30 H 3.536567 3.197407 4.181275 0
M  V30 31 H 2.187158 4.351610 4.202298 0
M  V30 32 H 1.064122 0.114320 -3.917883 0
M  V30 33 H 2.676586 1.380511 -5.300929 0
M  V30 34 H 4.125237 3.071984 -4.221305 0
M  V30 35 H -0.027894 -0.066236 1.588634 0
M  V30 36 H -0.843415 0.433936 5.435508 0
M  V30 37 H -3.038326 -2.900507 4.229392 0
M  V30 38 H -0.747686 -4.067278 2.436824 0
M  V30 39 H 0.272249 -2.697790 1.968669 0
M  V30 40 H 0.216768 -3.139348 -0.316584 0
M  V30 41 H 0.140850 -4.721083 0.449139 0
M  V30 42 H -1.675765 -3.654714 -1.421633 0
M  V30 43 H -1.746442 -5.272447 -0.659368 0
M  V30 44 H -3.021905 -4.243143 1.279480 0
M  V30 45 H -4.939266 -3.683576 0.109757 0
M  V30 46 H -4.152683 -4.733520 -0.971543 0
M  V30 47 H -2.176795 -1.725838 -0.219448 0
M  V30 48 H -3.613916 -1.789416 0.849767 0
M  V30 END ATOM
M  V30 BEGIN BOND
M  V30 1 1 1 2
M  V30 2 1 2 3
M  V30 3 1 3 4
M  V30 4 1 4 5
M  V30 5 2 5 6
M  V30 6 1 6 7
M  V30 7 1 6 8
M  V30 8 2 8 9
M  V30 9 1 9 10
M  V30 10 2 10 11
M  V30 11 1 11 12
M  V30 12 2 4 13
M  V30 13 1 13 14
M  V30 14 1 14 15
M  V30 15 2 15 16
M  V30 16 1 15 17
M  V30 17 1 17 18
M  V30 18 1 18 19
M  V30 19 2 19 20
M  V30 20 1 20 21
M  V30 21 1 21 22
M  V30 22 1 22 23
M  V30 23 1 23 24
M  V30 24 1 24 25
M  V30 25 1 25 26
M  V30 26 1 26 27
M  V30 27 1 27 28
M  V30 28 1 27 29
M  V30 29 2 14 2
M  V30 30 2 22 18
M  V30 31 1 29 23
M  V30 32 1 11 5
M  V30 33 1 1 30
M  V30 34 1 1 31
M  V30 35 1 8 32
M  V30 36 1 9 33
M  V30 37 1 10 34
M  V30 38 1 17 35
M  V30 39 1 19 36
M  V30 40 1 21 37
M  V30 41 1 24 38
M  V30 42 1 24 39
M  V30 43 1 25 40
M  V30 44 1 25 41
M  V30 45 1 26 42
M  V30 46 1 26 43
M  V30 47 1 27 44 CFG=1
M  V30 48 1 28 45
M  V30 49 1 28 46
M  V30 50 1 29 47
M  V30 51 1 29 48
M  V30 END BOND
M  V30 END CTAB
M  END
>  <Dataset>  (348) 
ChEMBL_Kinases

>  <Ligand_Instance>  (348) 
nan

>  <PDB_ID>  (348) 
nan

>  <Standardized_SMILES>  (348) 
Nc1sc(-c2c(F)cccc2F)nc1C(=O)Nc1cn[nH]c1N1CCC[C@H](N)C1

>  <Name>  (348) 
nan

>  <Pocket>  (348) 
nan

>  <ATP_Site>  (348) 
nan

>  <Peripheral>  (348) 
nan

>  <Num_H_Atoms_ProtBoundConf>  (348) 
nan

>  <Num_Resolved_Atoms>  (348) 
nan

>  <Num_Not_Resolved_Atoms>  (348) 
nan

$$$$
CHEMBL3956489
     RDKit          3D

  0  0  0  0  0  0  0  0  0  0999 V3000
M  V30 BEGIN CTAB
M  V30 COUNTS 55 59 0 0 0
M  V30 BEGIN ATOM
M  V30 1 C 1.150819 2.588543 -0.851376 0
M  V30 2 C 1.985088 1.447381 -0.392963 0 CFG=1
M  V30 3 C 3.461398 1.758812 -0.401793 0 CFG=1
M  V30 4 N 3.712511 3.172928 -0.446683 0
M  V30 5 C 4.108456 1.122444 0.817754 0
M  V30 6 C 3.700316 -0.328317 0.926549 0
M  V30 7 C 2.212670 -0.395437 1.175205 0
M  V30 8 N 1.592536 0.916929 0.923493 0
M  V30 9 C 0.707154 1.677555 1.766299 0
M  V30 10 C 1.152612 2.894993 2.295683 0
M  V30 11 C 0.400789 3.705249 3.128133 0
M  V30 12 N -0.841728 3.273564 3.437154 0
M  V30 13 C -1.269151 2.110737 2.931941 0
M  V30 14 C -0.586000 1.250781 2.100861 0
M  V30 15 N -1.082995 0.040517 1.587415 0
M  V30 16 C -2.356048 -0.543507 1.834606 0
M  V30 17 N -3.358075 -0.080469 2.598585 0
M  V30 18 C -4.420021 -0.885794 2.609767 0
M  V30 19 C -4.047187 -1.927513 1.789945 0
M  V30 20 C -4.729691 -3.072552 1.411365 0
M  V30 21 C -4.154807 -4.003163 0.564155 0
M  V30 22 C -2.876548 -3.717101 0.129481 0
M  V30 23 C -2.091030 -4.561672 -0.765886 0
M  V30 24 C -1.220948 -5.584176 -0.392589 0
M  V30 25 F -1.132757 -5.769543 0.947165 0
M  V30 26 C -0.540545 -6.304527 -1.349363 0
M  V30 27 C -0.757270 -5.971838 -2.668105 0
M  V30 28 C -1.591356 -4.985874 -3.116658 0
M  V30 29 C -2.264992 -4.275754 -2.120588 0
M  V30 30 F -3.100027 -3.288214 -2.582303 0
M  V30 31 N -2.252927 -2.592918 0.523359 0
M  V30 32 N -2.806151 -1.706767 1.332955 0
M  V30 33 H 1.707807 3.107257 -1.674618 0
M  V30 34 H 0.231665 2.198216 -1.386256 0
M  V30 35 H 0.898596 3.335435 -0.101118 0
M  V30 36 H 1.821492 0.594074 -1.112812 0
M  V30 37 H 3.897833 1.301935 -1.311044 0
M  V30 38 H 4.089019 3.498539 -1.347250 0
M  V30 39 H 2.893820 3.699734 -0.138047 0
M  V30 40 H 3.822862 1.644518 1.749827 0
M  V30 41 H 5.210713 1.183527 0.702292 0
M  V30 42 H 3.989568 -0.895749 0.009465 0
M  V30 43 H 4.219839 -0.765252 1.816470 0
M  V30 44 H 2.068919 -0.587022 2.257651 0
M  V30 45 H 1.740919 -1.199898 0.563864 0
M  V30 46 H 2.134956 3.294931 2.087523 0
M  V30 47 H 0.769684 4.638582 3.521169 0
M  V30 48 H -2.272561 1.874495 3.249203 0
M  V30 49 H -0.462679 -0.495362 0.951783 0
M  V30 50 H -5.364733 -0.769044 3.133175 0
M  V30 51 H -5.731652 -3.260011 1.774584 0
M  V30 52 H -4.609564 -4.903356 0.227608 0
M  V30 53 H 0.120995 -7.086313 -1.008103 0
M  V30 54 H -0.221416 -6.538261 -3.432680 0
M  V30 55 H -1.715097 -4.777210 -4.169000 0
M  V30 END ATOM
M  V30 BEGIN BOND
M  V30 1 1 1 2
M  V30 2 1 2 3
M  V30 3 1 3 4
M  V30 4 1 3 5
M  V30 5 1 5 6
M  V30 6 1 6 7
M  V30 7 1 7 8
M  V30 8 1 8 9
M  V30 9 2 9 10
M  V30 10 1 10 11
M  V30 11 2 11 12
M  V30 12 1 12 13
M  V30 13 2 13 14
M  V30 14 1 14 15
M  V30 15 1 15 16
M  V30 16 2 16 17
M  V30 17 1 17 18
M  V30 18 2 18 19
M  V30 19 1 19 20
M  V30 20 2 20 21
M  V30 21 1 21 22
M  V30 22 1 22 23
M  V30 23 2 23 24
M  V30 24 1 24 25
M  V30 25 1 24 26
M  V30 26 2 26 27
M  V30 27 1 27 28
M  V30 28 2 28 29
M  V30 29 1 29 30
M  V30 30 2 22 31
M  V30 31 1 31 32
M  V30 32 1 8 2
M  V30 33 1 14 9
M  V30 34 1 32 16
M  V30 35 1 32 19
M  V30 36 1 29 23
M  V30 37 1 1 33
M  V30 38 1 1 34
M  V30 39 1 1 35
M  V30 40 1 2 36 CFG=3
M  V30 41 1 3 37 CFG=3
M  V30 42 1 4 38
M  V30 43 1 4 39
M  V30 44 1 5 40
M  V30 45 1 5 41
M  V30 46 1 6 42
M  V30 47 1 6 43
M  V30 48 1 7 44
M  V30 49 1 7 45
M  V30 50 1 10 46
M  V30 51 1 11 47
M  V30 52 1 13 48
M  V30 53 1 15 49
M  V30 54 1 18 50
M  V30 55 1 20 51
M  V30 56 1 21 52
M  V30 57 1 26 53
M  V30 58 1 27 54
M  V30 59 1 28 55
M  V30 END BOND
M  V30 END CTAB
M  END
>  <Dataset>  (349) 
ChEMBL_Kinases

>  <Ligand_Instance>  (349) 
nan

>  <PDB_ID>  (349) 
nan

>  <Standardized_SMILES>  (349) 
C[C@H]1[C@@H](N)CCCN1c1ccncc1Nc1ncc2ccc(-c3c(F)cccc3F)nn12

>  <Name>  (349) 
nan

>  <Pocket>  (349) 
nan

>  <ATP_Site>  (349) 
nan

>  <Peripheral>  (349) 
nan

>  <Num_H_Atoms_ProtBoundConf>  (349) 
nan

>  <Num_Resolved_Atoms>  (349) 
nan

>  <Num_Not_Resolved_Atoms>  (349) 
nan

$$$$
CHEMBL3652629
     RDKit          3D

  0  0  0  0  0  0  0  0  0  0999 V3000
M  V30 BEGIN CTAB
M  V30 COUNTS 53 56 0 0 0
M  V30 BEGIN ATOM
M  V30 1 C -2.927736 -4.745520 2.963312 0
M  V30 2 N -2.389900 -3.402981 3.176125 0
M  V30 3 N -2.462240 -2.525913 4.154362 0
M  V30 4 C -1.749724 -1.412176 3.804247 0
M  V30 5 C -1.237923 -1.689707 2.526891 0
M  V30 6 N -0.464122 -0.553966 2.075989 0
M  V30 7 C -1.234286 0.394153 1.363263 0
M  V30 8 O -2.463903 0.113713 1.227676 0
M  V30 9 C -0.718418 1.629252 0.795949 0
M  V30 10 N 0.585066 1.930850 0.937674 0
M  V30 11 C 1.140390 3.050365 0.444464 0
M  V30 12 C 2.555835 3.255436 0.666627 0
M  V30 13 C 3.244839 2.290303 1.369376 0
M  V30 14 C 4.595392 2.389691 1.635003 0
M  V30 15 C 5.328018 3.471272 1.205286 0
M  V30 16 C 4.668775 4.452712 0.500531 0
M  V30 17 C 3.335799 4.309944 0.263295 0
M  V30 18 F 2.750735 5.307129 -0.432669 0
M  V30 19 C 0.251188 3.856587 -0.217495 0
M  V30 20 C -1.089421 3.602655 -0.394682 0
M  V30 21 C -1.613692 2.439933 0.130058 0
M  V30 22 N -2.984641 2.085411 0.001820 0
M  V30 23 C -1.659928 -2.974378 2.139156 0
M  V30 24 O -1.136747 -3.185122 0.902584 0
M  V30 25 C -1.239840 -4.285198 0.055167 0
M  V30 26 C 0.099624 -4.932072 -0.224724 0
M  V30 27 C 0.485068 -4.922950 -1.675310 0
M  V30 28 N 0.234158 -3.713945 -2.367057 0
M  V30 29 C -1.076848 -3.173550 -2.208855 0
M  V30 30 C -1.948736 -3.905010 -1.227779 0
M  V30 31 H -3.602131 -4.716711 2.085090 0
M  V30 32 H -2.099485 -5.457877 2.844355 0
M  V30 33 H -3.545822 -5.033710 3.843761 0
M  V30 34 H -1.766556 -0.656019 4.557458 0
M  V30 35 H 0.548833 -0.368906 2.213228 0
M  V30 36 H 2.761348 1.381679 1.761629 0
M  V30 37 H 5.106329 1.617841 2.187458 0
M  V30 38 H 6.383012 3.530200 1.423256 0
M  V30 39 H 5.227363 5.303079 0.158499 0
M  V30 40 H 0.620284 4.773533 -0.641815 0
M  V30 41 H -1.713732 4.287967 -0.926091 0
M  V30 42 H -3.775617 2.225786 0.692808 0
M  V30 43 H -3.493986 1.621622 -0.782235 0
M  V30 44 H -1.859989 -5.064494 0.529311 0
M  V30 45 H 0.847110 -4.397837 0.404670 0
M  V30 46 H 0.143188 -5.984797 0.121038 0
M  V30 47 H 1.599663 -5.092044 -1.690751 0
M  V30 48 H 0.069601 -5.779959 -2.235720 0
M  V30 49 H 1.012067 -3.024739 -2.366812 0
M  V30 50 H -1.605185 -3.190459 -3.185421 0
M  V30 51 H -0.990477 -2.103796 -1.928201 0
M  V30 52 H -2.389609 -4.830855 -1.648256 0
M  V30 53 H -2.766925 -3.210401 -0.939940 0
M  V30 END ATOM
M  V30 BEGIN BOND
M  V30 1 1 1 2
M  V30 2 1 2 3
M  V30 3 2 3 4
M  V30 4 1 4 5
M  V30 5 1 5 6
M  V30 6 1 6 7
M  V30 7 2 7 8
M  V30 8 1 7 9
M  V30 9 2 9 10
M  V30 10 1 10 11
M  V30 11 1 11 12
M  V30 12 2 12 13
M  V30 13 1 13 14
M  V30 14 2 14 15
M  V30 15 1 15 16
M  V30 16 2 16 17
M  V30 17 1 17 18
M  V30 18 2 11 19
M  V30 19 1 19 20
M  V30 20 2 20 21
M  V30 21 1 21 22
M  V30 22 2 5 23
M  V30 23 1 23 24
M  V30 24 1 24 25
M  V30 25 1 25 26
M  V30 26 1 26 27
M  V30 27 1 27 28
M  V30 28 1 28 29
M  V30 29 1 29 30
M  V30 30 1 23 2
M  V30 31 1 30 25
M  V30 32 1 21 9
M  V30 33 1 17 12
M  V30 34 1 1 31
M  V30 35 1 1 32
M  V30 36 1 1 33
M  V30 37 1 4 34
M  V30 38 1 6 35
M  V30 39 1 13 36
M  V30 40 1 14 37
M  V30 41 1 15 38
M  V30 42 1 16 39
M  V30 43 1 19 40
M  V30 44 1 20 41
M  V30 45 1 22 42
M  V30 46 1 22 43
M  V30 47 1 25 44
M  V30 48 1 26 45
M  V30 49 1 26 46
M  V30 50 1 27 47
M  V30 51 1 27 48
M  V30 52 1 28 49
M  V30 53 1 29 50
M  V30 54 1 29 51
M  V30 55 1 30 52
M  V30 56 1 30 53
M  V30 END BOND
M  V30 END CTAB
M  END
>  <Dataset>  (350) 
ChEMBL_Kinases

>  <Ligand_Instance>  (350) 
nan

>  <PDB_ID>  (350) 
nan

>  <Standardized_SMILES>  (350) 
Cn1ncc(NC(=O)c2nc(-c3ccccc3F)ccc2N)c1OC1CCNCC1

>  <Name>  (350) 
nan

>  <Pocket>  (350) 
nan

>  <ATP_Site>  (350) 
nan

>  <Peripheral>  (350) 
nan

>  <Num_H_Atoms_ProtBoundConf>  (350) 
nan

>  <Num_Resolved_Atoms>  (350) 
nan

>  <Num_Not_Resolved_Atoms>  (350) 
nan

$$$$
CHEMBL3652021
     RDKit          3D

  0  0  0  0  0  0  0  0  0  0999 V3000
M  V30 BEGIN CTAB
M  V30 COUNTS 59 62 0 0 0
M  V30 BEGIN ATOM
M  V30 1 C 3.952182 -1.007933 1.914278 0
M  V30 2 C 3.134836 -1.857587 0.988942 0 CFG=1
M  V30 3 C 1.832958 -1.237230 0.555319 0
M  V30 4 C 1.952465 -0.161092 -0.482883 0 CFG=1
M  V30 5 C 2.140605 1.186357 0.111452 0
M  V30 6 C 3.321330 1.857299 0.359173 0
M  V30 7 C 3.292382 3.121708 0.923318 0
M  V30 8 N 2.170626 3.762092 1.256866 0
M  V30 9 C 0.975159 3.142579 1.032688 0
M  V30 10 C 0.995666 1.901468 0.479216 0
M  V30 11 N -0.301438 1.339316 0.288380 0
M  V30 12 C -1.121005 1.476689 -0.856777 0
M  V30 13 O -0.631174 2.168770 -1.785178 0
M  V30 14 C -2.422350 0.825269 -0.861539 0
M  V30 15 C -3.177543 1.015975 -1.994016 0
M  V30 16 C -4.439153 0.418350 -2.044660 0
M  V30 17 C -4.887678 -0.339896 -0.965586 0
M  V30 18 F -6.075739 -0.956838 -0.903841 0
M  V30 19 C -4.074964 -0.497429 0.157423 0
M  V30 20 C -4.409086 -1.260593 1.348288 0
M  V30 21 C -5.513189 -1.123963 2.170666 0
M  V30 22 C -5.655468 -1.944151 3.268242 0
M  V30 23 C -4.723585 -2.906955 3.577219 0
M  V30 24 C -3.612725 -3.061259 2.769171 0
M  V30 25 C -2.596294 -4.108108 3.085838 0
M  V30 26 F -2.506684 -5.009026 2.034903 0
M  V30 27 F -1.365619 -3.506717 3.257565 0
M  V30 28 F -2.947752 -4.744794 4.235287 0
M  V30 29 C -3.461667 -2.239438 1.662185 0
M  V30 30 F -2.332610 -2.454306 0.909920 0
M  V30 31 N -2.850336 0.099036 0.173336 0
M  V30 32 C 2.980940 -0.503628 -1.537268 0
M  V30 33 C 3.376195 -1.965504 -1.507845 0 CFG=1
M  V30 34 N 4.426645 -2.135376 -2.494596 0
M  V30 35 C 3.907861 -2.382661 -0.172460 0 CFG=2
M  V30 36 O 3.944525 -3.796319 -0.191110 0
M  V30 37 H 4.371313 -1.596522 2.783806 0
M  V30 38 H 4.834460 -0.576494 1.409762 0
M  V30 39 H 3.346210 -0.222572 2.372793 0
M  V30 40 H 2.827209 -2.752083 1.609834 0
M  V30 41 H 1.231034 -0.895751 1.389003 0
M  V30 42 H 1.259999 -2.080470 0.071730 0
M  V30 43 H 0.975784 -0.141640 -1.020768 0
M  V30 44 H 4.215885 1.322003 0.082908 0
M  V30 45 H 4.286818 3.562301 1.076802 0
M  V30 46 H 0.093599 3.678287 1.309894 0
M  V30 47 H -0.654591 0.767610 1.106761 0
M  V30 48 H -2.920756 1.582379 -2.877980 0
M  V30 49 H -5.123640 0.497438 -2.882218 0
M  V30 50 H -6.197490 -0.347624 1.859531 0
M  V30 51 H -6.546455 -1.787915 3.876934 0
M  V30 52 H -4.886712 -3.530665 4.459292 0
M  V30 53 H 2.586024 -0.344376 -2.583700 0
M  V30 54 H 3.895297 0.095274 -1.497682 0
M  V30 55 H 2.487907 -2.548461 -1.756797 0
M  V30 56 H 4.324377 -3.113662 -2.856206 0
M  V30 57 H 4.328748 -1.486258 -3.297550 0
M  V30 58 H 4.994311 -2.098884 -0.086347 0
M  V30 59 H 3.641223 -4.110958 0.697832 0
M  V30 END ATOM
M  V30 BEGIN BOND
M  V30 1 1 1 2
M  V30 2 1 2 3
M  V30 3 1 3 4
M  V30 4 1 4 5
M  V30 5 2 5 6
M  V30 6 1 6 7
M  V30 7 2 7 8
M  V30 8 1 8 9
M  V30 9 2 9 10
M  V30 10 1 10 11
M  V30 11 1 11 12
M  V30 12 2 12 13
M  V30 13 1 12 14
M  V30 14 2 14 15
M  V30 15 1 15 16
M  V30 16 2 16 17
M  V30 17 1 17 18
M  V30 18 1 17 19
M  V30 19 1 19 20
M  V30 20 2 20 21
M  V30 21 1 21 22
M  V30 22 2 22 23
M  V30 23 1 23 24
M  V30 24 1 24 25
M  V30 25 1 25 26
M  V30 26 1 25 27
M  V30 27 1 25 28
M  V30 28 2 24 29
M  V30 29 1 29 30
M  V30 30 2 19 31
M  V30 31 1 4 32
M  V30 32 1 32 33
M  V30 33 1 33 34
M  V30 34 1 33 35
M  V30 35 1 35 36
M  V30 36 1 35 2
M  V30 37 1 10 5
M  V30 38 1 31 14
M  V30 39 1 29 20
M  V30 40 1 1 37
M  V30 41 1 1 38
M  V30 42 1 1 39
M  V30 43 1 2 40 CFG=1
M  V30 44 1 3 41
M  V30 45 1 3 42
M  V30 46 1 4 43 CFG=3
M  V30 47 1 6 44
M  V30 48 1 7 45
M  V30 49 1 9 46
M  V30 50 1 11 47
M  V30 51 1 15 48
M  V30 52 1 16 49
M  V30 53 1 21 50
M  V30 54 1 22 51
M  V30 55 1 23 52
M  V30 56 1 32 53
M  V30 57 1 32 54
M  V30 58 1 33 55 CFG=3
M  V30 59 1 34 56
M  V30 60 1 34 57
M  V30 61 1 35 58 CFG=1
M  V30 62 1 36 59
M  V30 END BOND
M  V30 END CTAB
M  END
>  <Dataset>  (351) 
ChEMBL_Kinases

>  <Ligand_Instance>  (351) 
nan

>  <PDB_ID>  (351) 
nan

>  <Standardized_SMILES>  (351) 
C[C@H]1C[C@@H](c2ccncc2NC(=O)c2ccc(F)c(-c3cccc(C(F)(F)F)c3F)n2)C[C@@H](N)[C@@H]1O

>  <Name>  (351) 
nan

>  <Pocket>  (351) 
nan

>  <ATP_Site>  (351) 
nan

>  <Peripheral>  (351) 
nan

>  <Num_H_Atoms_ProtBoundConf>  (351) 
nan

>  <Num_Resolved_Atoms>  (351) 
nan

>  <Num_Not_Resolved_Atoms>  (351) 
nan

$$$$
CHEMBL3652022
     RDKit          3D

  0  0  0  0  0  0  0  0  0  0999 V3000
M  V30 BEGIN CTAB
M  V30 COUNTS 56 59 0 0 0
M  V30 BEGIN ATOM
M  V30 1 C 0.613747 0.665260 -2.424723 0
M  V30 2 C 0.910079 1.703731 -1.368226 0 CFG=2
M  V30 3 C 2.366815 2.035730 -1.354058 0
M  V30 4 C 3.223005 1.185117 -0.484503 0 CFG=2
M  V30 5 N 3.666734 -0.002836 -1.183487 0
M  V30 6 C 2.608307 0.838268 0.855563 0
M  V30 7 C 1.410105 1.742523 1.003066 0 CFG=2
M  V30 8 C 0.942979 1.941217 2.365372 0
M  V30 9 C 1.448221 2.983864 3.152073 0
M  V30 10 C 1.068288 3.254835 4.451203 0
M  V30 11 N 0.136391 2.462751 5.027041 0
M  V30 12 C -0.399785 1.437360 4.337613 0
M  V30 13 C 0.001060 1.190279 3.036673 0
M  V30 14 N -0.589254 0.099024 2.340586 0
M  V30 15 C 0.134029 -1.116816 2.537237 0
M  V30 16 O 1.136051 -0.963497 3.282179 0
M  V30 17 C -0.247728 -2.392463 1.940470 0
M  V30 18 C 0.561478 -3.470369 2.233455 0
M  V30 19 C 0.257600 -4.713985 1.699785 0
M  V30 20 C -0.856130 -4.868378 0.875556 0
M  V30 21 F -1.240455 -6.037212 0.304452 0
M  V30 22 C -1.639740 -3.764569 0.607238 0
M  V30 23 C -2.821376 -3.841969 -0.245130 0
M  V30 24 C -4.109008 -4.119486 0.208084 0
M  V30 25 F -4.261191 -4.332798 1.554720 0
M  V30 26 C -5.170843 -4.171508 -0.684773 0
M  V30 27 C -4.900577 -3.939135 -2.027066 0
M  V30 28 O -5.982137 -3.994349 -2.920413 0
M  V30 29 C -3.639895 -3.660832 -2.517986 0
M  V30 30 C -2.597398 -3.616732 -1.591400 0
M  V30 31 F -1.363646 -3.340616 -2.098366 0
M  V30 32 N -1.329011 -2.569566 1.133251 0
M  V30 33 C 0.391751 1.284332 0.005624 0
M  V30 34 H -0.457255 0.362215 -2.351554 0
M  V30 35 H 0.750110 1.180792 -3.410073 0
M  V30 36 H 1.304019 -0.186307 -2.421701 0
M  V30 37 H 0.364648 2.624124 -1.667083 0
M  V30 38 H 2.552725 3.135809 -1.206581 0
M  V30 39 H 2.727283 1.863470 -2.411009 0
M  V30 40 H 4.148554 1.778278 -0.258868 0
M  V30 41 H 3.842879 0.251411 -2.187554 0
M  V30 42 H 4.485661 -0.429299 -0.711302 0
M  V30 43 H 3.308232 1.043336 1.699839 0
M  V30 44 H 2.362989 -0.231445 0.919330 0
M  V30 45 H 1.762524 2.752639 0.634655 0
M  V30 46 H 2.200420 3.642898 2.722504 0
M  V30 47 H 1.514823 4.083820 4.980893 0
M  V30 48 H -1.137391 0.812349 4.796822 0
M  V30 49 H -1.455682 0.073880 1.724028 0
M  V30 50 H 1.433668 -3.384830 2.869802 0
M  V30 51 H 0.836924 -5.599912 1.880262 0
M  V30 52 H -6.163548 -4.388359 -0.314505 0
M  V30 53 H -5.780853 -4.487535 -3.794197 0
M  V30 54 H -3.491273 -3.489289 -3.569752 0
M  V30 55 H 0.391031 0.163229 -0.045867 0
M  V30 56 H -0.605448 1.715684 0.193646 0
M  V30 END ATOM
M  V30 BEGIN BOND
M  V30 1 1 1 2
M  V30 2 1 2 3
M  V30 3 1 3 4
M  V30 4 1 4 5
M  V30 5 1 4 6
M  V30 6 1 6 7
M  V30 7 1 7 8
M  V30 8 2 8 9
M  V30 9 1 9 10
M  V30 10 2 10 11
M  V30 11 1 11 12
M  V30 12 2 12 13
M  V30 13 1 13 14
M  V30 14 1 14 15
M  V30 15 2 15 16
M  V30 16 1 15 17
M  V30 17 2 17 18
M  V30 18 1 18 19
M  V30 19 2 19 20
M  V30 20 1 20 21
M  V30 21 1 20 22
M  V30 22 1 22 23
M  V30 23 2 23 24
M  V30 24 1 24 25
M  V30 25 1 24 26
M  V30 26 2 26 27
M  V30 27 1 27 28
M  V30 28 1 27 29
M  V30 29 2 29 30
M  V30 30 1 30 31
M  V30 31 2 22 32
M  V30 32 1 7 33
M  V30 33 1 33 2
M  V30 34 1 13 8
M  V30 35 1 32 17
M  V30 36 1 30 23
M  V30 37 1 1 34
M  V30 38 1 1 35
M  V30 39 1 1 36
M  V30 40 1 2 37 CFG=3
M  V30 41 1 3 38
M  V30 42 1 3 39
M  V30 43 1 4 40 CFG=1
M  V30 44 1 5 41
M  V30 45 1 5 42
M  V30 46 1 6 43
M  V30 47 1 6 44
M  V30 48 1 7 45 CFG=3
M  V30 49 1 9 46
M  V30 50 1 10 47
M  V30 51 1 12 48
M  V30 52 1 14 49
M  V30 53 1 18 50
M  V30 54 1 19 51
M  V30 55 1 26 52
M  V30 56 1 28 53
M  V30 57 1 29 54
M  V30 58 1 33 55
M  V30 59 1 33 56
M  V30 END BOND
M  V30 END CTAB
M  END
>  <Dataset>  (352) 
ChEMBL_Kinases

>  <Ligand_Instance>  (352) 
nan

>  <PDB_ID>  (352) 
nan

>  <Standardized_SMILES>  (352) 
C[C@@H]1C[C@H](N)C[C@H](c2ccncc2NC(=O)c2ccc(F)c(-c3c(F)cc(O)cc3F)n2)C1

>  <Name>  (352) 
nan

>  <Pocket>  (352) 
nan

>  <ATP_Site>  (352) 
nan

>  <Peripheral>  (352) 
nan

>  <Num_H_Atoms_ProtBoundConf>  (352) 
nan

>  <Num_Resolved_Atoms>  (352) 
nan

>  <Num_Not_Resolved_Atoms>  (352) 
nan

$$$$
CHEMBL3652023
     RDKit          3D

  0  0  0  0  0  0  0  0  0  0999 V3000
M  V30 BEGIN CTAB
M  V30 COUNTS 55 58 0 0 0
M  V30 BEGIN ATOM
M  V30 1 C -0.253795 -0.347733 -2.367986 0
M  V30 2 C 1.166746 0.053458 -2.543282 0 CFG=2
M  V30 3 C 2.108660 -1.089174 -2.731177 0
M  V30 4 C 2.343047 -1.833319 -1.459626 0 CFG=2
M  V30 5 N 1.499355 -3.008790 -1.431924 0
M  V30 6 C 2.042340 -1.017222 -0.218174 0
M  V30 7 C 2.462468 0.423701 -0.407323 0 CFG=2
M  V30 8 C 2.628919 1.170848 0.824063 0
M  V30 9 C 3.871701 1.598743 1.315269 0
M  V30 10 C 3.970276 2.310831 2.488191 0
M  V30 11 N 2.922778 2.655719 3.254209 0
M  V30 12 C 1.709128 2.242993 2.783421 0
M  V30 13 C 1.547045 1.516012 1.596956 0
M  V30 14 N 0.190444 1.201742 1.370798 0
M  V30 15 C -1.050617 1.638985 0.833906 0
M  V30 16 O -1.100525 2.798612 0.295983 0
M  V30 17 C -2.178146 0.723539 0.939617 0
M  V30 18 C -3.346862 1.211894 0.400801 0
M  V30 19 C -4.471198 0.389586 0.465446 0
M  V30 20 C -4.396306 -0.857766 1.048652 0
M  V30 21 F -5.415833 -1.731373 1.165039 0
M  V30 22 C -3.197843 -1.294069 1.572127 0
M  V30 23 C -2.905450 -2.563768 2.224544 0
M  V30 24 C -3.088220 -2.584310 3.603447 0
M  V30 25 F -3.507066 -1.518718 4.320308 0
M  V30 26 C -2.832360 -3.758698 4.318305 0
M  V30 27 C -2.397924 -4.893231 3.642500 0
M  V30 28 C -2.217620 -4.870863 2.277532 0
M  V30 29 F -1.793063 -5.952700 1.558557 0
M  V30 30 C -2.469509 -3.711845 1.567575 0
M  V30 31 F -2.316082 -3.608544 0.219941 0
M  V30 32 N -2.116532 -0.496574 1.506967 0
M  V30 33 C 1.691356 1.023350 -1.514513 0
M  V30 34 H -0.722790 -0.439434 -3.391208 0
M  V30 35 H -0.846749 0.340065 -1.737268 0
M  V30 36 H -0.301530 -1.356782 -1.940703 0
M  V30 37 H 1.196452 0.615234 -3.534525 0
M  V30 38 H 1.675558 -1.748478 -3.511345 0
M  V30 39 H 3.098772 -0.762958 -3.114969 0
M  V30 40 H 3.394970 -2.229967 -1.423600 0
M  V30 41 H 1.100539 -3.246508 -2.363362 0
M  V30 42 H 0.816257 -3.036670 -0.654309 0
M  V30 43 H 0.993927 -1.166295 0.035086 0
M  V30 44 H 2.696758 -1.473364 0.581849 0
M  V30 45 H 3.530936 0.316530 -0.824138 0
M  V30 46 H 4.751662 1.364701 0.764499 0
M  V30 47 H 4.967929 2.622565 2.829153 0
M  V30 48 H 0.891873 2.553923 3.451705 0
M  V30 49 H 0.226313 0.236565 1.820944 0
M  V30 50 H -3.404439 2.192638 -0.057275 0
M  V30 51 H -5.420743 0.702430 0.065634 0
M  V30 52 H -2.950520 -3.858198 5.400796 0
M  V30 53 H -2.169794 -5.854794 4.092201 0
M  V30 54 H 2.413095 1.699886 -2.084125 0
M  V30 55 H 0.907295 1.766658 -1.217945 0
M  V30 END ATOM
M  V30 BEGIN BOND
M  V30 1 1 1 2
M  V30 2 1 2 3
M  V30 3 1 3 4
M  V30 4 1 4 5
M  V30 5 1 4 6
M  V30 6 1 6 7
M  V30 7 1 7 8
M  V30 8 2 8 9
M  V30 9 1 9 10
M  V30 10 2 10 11
M  V30 11 1 11 12
M  V30 12 2 12 13
M  V30 13 1 13 14
M  V30 14 1 14 15
M  V30 15 2 15 16
M  V30 16 1 15 17
M  V30 17 2 17 18
M  V30 18 1 18 19
M  V30 19 2 19 20
M  V30 20 1 20 21
M  V30 21 1 20 22
M  V30 22 1 22 23
M  V30 23 2 23 24
M  V30 24 1 24 25
M  V30 25 1 24 26
M  V30 26 2 26 27
M  V30 27 1 27 28
M  V30 28 1 28 29
M  V30 29 2 28 30
M  V30 30 1 30 31
M  V30 31 2 22 32
M  V30 32 1 7 33
M  V30 33 1 33 2
M  V30 34 1 13 8
M  V30 35 1 32 17
M  V30 36 1 30 23
M  V30 37 1 1 34
M  V30 38 1 1 35
M  V30 39 1 1 36
M  V30 40 1 2 37 CFG=3
M  V30 41 1 3 38
M  V30 42 1 3 39
M  V30 43 1 4 40 CFG=1
M  V30 44 1 5 41
M  V30 45 1 5 42
M  V30 46 1 6 43
M  V30 47 1 6 44
M  V30 48 1 7 45 CFG=3
M  V30 49 1 9 46
M  V30 50 1 10 47
M  V30 51 1 12 48
M  V30 52 1 14 49
M  V30 53 1 18 50
M  V30 54 1 19 51
M  V30 55 1 26 52
M  V30 56 1 27 53
M  V30 57 1 33 54
M  V30 58 1 33 55
M  V30 END BOND
M  V30 END CTAB
M  END
>  <Dataset>  (353) 
ChEMBL_Kinases

>  <Ligand_Instance>  (353) 
nan

>  <PDB_ID>  (353) 
nan

>  <Standardized_SMILES>  (353) 
C[C@@H]1C[C@H](N)C[C@H](c2ccncc2NC(=O)c2ccc(F)c(-c3c(F)ccc(F)c3F)n2)C1

>  <Name>  (353) 
nan

>  <Pocket>  (353) 
nan

>  <ATP_Site>  (353) 
nan

>  <Peripheral>  (353) 
nan

>  <Num_H_Atoms_ProtBoundConf>  (353) 
nan

>  <Num_Resolved_Atoms>  (353) 
nan

>  <Num_Not_Resolved_Atoms>  (353) 
nan

$$$$
CHEMBL3652024
     RDKit          3D

  0  0  0  0  0  0  0  0  0  0999 V3000
M  V30 BEGIN CTAB
M  V30 COUNTS 58 61 0 0 0
M  V30 BEGIN ATOM
M  V30 1 C 3.214007 -3.600124 -1.848842 0
M  V30 2 C 1.774828 -3.454059 -1.534100 0 CFG=1
M  V30 3 C 1.412210 -2.336078 -0.592645 0
M  V30 4 C 1.591737 -0.973307 -1.051712 0 CFG=1
M  V30 5 C 2.604330 -0.127398 -0.410027 0
M  V30 6 C 3.943761 0.024248 -0.725950 0
M  V30 7 C 4.801728 0.839781 -0.061280 0
M  V30 8 N 4.386758 1.577575 0.983983 0
M  V30 9 C 3.119217 1.496543 1.358508 0
M  V30 10 C 2.239897 0.669103 0.687333 0
M  V30 11 N 0.911617 0.674768 1.188821 0
M  V30 12 C 0.620318 -0.278803 2.205579 0
M  V30 13 O 1.480904 -1.087600 2.645454 0
M  V30 14 C -0.711235 -0.364713 2.795268 0
M  V30 15 N -1.743624 0.417207 2.445827 0
M  V30 16 C -2.962841 0.325607 2.998338 0
M  V30 17 C -4.073497 1.197309 2.592904 0
M  V30 18 C -4.238116 2.396870 3.268671 0
M  V30 19 F -3.428627 2.792252 4.272562 0
M  V30 20 C -5.279632 3.190329 2.872074 0
M  V30 21 C -6.099522 2.790971 1.855925 0
M  V30 22 C -5.963814 1.607870 1.165308 0
M  V30 23 C -4.912765 0.811081 1.568251 0
M  V30 24 F -4.674810 -0.381992 0.963232 0
M  V30 25 C -3.226045 -0.616103 3.994349 0
M  V30 26 F -4.451024 -0.752484 4.591914 0
M  V30 27 C -2.185005 -1.451566 4.391387 0
M  V30 28 C -0.934379 -1.309803 3.779148 0
M  V30 29 N 0.098857 -2.205128 4.235572 0
M  V30 30 C 1.854135 -0.967495 -2.541559 0
M  V30 31 C 0.925733 -1.879935 -3.301750 0 CFG=1
M  V30 32 N 1.509556 -1.949499 -4.647080 0
M  V30 33 C 0.925587 -3.282083 -2.772367 0 CFG=2
M  V30 34 O -0.412661 -3.594145 -2.475211 0
M  V30 35 H 3.908579 -2.919555 -1.339186 0
M  V30 36 H 3.368117 -3.645880 -2.966502 0
M  V30 37 H 3.543079 -4.629275 -1.515765 0
M  V30 38 H 1.370269 -4.387611 -1.034041 0
M  V30 39 H 1.844778 -2.612707 0.387166 0
M  V30 40 H 0.309678 -2.503003 -0.413571 0
M  V30 41 H 0.618455 -0.398686 -0.943840 0
M  V30 42 H 4.294387 -0.563342 -1.563863 0
M  V30 43 H 5.847428 0.894849 -0.384431 0
M  V30 44 H 2.825790 2.096704 2.192221 0
M  V30 45 H 0.138601 1.328358 0.863120 0
M  V30 46 H -5.415855 4.129227 3.394275 0
M  V30 47 H -6.903050 3.467755 1.594478 0
M  V30 48 H -6.617356 1.302605 0.364289 0
M  V30 49 H -2.316256 -2.217861 5.170147 0
M  V30 50 H 0.242113 -3.107931 3.720528 0
M  V30 51 H 0.608038 -1.817171 5.076367 0
M  V30 52 H 2.877553 -1.312432 -2.781088 0
M  V30 53 H 1.729424 0.036600 -2.993208 0
M  V30 54 H -0.086521 -1.448151 -3.438462 0
M  V30 55 H 1.295594 -2.828106 -5.138120 0
M  V30 56 H 1.367218 -1.085264 -5.188455 0
M  V30 57 H 1.282389 -4.045695 -3.495137 0
M  V30 58 H -0.505428 -3.970479 -1.577541 0
M  V30 END ATOM
M  V30 BEGIN BOND
M  V30 1 1 1 2
M  V30 2 1 2 3
M  V30 3 1 3 4
M  V30 4 1 4 5
M  V30 5 2 5 6
M  V30 6 1 6 7
M  V30 7 2 7 8
M  V30 8 1 8 9
M  V30 9 2 9 10
M  V30 10 1 10 11
M  V30 11 1 11 12
M  V30 12 2 12 13
M  V30 13 1 12 14
M  V30 14 2 14 15
M  V30 15 1 15 16
M  V30 16 1 16 17
M  V30 17 2 17 18
M  V30 18 1 18 19
M  V30 19 1 18 20
M  V30 20 2 20 21
M  V30 21 1 21 22
M  V30 22 2 22 23
M  V30 23 1 23 24
M  V30 24 2 16 25
M  V30 25 1 25 26
M  V30 26 1 25 27
M  V30 27 2 27 28
M  V30 28 1 28 29
M  V30 29 1 4 30
M  V30 30 1 30 31
M  V30 31 1 31 32
M  V30 32 1 31 33
M  V30 33 1 33 34
M  V30 34 1 33 2
M  V30 35 1 10 5
M  V30 36 1 28 14
M  V30 37 1 23 17
M  V30 38 1 1 35
M  V30 39 1 1 36
M  V30 40 1 1 37
M  V30 41 1 2 38 CFG=1
M  V30 42 1 3 39
M  V30 43 1 3 40
M  V30 44 1 4 41 CFG=3
M  V30 45 1 6 42
M  V30 46 1 7 43
M  V30 47 1 9 44
M  V30 48 1 11 45
M  V30 49 1 20 46
M  V30 50 1 21 47
M  V30 51 1 22 48
M  V30 52 1 27 49
M  V30 53 1 29 50
M  V30 54 1 29 51
M  V30 55 1 30 52
M  V30 56 1 30 53
M  V30 57 1 31 54 CFG=3
M  V30 58 1 32 55
M  V30 59 1 32 56
M  V30 60 1 33 57 CFG=3
M  V30 61 1 34 58
M  V30 END BOND
M  V30 END CTAB
M  END
>  <Dataset>  (354) 
ChEMBL_Kinases

>  <Ligand_Instance>  (354) 
nan

>  <PDB_ID>  (354) 
nan

>  <Standardized_SMILES>  (354) 
C[C@H]1C[C@@H](c2ccncc2NC(=O)c2nc(-c3c(F)cccc3F)c(F)cc2N)C[C@@H](N)[C@@H]1O

>  <Name>  (354) 
nan

>  <Pocket>  (354) 
nan

>  <ATP_Site>  (354) 
nan

>  <Peripheral>  (354) 
nan

>  <Num_H_Atoms_ProtBoundConf>  (354) 
nan

>  <Num_Resolved_Atoms>  (354) 
nan

>  <Num_Not_Resolved_Atoms>  (354) 
nan

$$$$
CHEMBL3652025
     RDKit          3D

  0  0  0  0  0  0  0  0  0  0999 V3000
M  V30 BEGIN CTAB
M  V30 COUNTS 58 61 0 0 0
M  V30 BEGIN ATOM
M  V30 1 C 4.016752 -2.892388 1.314585 0
M  V30 2 C 2.902046 -2.749991 0.298133 0 CFG=1
M  V30 3 C 2.466013 -1.314119 0.301083 0
M  V30 4 C 1.576980 -0.901447 -0.812370 0 CFG=1
M  V30 5 C 1.756228 0.579054 -1.035744 0
M  V30 6 C 2.718251 1.069813 -1.911502 0
M  V30 7 C 2.873810 2.426967 -2.108541 0
M  V30 8 N 2.115050 3.311428 -1.472970 0
M  V30 9 C 1.172496 2.881577 -0.617135 0
M  V30 10 C 0.997487 1.543326 -0.403637 0
M  V30 11 N -0.010678 1.126408 0.508678 0
M  V30 12 C -0.004864 0.880279 1.909374 0
M  V30 13 O 0.951444 0.986161 2.683456 0
M  V30 14 C -1.288132 0.457666 2.457399 0
M  V30 15 N -2.421677 0.293317 1.759114 0
M  V30 16 C -3.577298 -0.100112 2.324998 0
M  V30 17 C -4.785544 -0.265132 1.523259 0
M  V30 18 C -5.784021 0.636532 1.207491 0
M  V30 19 F -5.562149 1.858889 1.753054 0
M  V30 20 C -6.832966 0.238972 0.426443 0
M  V30 21 C -6.927464 -1.044522 -0.060786 0
M  V30 22 C -5.942226 -1.970180 0.238776 0
M  V30 23 C -4.882916 -1.565826 1.028503 0
M  V30 24 F -3.980355 -2.577308 1.248332 0
M  V30 25 C -3.669434 -0.361680 3.672391 0
M  V30 26 F -4.831811 -0.755672 4.231625 0
M  V30 27 C -2.528451 -0.207183 4.437121 0
M  V30 28 C -1.351365 0.203089 3.806755 0
M  V30 29 N -0.235458 0.333556 4.671466 0
M  V30 30 C 1.590320 -1.697088 -2.053736 0
M  V30 31 C 2.469574 -2.865685 -2.168294 0 CFG=1
M  V30 32 N 3.229548 -2.895909 -3.413571 0
M  V30 33 C 3.433542 -3.122360 -1.048940 0 CFG=1
M  V30 34 O 4.684000 -2.533837 -1.243516 0
M  V30 35 H 4.557514 -1.939197 1.497099 0
M  V30 36 H 4.780218 -3.643391 1.017190 0
M  V30 37 H 3.552304 -3.200663 2.289014 0
M  V30 38 H 2.084424 -3.452866 0.562921 0
M  V30 39 H 2.020800 -1.137146 1.305280 0
M  V30 40 H 3.411920 -0.696875 0.289236 0
M  V30 41 H 0.527484 -0.963258 -0.391328 0
M  V30 42 H 3.351961 0.412208 -2.445645 0
M  V30 43 H 3.617164 2.833210 -2.786399 0
M  V30 44 H 0.571381 3.628725 -0.115616 0
M  V30 45 H -0.853938 1.018838 -0.092771 0
M  V30 46 H -7.567833 1.016013 0.231901 0
M  V30 47 H -7.766901 -1.299611 -0.664733 0
M  V30 48 H -6.066737 -2.957521 -0.168054 0
M  V30 49 H -2.576710 -0.407502 5.501002 0
M  V30 50 H 0.650767 -0.164693 4.910662 0
M  V30 51 H -0.160066 1.158653 5.336891 0
M  V30 52 H 1.918187 -0.975967 -2.863961 0
M  V30 53 H 0.549042 -1.959845 -2.410685 0
M  V30 54 H 1.840398 -3.798111 -2.239173 0
M  V30 55 H 2.838679 -2.206118 -4.100008 0
M  V30 56 H 3.332032 -3.836586 -3.818183 0
M  V30 57 H 3.658577 -4.222654 -0.974989 0
M  V30 58 H 5.137206 -2.250090 -0.433684 0
M  V30 END ATOM
M  V30 BEGIN BOND
M  V30 1 1 1 2
M  V30 2 1 2 3
M  V30 3 1 3 4
M  V30 4 1 4 5
M  V30 5 2 5 6
M  V30 6 1 6 7
M  V30 7 2 7 8
M  V30 8 1 8 9
M  V30 9 2 9 10
M  V30 10 1 10 11
M  V30 11 1 11 12
M  V30 12 2 12 13
M  V30 13 1 12 14
M  V30 14 2 14 15
M  V30 15 1 15 16
M  V30 16 1 16 17
M  V30 17 2 17 18
M  V30 18 1 18 19
M  V30 19 1 18 20
M  V30 20 2 20 21
M  V30 21 1 21 22
M  V30 22 2 22 23
M  V30 23 1 23 24
M  V30 24 2 16 25
M  V30 25 1 25 26
M  V30 26 1 25 27
M  V30 27 2 27 28
M  V30 28 1 28 29
M  V30 29 1 4 30
M  V30 30 1 30 31
M  V30 31 1 31 32
M  V30 32 1 31 33
M  V30 33 1 33 34
M  V30 34 1 33 2
M  V30 35 1 10 5
M  V30 36 1 28 14
M  V30 37 1 23 17
M  V30 38 1 1 35
M  V30 39 1 1 36
M  V30 40 1 1 37
M  V30 41 1 2 38 CFG=1
M  V30 42 1 3 39
M  V30 43 1 3 40
M  V30 44 1 4 41 CFG=1
M  V30 45 1 6 42
M  V30 46 1 7 43
M  V30 47 1 9 44
M  V30 48 1 11 45
M  V30 49 1 20 46
M  V30 50 1 21 47
M  V30 51 1 22 48
M  V30 52 1 27 49
M  V30 53 1 29 50
M  V30 54 1 29 51
M  V30 55 1 30 52
M  V30 56 1 30 53
M  V30 57 1 31 54 CFG=3
M  V30 58 1 32 55
M  V30 59 1 32 56
M  V30 60 1 33 57 CFG=1
M  V30 61 1 34 58
M  V30 END BOND
M  V30 END CTAB
M  END
>  <Dataset>  (355) 
ChEMBL_Kinases

>  <Ligand_Instance>  (355) 
nan

>  <PDB_ID>  (355) 
nan

>  <Standardized_SMILES>  (355) 
C[C@H]1C[C@@H](c2ccncc2NC(=O)c2nc(-c3c(F)cccc3F)c(F)cc2N)C[C@@H](N)[C@H]1O

>  <Name>  (355) 
nan

>  <Pocket>  (355) 
nan

>  <ATP_Site>  (355) 
nan

>  <Peripheral>  (355) 
nan

>  <Num_H_Atoms_ProtBoundConf>  (355) 
nan

>  <Num_Resolved_Atoms>  (355) 
nan

>  <Num_Not_Resolved_Atoms>  (355) 
nan

$$$$
CHEMBL3652026
     RDKit          3D

  0  0  0  0  0  0  0  0  0  0999 V3000
M  V30 BEGIN CTAB
M  V30 COUNTS 56 59 0 0 0
M  V30 BEGIN ATOM
M  V30 1 C 1.281680 -4.166550 -0.574671 0
M  V30 2 C 1.829973 -2.805370 -0.919162 0 CFG=2
M  V30 3 C 2.002009 -1.934754 0.306372 0
M  V30 4 C 2.093963 -0.503468 -0.165679 0 CFG=1
M  V30 5 C 2.744131 0.371418 0.841124 0
M  V30 6 C 4.117879 0.554750 0.828116 0
M  V30 7 C 4.683296 1.381677 1.788656 0
M  V30 8 N 3.988146 2.012757 2.725631 0
M  V30 9 C 2.650420 1.859320 2.770541 0
M  V30 10 C 2.030083 1.046756 1.838405 0
M  V30 11 N 0.611616 0.802759 1.781486 0
M  V30 12 C -0.101699 1.722720 0.966584 0
M  V30 13 O 0.500082 2.664786 0.358352 0
M  V30 14 C -1.545986 1.549728 0.851766 0
M  V30 15 C -2.290502 2.408001 0.078056 0
M  V30 16 C -3.666995 2.281789 -0.060505 0
M  V30 17 C -4.284855 1.253377 0.610167 0
M  V30 18 F -5.612886 1.007436 0.570126 0
M  V30 19 C -3.520162 0.386032 1.394144 0
M  V30 20 C -4.033361 -0.741308 2.157209 0
M  V30 21 C -4.484237 -0.780855 3.458308 0
M  V30 22 F -4.432175 0.402220 4.089726 0
M  V30 23 C -4.934443 -1.970183 3.994820 0
M  V30 24 C -4.942838 -3.133949 3.247648 0
M  V30 25 C -4.491275 -3.113894 1.931604 0
M  V30 26 C -4.036033 -1.906368 1.392333 0
M  V30 27 F -3.619530 -2.012444 0.095781 0
M  V30 28 N -2.205017 0.568810 1.479629 0
M  V30 29 C 2.779765 -0.402961 -1.517810 0
M  V30 30 C 1.890428 -1.035277 -2.567341 0 CFG=1
M  V30 31 N 2.694096 -1.796832 -3.534907 0
M  V30 32 C 0.979271 -2.061385 -1.901034 0 CFG=1
M  V30 33 O 0.395186 -2.898290 -2.849911 0
M  V30 34 H 0.180348 -4.235169 -0.669927 0
M  V30 35 H 1.644094 -4.432853 0.432157 0
M  V30 36 H 1.720825 -4.892594 -1.291304 0
M  V30 37 H 2.853157 -2.937073 -1.348597 0
M  V30 38 H 1.130456 -2.004563 0.997664 0
M  V30 39 H 2.902695 -2.273308 0.855953 0
M  V30 40 H 1.068762 -0.101659 -0.306582 0
M  V30 41 H 4.721554 0.064641 0.088908 0
M  V30 42 H 5.758960 1.492803 1.736787 0
M  V30 43 H 1.950193 2.301545 3.465685 0
M  V30 44 H 0.128590 0.028835 2.283063 0
M  V30 45 H -1.774767 3.205585 -0.435877 0
M  V30 46 H -4.253127 2.943234 -0.658867 0
M  V30 47 H -5.274558 -1.956483 5.005168 0
M  V30 48 H -5.290395 -4.073781 3.647464 0
M  V30 49 H -4.506619 -4.035551 1.365523 0
M  V30 50 H 2.883702 0.702696 -1.715732 0
M  V30 51 H 3.795863 -0.808952 -1.511605 0
M  V30 52 H 1.331759 -0.234232 -3.069509 0
M  V30 53 H 2.796129 -1.228907 -4.395144 0
M  V30 54 H 2.190251 -2.665191 -3.818830 0
M  V30 55 H 0.126560 -1.517289 -1.433391 0
M  V30 56 H -0.530958 -3.158047 -2.565726 0
M  V30 END ATOM
M  V30 BEGIN BOND
M  V30 1 1 1 2
M  V30 2 1 2 3
M  V30 3 1 3 4
M  V30 4 1 4 5
M  V30 5 2 5 6
M  V30 6 1 6 7
M  V30 7 2 7 8
M  V30 8 1 8 9
M  V30 9 2 9 10
M  V30 10 1 10 11
M  V30 11 1 11 12
M  V30 12 2 12 13
M  V30 13 1 12 14
M  V30 14 2 14 15
M  V30 15 1 15 16
M  V30 16 2 16 17
M  V30 17 1 17 18
M  V30 18 1 17 19
M  V30 19 1 19 20
M  V30 20 2 20 21
M  V30 21 1 21 22
M  V30 22 1 21 23
M  V30 23 2 23 24
M  V30 24 1 24 25
M  V30 25 2 25 26
M  V30 26 1 26 27
M  V30 27 2 19 28
M  V30 28 1 4 29
M  V30 29 1 29 30
M  V30 30 1 30 31
M  V30 31 1 30 32
M  V30 32 1 32 33
M  V30 33 1 32 2
M  V30 34 1 10 5
M  V30 35 1 28 14
M  V30 36 1 26 20
M  V30 37 1 1 34
M  V30 38 1 1 35
M  V30 39 1 1 36
M  V30 40 1 2 37 CFG=3
M  V30 41 1 3 38
M  V30 42 1 3 39
M  V30 43 1 4 40 CFG=3
M  V30 44 1 6 41
M  V30 45 1 7 42
M  V30 46 1 9 43
M  V30 47 1 11 44
M  V30 48 1 15 45
M  V30 49 1 16 46
M  V30 50 1 23 47
M  V30 51 1 24 48
M  V30 52 1 25 49
M  V30 53 1 29 50
M  V30 54 1 29 51
M  V30 55 1 30 52 CFG=3
M  V30 56 1 31 53
M  V30 57 1 31 54
M  V30 58 1 32 55 CFG=1
M  V30 59 1 33 56
M  V30 END BOND
M  V30 END CTAB
M  END
>  <Dataset>  (356) 
ChEMBL_Kinases

>  <Ligand_Instance>  (356) 
nan

>  <PDB_ID>  (356) 
nan

>  <Standardized_SMILES>  (356) 
C[C@@H]1C[C@@H](c2ccncc2NC(=O)c2ccc(F)c(-c3c(F)cccc3F)n2)C[C@@H](N)[C@H]1O

>  <Name>  (356) 
nan

>  <Pocket>  (356) 
nan

>  <ATP_Site>  (356) 
nan

>  <Peripheral>  (356) 
nan

>  <Num_H_Atoms_ProtBoundConf>  (356) 
nan

>  <Num_Resolved_Atoms>  (356) 
nan

>  <Num_Not_Resolved_Atoms>  (356) 
nan

$$$$
CHEMBL3652027
     RDKit          3D

  0  0  0  0  0  0  0  0  0  0999 V3000
M  V30 BEGIN CTAB
M  V30 COUNTS 56 59 0 0 0
M  V30 BEGIN ATOM
M  V30 1 C 0.742954 -2.533695 2.319824 0
M  V30 2 C 1.958298 -3.086290 1.642436 0 CFG=2
M  V30 3 C 2.826969 -2.030416 0.999933 0
M  V30 4 C 2.444385 -1.776759 -0.435094 0 CFG=2
M  V30 5 C 2.934854 -0.493322 -0.844935 0
M  V30 6 C 4.257079 -0.366612 -1.300892 0
M  V30 7 C 4.834242 0.804108 -1.724950 0
M  V30 8 N 4.130777 1.947842 -1.726756 0
M  V30 9 C 2.855021 1.910797 -1.303705 0
M  V30 10 C 2.293433 0.724548 -0.881328 0
M  V30 11 N 0.934378 0.812566 -0.470968 0
M  V30 12 C 0.774419 1.196643 0.909900 0
M  V30 13 O 1.778598 1.422273 1.633135 0
M  V30 14 C -0.550472 1.332728 1.499347 0
M  V30 15 C -0.693569 1.708037 2.817616 0
M  V30 16 C -1.901107 1.866633 3.470168 0
M  V30 17 C -3.005133 1.612176 2.674726 0
M  V30 18 F -4.212312 1.763759 3.308107 0
M  V30 19 C -2.908544 1.233087 1.346337 0
M  V30 20 C -4.170094 1.009647 0.675347 0
M  V30 21 C -4.750530 -0.237944 0.688370 0
M  V30 22 F -4.173905 -1.305386 1.323045 0
M  V30 23 C -5.967731 -0.526689 0.063095 0
M  V30 24 C -6.624542 0.485813 -0.601781 0
M  V30 25 C -6.048905 1.750218 -0.622424 0
M  V30 26 C -4.848745 2.014347 -0.000253 0
M  V30 27 F -4.308802 3.272470 -0.039707 0
M  V30 28 N -1.679367 1.107316 0.807401 0
M  V30 29 C 1.005521 -2.107350 -0.706803 0
M  V30 30 C 0.765621 -3.579303 -0.437187 0 CFG=1
M  V30 31 N 0.802120 -4.367728 -1.674328 0
M  V30 32 C 1.663452 -4.137260 0.612893 0 CFG=1
M  V30 33 O 2.856313 -4.648353 0.135441 0
M  V30 34 H 0.711865 -1.422831 2.356108 0
M  V30 35 H -0.151561 -2.979489 1.837467 0
M  V30 36 H 0.673296 -2.852521 3.400927 0
M  V30 37 H 2.579234 -3.576998 2.439354 0
M  V30 38 H 2.757683 -1.111118 1.606394 0
M  V30 39 H 3.897928 -2.377001 1.056908 0
M  V30 40 H 3.029776 -2.554473 -1.021945 0
M  V30 41 H 4.901695 -1.247900 -1.332466 0
M  V30 42 H 5.859909 0.826949 -2.063957 0
M  V30 43 H 2.287670 2.844455 -1.308108 0
M  V30 44 H 0.024426 0.655739 -0.971380 0
M  V30 45 H 0.221659 1.893498 3.386593 0
M  V30 46 H -1.965378 2.161245 4.503820 0
M  V30 47 H -6.394123 -1.534836 0.098239 0
M  V30 48 H -7.571124 0.249322 -1.084385 0
M  V30 49 H -6.559408 2.550683 -1.142740 0
M  V30 50 H 0.379389 -1.498467 -0.039416 0
M  V30 51 H 0.827568 -1.963196 -1.789191 0
M  V30 52 H -0.278926 -3.675200 -0.073316 0
M  V30 53 H 1.074434 -5.331964 -1.417614 0
M  V30 54 H -0.037395 -4.263366 -2.257208 0
M  V30 55 H 1.132089 -4.976041 1.110397 0
M  V30 56 H 3.208123 -5.400254 0.672353 0
M  V30 END ATOM
M  V30 BEGIN BOND
M  V30 1 1 1 2
M  V30 2 1 2 3
M  V30 3 1 3 4
M  V30 4 1 4 5
M  V30 5 2 5 6
M  V30 6 1 6 7
M  V30 7 2 7 8
M  V30 8 1 8 9
M  V30 9 2 9 10
M  V30 10 1 10 11
M  V30 11 1 11 12
M  V30 12 2 12 13
M  V30 13 1 12 14
M  V30 14 2 14 15
M  V30 15 1 15 16
M  V30 16 2 16 17
M  V30 17 1 17 18
M  V30 18 1 17 19
M  V30 19 1 19 20
M  V30 20 2 20 21
M  V30 21 1 21 22
M  V30 22 1 21 23
M  V30 23 2 23 24
M  V30 24 1 24 25
M  V30 25 2 25 26
M  V30 26 1 26 27
M  V30 27 2 19 28
M  V30 28 1 4 29
M  V30 29 1 29 30
M  V30 30 1 30 31
M  V30 31 1 30 32
M  V30 32 1 32 33
M  V30 33 1 32 2
M  V30 34 1 10 5
M  V30 35 1 28 14
M  V30 36 1 26 20
M  V30 37 1 1 34
M  V30 38 1 1 35
M  V30 39 1 1 36
M  V30 40 1 2 37 CFG=1
M  V30 41 1 3 38
M  V30 42 1 3 39
M  V30 43 1 4 40 CFG=3
M  V30 44 1 6 41
M  V30 45 1 7 42
M  V30 46 1 9 43
M  V30 47 1 11 44
M  V30 48 1 15 45
M  V30 49 1 16 46
M  V30 50 1 23 47
M  V30 51 1 24 48
M  V30 52 1 25 49
M  V30 53 1 29 50
M  V30 54 1 29 51
M  V30 55 1 30 52 CFG=1
M  V30 56 1 31 53
M  V30 57 1 31 54
M  V30 58 1 32 55 CFG=1
M  V30 59 1 33 56
M  V30 END BOND
M  V30 END CTAB
M  END
>  <Dataset>  (357) 
ChEMBL_Kinases

>  <Ligand_Instance>  (357) 
nan

>  <PDB_ID>  (357) 
nan

>  <Standardized_SMILES>  (357) 
C[C@@H]1C[C@H](c2ccncc2NC(=O)c2ccc(F)c(-c3c(F)cccc3F)n2)C[C@@H](N)[C@H]1O

>  <Name>  (357) 
nan

>  <Pocket>  (357) 
nan

>  <ATP_Site>  (357) 
nan

>  <Peripheral>  (357) 
nan

>  <Num_H_Atoms_ProtBoundConf>  (357) 
nan

>  <Num_Resolved_Atoms>  (357) 
nan

>  <Num_Not_Resolved_Atoms>  (357) 
nan

$$$$
CHEMBL3652028
     RDKit          3D

  0  0  0  0  0  0  0  0  0  0999 V3000
M  V30 BEGIN CTAB
M  V30 COUNTS 53 56 0 0 0
M  V30 BEGIN ATOM
M  V30 1 N -1.085396 1.203752 3.694798 0
M  V30 2 C 0.062367 1.309572 2.861042 0
M  V30 3 C 1.255514 1.766546 3.403641 0
M  V30 4 C 2.339719 1.853512 2.563316 0
M  V30 5 F 3.476837 2.302513 3.135186 0
M  V30 6 C 2.366765 1.532597 1.230095 0
M  V30 7 C 3.480576 1.608112 0.310784 0
M  V30 8 C 4.765488 2.016152 0.553464 0
M  V30 9 C 5.781027 2.063202 -0.373283 0
M  V30 10 N 5.522912 1.682403 -1.635544 0
M  V30 11 C 4.279616 1.271586 -1.935312 0
M  V30 12 C 3.260374 1.226638 -0.995950 0
M  V30 13 F 2.085612 0.783233 -1.503492 0
M  V30 14 N 1.185651 1.095648 0.755579 0
M  V30 15 C 0.081228 0.985341 1.523354 0
M  V30 16 C -1.179548 0.505502 0.962350 0
M  V30 17 O -2.185394 0.420270 1.723756 0
M  V30 18 N -1.406348 0.106768 -0.407809 0
M  V30 19 C -2.751468 -0.283183 -0.510747 0
M  V30 20 C -3.632058 0.734925 -0.808020 0
M  V30 21 N -4.946450 0.498418 -0.929238 0
M  V30 22 C -5.400145 -0.738793 -0.758845 0
M  V30 23 C -4.513684 -1.748956 -0.462537 0
M  V30 24 C -3.127574 -1.590886 -0.318237 0
M  V30 25 C -2.248515 -2.734144 -0.012268 0 CFG=2
M  V30 26 C -1.951852 -2.907679 1.462411 0
M  V30 27 C -1.295960 -4.276890 1.579425 0
M  V30 28 C -0.052357 -4.375808 0.748750 0
M  V30 29 C 0.224293 -3.185597 -0.120518 0 CFG=2
M  V30 30 N 0.770871 -2.128013 0.665035 0
M  V30 31 C -1.028711 -2.841475 -0.882455 0
M  V30 32 H -1.294629 0.270362 4.126893 0
M  V30 33 H -1.731559 2.004536 3.900541 0
M  V30 34 H 1.303771 2.032426 4.430401 0
M  V30 35 H 5.009727 2.328573 1.553328 0
M  V30 36 H 6.765903 2.401954 -0.081710 0
M  V30 37 H 4.156222 0.983835 -2.967999 0
M  V30 38 H -0.486855 0.231626 -0.932636 0
M  V30 39 H -3.312481 1.756717 -0.955641 0
M  V30 40 H -6.455293 -0.940483 -0.853772 0
M  V30 41 H -4.955140 -2.739679 -0.335846 0
M  V30 42 H -2.876358 -3.663212 -0.246535 0
M  V30 43 H -2.927973 -2.933087 1.989361 0
M  V30 44 H -1.246820 -2.204021 1.887267 0
M  V30 45 H -2.017495 -5.066707 1.246526 0
M  V30 46 H -1.002748 -4.436517 2.646406 0
M  V30 47 H -0.100499 -5.272172 0.072154 0
M  V30 48 H 0.865910 -4.521090 1.382400 0
M  V30 49 H 1.025089 -3.499573 -0.833294 0
M  V30 50 H 1.559607 -1.621261 0.189626 0
M  V30 51 H 1.246846 -2.572927 1.506070 0
M  V30 52 H -0.898096 -1.988689 -1.588755 0
M  V30 53 H -1.174450 -3.719859 -1.585909 0
M  V30 END ATOM
M  V30 BEGIN BOND
M  V30 1 1 1 2
M  V30 2 2 2 3
M  V30 3 1 3 4
M  V30 4 1 4 5
M  V30 5 2 4 6
M  V30 6 1 6 7
M  V30 7 2 7 8
M  V30 8 1 8 9
M  V30 9 2 9 10
M  V30 10 1 10 11
M  V30 11 2 11 12
M  V30 12 1 12 13
M  V30 13 1 6 14
M  V30 14 2 14 15
M  V30 15 1 15 16
M  V30 16 2 16 17
M  V30 17 1 16 18
M  V30 18 1 18 19
M  V30 19 2 19 20
M  V30 20 1 20 21
M  V30 21 2 21 22
M  V30 22 1 22 23
M  V30 23 2 23 24
M  V30 24 1 24 25
M  V30 25 1 25 26
M  V30 26 1 26 27
M  V30 27 1 27 28
M  V30 28 1 28 29
M  V30 29 1 29 30
M  V30 30 1 29 31
M  V30 31 1 15 2
M  V30 32 1 24 19
M  V30 33 1 31 25
M  V30 34 1 12 7
M  V30 35 1 1 32
M  V30 36 1 1 33
M  V30 37 1 3 34
M  V30 38 1 8 35
M  V30 39 1 9 36
M  V30 40 1 11 37
M  V30 41 1 18 38
M  V30 42 1 20 39
M  V30 43 1 22 40
M  V30 44 1 23 41
M  V30 45 1 25 42 CFG=3
M  V30 46 1 26 43
M  V30 47 1 26 44
M  V30 48 1 27 45
M  V30 49 1 27 46
M  V30 50 1 28 47
M  V30 51 1 28 48
M  V30 52 1 29 49 CFG=3
M  V30 53 1 30 50
M  V30 54 1 30 51
M  V30 55 1 31 52
M  V30 56 1 31 53
M  V30 END BOND
M  V30 END CTAB
M  END
>  <Dataset>  (358) 
ChEMBL_Kinases

>  <Ligand_Instance>  (358) 
nan

>  <PDB_ID>  (358) 
nan

>  <Standardized_SMILES>  (358) 
Nc1cc(F)c(-c2ccncc2F)nc1C(=O)Nc1cnccc1[C@@H]1CCC[C@H](N)C1

>  <Name>  (358) 
nan

>  <Pocket>  (358) 
nan

>  <ATP_Site>  (358) 
nan

>  <Peripheral>  (358) 
nan

>  <Num_H_Atoms_ProtBoundConf>  (358) 
nan

>  <Num_Resolved_Atoms>  (358) 
nan

>  <Num_Not_Resolved_Atoms>  (358) 
nan

$$$$
CHEMBL3652544
     RDKit          3D

  0  0  0  0  0  0  0  0  0  0999 V3000
M  V30 BEGIN CTAB
M  V30 COUNTS 40 43 0 0 0
M  V30 BEGIN ATOM
M  V30 1 C 0.122785 -5.162996 2.173318 0
M  V30 2 C 0.013289 -3.691208 1.966606 0
M  V30 3 C 1.243320 -3.051150 1.976821 0
M  V30 4 C 1.148484 -1.695180 1.778786 0
M  V30 5 N 2.227562 -0.725520 1.693839 0
M  V30 6 C 2.295575 -0.525214 0.257789 0
M  V30 7 N 2.212999 -1.337630 -0.806183 0
M  V30 8 N 2.282960 -0.691002 -1.956150 0
M  V30 9 C 2.422172 0.609969 -1.602012 0
M  V30 10 N 2.526633 1.633666 -2.495790 0
M  V30 11 C 2.653765 2.882748 -1.973905 0
M  V30 12 C 2.673151 3.071251 -0.597882 0
M  V30 13 F 2.818935 4.336938 -0.138291 0
M  V30 14 C 2.564460 2.025176 0.296437 0
M  V30 15 C 2.436143 0.767984 -0.244438 0
M  V30 16 N -0.064110 -1.092310 1.597233 0
M  V30 17 C -1.228651 -1.776988 1.594798 0
M  V30 18 C -2.445790 -0.962601 1.337893 0
M  V30 19 C -2.337888 -0.268028 -0.001276 0
M  V30 20 C -1.498655 0.971900 0.294461 0
M  V30 21 C -1.732516 1.303440 1.753014 0
M  V30 22 C -2.516302 0.159357 2.330186 0
M  V30 23 N -1.182947 -3.118438 1.787413 0
M  V30 24 H 0.750838 -5.384829 3.057542 0
M  V30 25 H -0.848024 -5.652971 2.178143 0
M  V30 26 H 0.690661 -5.626842 1.314659 0
M  V30 27 H 2.236631 -3.435393 2.109859 0
M  V30 28 H 2.868751 -0.247473 2.356995 0
M  V30 29 H 2.232227 -1.272128 -2.813812 0
M  V30 30 H 2.727875 3.666704 -2.707552 0
M  V30 31 H 2.576593 2.144506 1.362890 0
M  V30 32 H -3.374122 -1.587479 1.328475 0
M  V30 33 H -1.857469 -0.907639 -0.761349 0
M  V30 34 H -3.355214 0.072226 -0.255012 0
M  V30 35 H -1.849832 1.830655 -0.330457 0
M  V30 36 H -0.450146 0.802958 0.041964 0
M  V30 37 H -0.762393 1.496574 2.220232 0
M  V30 38 H -2.315056 2.259943 1.827443 0
M  V30 39 H -2.124451 -0.165941 3.290098 0
M  V30 40 H -3.578763 0.494520 2.463044 0
M  V30 END ATOM
M  V30 BEGIN BOND
M  V30 1 1 1 2
M  V30 2 2 2 3
M  V30 3 1 3 4
M  V30 4 1 4 5
M  V30 5 1 5 6
M  V30 6 2 6 7
M  V30 7 1 7 8
M  V30 8 1 8 9
M  V30 9 2 9 10
M  V30 10 1 10 11
M  V30 11 2 11 12
M  V30 12 1 12 13
M  V30 13 1 12 14
M  V30 14 2 14 15
M  V30 15 2 4 16
M  V30 16 1 16 17
M  V30 17 1 17 18
M  V30 18 1 18 19
M  V30 19 1 19 20
M  V30 20 1 20 21
M  V30 21 1 21 22
M  V30 22 2 17 23
M  V30 23 1 23 2
M  V30 24 1 15 6
M  V30 25 1 22 18
M  V30 26 1 15 9
M  V30 27 1 1 24
M  V30 28 1 1 25
M  V30 29 1 1 26
M  V30 30 1 3 27
M  V30 31 1 5 28
M  V30 32 1 8 29
M  V30 33 1 11 30
M  V30 34 1 14 31
M  V30 35 1 18 32
M  V30 36 1 19 33
M  V30 37 1 19 34
M  V30 38 1 20 35
M  V30 39 1 20 36
M  V30 40 1 21 37
M  V30 41 1 21 38
M  V30 42 1 22 39
M  V30 43 1 22 40
M  V30 END BOND
M  V30 END CTAB
M  END
>  <Dataset>  (359) 
ChEMBL_Kinases

>  <Ligand_Instance>  (359) 
nan

>  <PDB_ID>  (359) 
nan

>  <Standardized_SMILES>  (359) 
Cc1cc(Nc2n[nH]c3ncc(F)cc23)nc(C2CCCC2)n1

>  <Name>  (359) 
nan

>  <Pocket>  (359) 
nan

>  <ATP_Site>  (359) 
nan

>  <Peripheral>  (359) 
nan

>  <Num_H_Atoms_ProtBoundConf>  (359) 
nan

>  <Num_Resolved_Atoms>  (359) 
nan

>  <Num_Not_Resolved_Atoms>  (359) 
nan

$$$$
CHEMBL3652030
     RDKit          3D

  0  0  0  0  0  0  0  0  0  0999 V3000
M  V30 BEGIN CTAB
M  V30 COUNTS 55 58 0 0 0
M  V30 BEGIN ATOM
M  V30 1 C 3.522974 -3.615680 0.656774 0
M  V30 2 C 3.243651 -2.383265 -0.173430 0 CFG=2
M  V30 3 C 1.795199 -1.985919 -0.018769 0
M  V30 4 C 1.421920 -0.829163 -0.878756 0 CFG=1
M  V30 5 C 2.027920 0.456243 -0.457476 0
M  V30 6 C 3.223640 0.966361 -0.925622 0
M  V30 7 C 3.705201 2.180710 -0.469309 0
M  V30 8 N 3.043005 2.930301 0.449490 0
M  V30 9 C 1.882408 2.480749 0.932797 0
M  V30 10 C 1.396768 1.271295 0.482360 0
M  V30 11 N 0.156209 0.852944 1.037336 0
M  V30 12 C -0.927028 1.334050 0.251524 0
M  V30 13 O -0.554317 2.022208 -0.759724 0
M  V30 14 C -2.331942 1.079571 0.551145 0
M  V30 15 C -3.264777 1.617715 -0.308569 0
M  V30 16 C -4.613363 1.421817 -0.092123 0
M  V30 17 C -4.951274 0.670672 1.013953 0
M  V30 18 F -6.257256 0.405813 1.335923 0
M  V30 19 C -4.034979 0.126405 1.881940 0
M  V30 20 C -4.357301 -0.668085 3.053600 0
M  V30 21 C -4.557789 -0.062673 4.293958 0
M  V30 22 F -4.456027 1.283073 4.433527 0
M  V30 23 C -4.862805 -0.810821 5.404962 0
M  V30 24 C -4.965171 -2.181257 5.257058 0
M  V30 25 C -4.769927 -2.788486 4.040840 0
M  V30 26 C -4.458965 -2.047649 2.898148 0
M  V30 27 F -4.267654 -2.659128 1.698829 0
M  V30 28 N -2.722065 0.345147 1.629340 0
M  V30 29 C 1.641399 -1.173298 -2.304459 0
M  V30 30 C 2.718061 -2.123919 -2.639330 0 CFG=1
M  V30 31 O 3.497442 -1.501973 -3.652671 0
M  V30 32 C 3.666189 -2.545212 -1.586043 0 CFG=1
M  V30 33 O 4.976647 -2.038359 -1.801972 0
M  V30 34 H 4.510815 -4.060468 0.401204 0
M  V30 35 H 2.750692 -4.383050 0.367132 0
M  V30 36 H 3.446377 -3.415799 1.731701 0
M  V30 37 H 3.854530 -1.555685 0.283250 0
M  V30 38 H 1.512758 -1.838732 1.042479 0
M  V30 39 H 1.187555 -2.853853 -0.355898 0
M  V30 40 H 0.310841 -0.681447 -0.724686 0
M  V30 41 H 3.763199 0.404956 -1.644981 0
M  V30 42 H 4.663989 2.529348 -0.882889 0
M  V30 43 H 1.340924 3.063792 1.665112 0
M  V30 44 H -0.098024 0.278214 1.884796 0
M  V30 45 H -3.000686 2.208921 -1.179058 0
M  V30 46 H -5.417028 1.804076 -0.711148 0
M  V30 47 H -5.022614 -0.368348 6.375709 0
M  V30 48 H -5.209262 -2.783206 6.144792 0
M  V30 49 H -4.846002 -3.854359 3.908533 0
M  V30 50 H 1.678253 -0.227828 -2.936848 0
M  V30 51 H 0.674970 -1.644018 -2.677245 0
M  V30 52 H 2.313391 -3.035134 -3.183452 0
M  V30 53 H 2.942159 -0.887371 -4.169543 0
M  V30 54 H 3.838418 -3.661807 -1.715823 0
M  V30 55 H 5.183836 -2.009322 -2.751142 0
M  V30 END ATOM
M  V30 BEGIN BOND
M  V30 1 1 1 2
M  V30 2 1 2 3
M  V30 3 1 3 4
M  V30 4 1 4 5
M  V30 5 2 5 6
M  V30 6 1 6 7
M  V30 7 2 7 8
M  V30 8 1 8 9
M  V30 9 2 9 10
M  V30 10 1 10 11
M  V30 11 1 11 12
M  V30 12 2 12 13
M  V30 13 1 12 14
M  V30 14 2 14 15
M  V30 15 1 15 16
M  V30 16 2 16 17
M  V30 17 1 17 18
M  V30 18 1 17 19
M  V30 19 1 19 20
M  V30 20 2 20 21
M  V30 21 1 21 22
M  V30 22 1 21 23
M  V30 23 2 23 24
M  V30 24 1 24 25
M  V30 25 2 25 26
M  V30 26 1 26 27
M  V30 27 2 19 28
M  V30 28 1 4 29
M  V30 29 1 29 30
M  V30 30 1 30 31
M  V30 31 1 30 32
M  V30 32 1 32 33
M  V30 33 1 32 2
M  V30 34 1 10 5
M  V30 35 1 28 14
M  V30 36 1 26 20
M  V30 37 1 1 34
M  V30 38 1 1 35
M  V30 39 1 1 36
M  V30 40 1 2 37 CFG=1
M  V30 41 1 3 38
M  V30 42 1 3 39
M  V30 43 1 4 40 CFG=3
M  V30 44 1 6 41
M  V30 45 1 7 42
M  V30 46 1 9 43
M  V30 47 1 11 44
M  V30 48 1 15 45
M  V30 49 1 16 46
M  V30 50 1 23 47
M  V30 51 1 24 48
M  V30 52 1 25 49
M  V30 53 1 29 50
M  V30 54 1 29 51
M  V30 55 1 30 52 CFG=3
M  V30 56 1 31 53
M  V30 57 1 32 54 CFG=3
M  V30 58 1 33 55
M  V30 END BOND
M  V30 END CTAB
M  END
>  <Dataset>  (360) 
ChEMBL_Kinases

>  <Ligand_Instance>  (360) 
nan

>  <PDB_ID>  (360) 
nan

>  <Standardized_SMILES>  (360) 
C[C@@H]1C[C@@H](c2ccncc2NC(=O)c2ccc(F)c(-c3c(F)cccc3F)n2)C[C@@H](O)[C@H]1O

>  <Name>  (360) 
nan

>  <Pocket>  (360) 
nan

>  <ATP_Site>  (360) 
nan

>  <Peripheral>  (360) 
nan

>  <Num_H_Atoms_ProtBoundConf>  (360) 
nan

>  <Num_Resolved_Atoms>  (360) 
nan

>  <Num_Not_Resolved_Atoms>  (360) 
nan

$$$$
CHEMBL3652031
     RDKit          3D

  0  0  0  0  0  0  0  0  0  0999 V3000
M  V30 BEGIN CTAB
M  V30 COUNTS 55 58 0 0 0
M  V30 BEGIN ATOM
M  V30 1 C 2.490240 -3.889748 1.030085 0
M  V30 2 C 1.525332 -2.804224 0.662841 0 CFG=1
M  V30 3 C 2.044061 -1.450344 1.051712 0
M  V30 4 C 2.013375 -0.556271 -0.158555 0 CFG=1
M  V30 5 C 2.500390 0.795534 0.114899 0
M  V30 6 C 3.858437 0.953941 -0.146669 0
M  V30 7 C 4.518591 2.156992 0.039734 0
M  V30 8 N 3.771666 3.199861 0.498243 0
M  V30 9 C 2.474452 3.004834 0.736045 0
M  V30 10 C 1.756662 1.856066 0.577846 0
M  V30 11 N 0.380126 1.660894 0.835900 0
M  V30 12 C -0.575503 2.578094 1.298770 0
M  V30 13 O -0.227071 3.759582 1.538470 0
M  V30 14 C -1.975042 2.249737 1.526239 0
M  V30 15 C -2.883926 3.168052 1.978885 0
M  V30 16 C -4.189937 2.769093 2.166223 0
M  V30 17 C -4.585779 1.464676 1.904092 0
M  V30 18 F -5.859433 1.025268 2.073226 0
M  V30 19 C -3.651746 0.562080 1.450006 0
M  V30 20 C -3.934311 -0.829705 1.138789 0
M  V30 21 C -3.767368 -1.680248 2.230982 0
M  V30 22 F -3.379288 -1.272842 3.474905 0
M  V30 23 C -4.004677 -3.048620 2.078015 0
M  V30 24 C -4.402896 -3.587625 0.867116 0
M  V30 25 C -4.560376 -2.716637 -0.200448 0
M  V30 26 C -4.332170 -1.358765 -0.076142 0
M  V30 27 F -4.466407 -0.461702 -1.069955 0
M  V30 28 N -2.390049 0.980250 1.277852 0
M  V30 29 C 2.792667 -1.245914 -1.263560 0
M  V30 30 C 1.877369 -2.344554 -1.802210 0 CFG=1
M  V30 31 N 2.654139 -3.370153 -2.473043 0
M  V30 32 C 0.987997 -2.885786 -0.736402 0 CFG=1
M  V30 33 F 0.613127 -4.195853 -0.954099 0
M  V30 34 H 2.313916 -4.257668 2.083905 0
M  V30 35 H 3.531024 -3.498242 1.057415 0
M  V30 36 H 2.384038 -4.798293 0.400402 0
M  V30 37 H 0.624877 -2.970542 1.326106 0
M  V30 38 H 1.488599 -0.961518 1.874502 0
M  V30 39 H 3.119226 -1.531841 1.379985 0
M  V30 40 H 0.968619 -0.515946 -0.521096 0
M  V30 41 H 4.502899 0.177723 -0.507798 0
M  V30 42 H 5.572256 2.297033 -0.158453 0
M  V30 43 H 1.986158 3.895657 1.094202 0
M  V30 44 H -0.042718 0.728692 0.682625 0
M  V30 45 H -2.543173 4.176875 2.173832 0
M  V30 46 H -4.932441 3.469839 2.522667 0
M  V30 47 H -3.877607 -3.731690 2.928732 0
M  V30 48 H -4.597752 -4.626798 0.695726 0
M  V30 49 H -4.871367 -3.083240 -1.175539 0
M  V30 50 H 3.758712 -1.669379 -0.923415 0
M  V30 51 H 3.022546 -0.534752 -2.082727 0
M  V30 52 H 1.265255 -1.859113 -2.591807 0
M  V30 53 H 2.095127 -3.756513 -3.247845 0
M  V30 54 H 3.081171 -4.067638 -1.828515 0
M  V30 55 H 0.023064 -2.309545 -0.745452 0
M  V30 END ATOM
M  V30 BEGIN BOND
M  V30 1 1 1 2
M  V30 2 1 2 3
M  V30 3 1 3 4
M  V30 4 1 4 5
M  V30 5 2 5 6
M  V30 6 1 6 7
M  V30 7 2 7 8
M  V30 8 1 8 9
M  V30 9 2 9 10
M  V30 10 1 10 11
M  V30 11 1 11 12
M  V30 12 2 12 13
M  V30 13 1 12 14
M  V30 14 2 14 15
M  V30 15 1 15 16
M  V30 16 2 16 17
M  V30 17 1 17 18
M  V30 18 1 17 19
M  V30 19 1 19 20
M  V30 20 2 20 21
M  V30 21 1 21 22
M  V30 22 1 21 23
M  V30 23 2 23 24
M  V30 24 1 24 25
M  V30 25 2 25 26
M  V30 26 1 26 27
M  V30 27 2 19 28
M  V30 28 1 4 29
M  V30 29 1 29 30
M  V30 30 1 30 31
M  V30 31 1 30 32
M  V30 32 1 32 33
M  V30 33 1 32 2
M  V30 34 1 10 5
M  V30 35 1 28 14
M  V30 36 1 26 20
M  V30 37 1 1 34
M  V30 38 1 1 35
M  V30 39 1 1 36
M  V30 40 1 2 37 CFG=1
M  V30 41 1 3 38
M  V30 42 1 3 39
M  V30 43 1 4 40 CFG=3
M  V30 44 1 6 41
M  V30 45 1 7 42
M  V30 46 1 9 43
M  V30 47 1 11 44
M  V30 48 1 15 45
M  V30 49 1 16 46
M  V30 50 1 23 47
M  V30 51 1 24 48
M  V30 52 1 25 49
M  V30 53 1 29 50
M  V30 54 1 29 51
M  V30 55 1 30 52 CFG=3
M  V30 56 1 31 53
M  V30 57 1 31 54
M  V30 58 1 32 55 CFG=1
M  V30 END BOND
M  V30 END CTAB
M  END
>  <Dataset>  (361) 
ChEMBL_Kinases

>  <Ligand_Instance>  (361) 
nan

>  <PDB_ID>  (361) 
nan

>  <Standardized_SMILES>  (361) 
C[C@H]1C[C@@H](c2ccncc2NC(=O)c2ccc(F)c(-c3c(F)cccc3F)n2)C[C@@H](N)[C@H]1F

>  <Name>  (361) 
nan

>  <Pocket>  (361) 
nan

>  <ATP_Site>  (361) 
nan

>  <Peripheral>  (361) 
nan

>  <Num_H_Atoms_ProtBoundConf>  (361) 
nan

>  <Num_Resolved_Atoms>  (361) 
nan

>  <Num_Not_Resolved_Atoms>  (361) 
nan

$$$$
CHEMBL365229
     RDKit          3D

  0  0  0  0  0  0  0  0  0  0999 V3000
M  V30 BEGIN CTAB
M  V30 COUNTS 37 40 0 0 0
M  V30 BEGIN ATOM
M  V30 1 F 4.644570 -3.265262 3.622352 0
M  V30 2 C 3.994060 -3.388906 2.411648 0
M  V30 3 F 2.867536 -4.202905 2.661289 0
M  V30 4 F 4.833518 -4.000265 1.518396 0
M  V30 5 C 3.536488 -2.033173 1.945710 0
M  V30 6 C 3.724330 -0.877661 2.716437 0
M  V30 7 C 3.224399 0.325468 2.205781 0
M  V30 8 Br 3.485795 1.873641 3.277236 0
M  V30 9 C 2.565289 0.435182 1.000115 0
M  V30 10 C 2.411740 -0.725983 0.293986 0
M  V30 11 N 1.716669 -0.801503 -0.942959 0
M  V30 12 C 0.904979 0.114697 -1.680417 0
M  V30 13 N 0.901368 0.941061 -2.737914 0
M  V30 14 C -0.171244 1.671758 -3.072682 0
M  V30 15 C -1.344887 1.628842 -2.354207 0
M  V30 16 C -1.373735 0.780504 -1.249312 0
M  V30 17 C -2.598819 0.632036 -0.414331 0
M  V30 18 C -3.827611 1.181311 -0.394463 0
M  V30 19 N -4.537407 0.624759 0.595825 0
M  V30 20 N -3.773957 -0.286506 1.222673 0
M  V30 21 N -4.096140 -1.063584 2.255830 0
M  V30 22 C -3.218552 -1.943064 2.782834 0
M  V30 23 C -1.929864 -2.030179 2.216145 0
M  V30 24 C -1.664352 -1.198294 1.150360 0
M  V30 25 C -2.582800 -0.296960 0.619080 0
M  V30 26 N -0.235730 0.104878 -1.024999 0
M  V30 27 C 2.876396 -1.958461 0.725035 0
M  V30 28 H 4.227618 -0.917131 3.667902 0
M  V30 29 H 2.179522 1.378927 0.609452 0
M  V30 30 H 1.672762 -1.626918 -1.603376 0
M  V30 31 H -0.052853 2.292734 -3.940078 0
M  V30 32 H -2.221259 2.223963 -2.613093 0
M  V30 33 H -4.066616 1.947648 -1.123133 0
M  V30 34 H -3.388241 -2.609801 3.598135 0
M  V30 35 H -1.179429 -2.708566 2.586051 0
M  V30 36 H -0.670275 -1.287623 0.751624 0
M  V30 37 H 2.764377 -2.891087 0.160036 0
M  V30 END ATOM
M  V30 BEGIN BOND
M  V30 1 1 1 2
M  V30 2 1 2 3
M  V30 3 1 2 4
M  V30 4 1 2 5
M  V30 5 2 5 6
M  V30 6 1 6 7
M  V30 7 1 7 8
M  V30 8 2 7 9
M  V30 9 1 9 10
M  V30 10 1 10 11
M  V30 11 1 11 12
M  V30 12 2 12 13
M  V30 13 1 13 14
M  V30 14 2 14 15
M  V30 15 1 15 16
M  V30 16 1 16 17
M  V30 17 1 17 18
M  V30 18 2 18 19
M  V30 19 1 19 20
M  V30 20 1 20 21
M  V30 21 2 21 22
M  V30 22 1 22 23
M  V30 23 2 23 24
M  V30 24 1 24 25
M  V30 25 2 16 26
M  V30 26 2 10 27
M  V30 27 1 27 5
M  V30 28 1 26 12
M  V30 29 2 25 17
M  V30 30 1 25 20
M  V30 31 1 6 28
M  V30 32 1 9 29
M  V30 33 1 11 30
M  V30 34 1 14 31
M  V30 35 1 15 32
M  V30 36 1 18 33
M  V30 37 1 22 34
M  V30 38 1 23 35
M  V30 39 1 24 36
M  V30 40 1 27 37
M  V30 END BOND
M  V30 END CTAB
M  END
>  <Dataset>  (362) 
ChEMBL_Kinases

>  <Ligand_Instance>  (362) 
nan

>  <PDB_ID>  (362) 
nan

>  <Standardized_SMILES>  (362) 
FC(F)(F)c1cc(Br)cc(Nc2nccc(-c3cnn4ncccc34)n2)c1

>  <Name>  (362) 
nan

>  <Pocket>  (362) 
nan

>  <ATP_Site>  (362) 
nan

>  <Peripheral>  (362) 
nan

>  <Num_H_Atoms_ProtBoundConf>  (362) 
nan

>  <Num_Resolved_Atoms>  (362) 
nan

>  <Num_Not_Resolved_Atoms>  (362) 
nan

$$$$
CHEMBL365248
     RDKit          3D

  0  0  0  0  0  0  0  0  0  0999 V3000
M  V30 BEGIN CTAB
M  V30 COUNTS 42 45 0 0 0
M  V30 BEGIN ATOM
M  V30 1 C -1.938600 -4.997282 4.146688 0
M  V30 2 O -1.449659 -3.667903 3.899541 0
M  V30 3 C -0.623060 -3.419648 2.817255 0
M  V30 4 C -0.254593 -2.063679 2.739955 0
M  V30 5 C 0.586653 -1.614045 1.703412 0
M  V30 6 C 1.050084 -2.507393 0.762020 0
M  V30 7 C 1.887956 -2.335954 -0.336276 0
M  V30 8 C 2.546483 -1.127150 -0.821784 0
M  V30 9 C 3.526237 -1.229743 -1.775718 0
M  V30 10 C 4.161703 -0.053818 -2.199395 0
M  V30 11 N 3.816043 1.155152 -1.681521 0
M  V30 12 C 2.859162 1.242608 -0.752879 0
M  V30 13 N 2.479519 2.503513 -0.157904 0
M  V30 14 C 1.265884 2.517964 0.624955 0
M  V30 15 C 0.980905 3.216613 1.787072 0
M  V30 16 C -0.252502 3.104216 2.352022 0
M  V30 17 C -1.276576 2.329635 1.848475 0
M  V30 18 C -1.048820 1.601954 0.674970 0
M  V30 19 O -1.982518 0.786777 0.060029 0
M  V30 20 C -2.911927 1.157806 -0.905935 0
M  V30 21 F -2.350514 1.681171 -2.058151 0
M  V30 22 F -3.846481 2.030764 -0.395030 0
M  V30 23 F -3.644112 0.019551 -1.287551 0
M  V30 24 C 0.227698 1.733230 0.112982 0
M  V30 25 N 2.303041 0.100481 -0.396282 0
M  V30 26 C 1.971796 -3.603214 -0.850218 0
M  V30 27 N 1.234321 -4.445582 -0.103105 0
M  V30 28 N 0.659582 -3.796761 0.892028 0
M  V30 29 N -0.121273 -4.198661 1.856887 0
M  V30 30 H -2.831857 -4.938655 4.792239 0
M  V30 31 H -2.109382 -5.484533 3.165997 0
M  V30 32 H -1.133757 -5.533875 4.671566 0
M  V30 33 H -0.589796 -1.302607 3.467470 0
M  V30 34 H 0.859252 -0.580923 1.667526 0
M  V30 35 H 3.791095 -2.189736 -2.181014 0
M  V30 36 H 4.945130 -0.160832 -2.961857 0
M  V30 37 H 3.083305 3.343866 -0.314512 0
M  V30 38 H 1.813158 3.803029 2.135294 0
M  V30 39 H -0.423024 3.663817 3.254542 0
M  V30 40 H -2.255681 2.242972 2.303743 0
M  V30 41 H 0.333963 1.160378 -0.805869 0
M  V30 42 H 2.526055 -3.936047 -1.719949 0
M  V30 END ATOM
M  V30 BEGIN BOND
M  V30 1 1 1 2
M  V30 2 1 2 3
M  V30 3 1 3 4
M  V30 4 2 4 5
M  V30 5 1 5 6
M  V30 6 2 6 7
M  V30 7 1 7 8
M  V30 8 2 8 9
M  V30 9 1 9 10
M  V30 10 2 10 11
M  V30 11 1 11 12
M  V30 12 1 12 13
M  V30 13 1 13 14
M  V30 14 2 14 15
M  V30 15 1 15 16
M  V30 16 2 16 17
M  V30 17 1 17 18
M  V30 18 1 18 19
M  V30 19 1 19 20
M  V30 20 1 20 21
M  V30 21 1 20 22
M  V30 22 1 20 23
M  V30 23 2 18 24
M  V30 24 2 12 25
M  V30 25 1 7 26
M  V30 26 2 26 27
M  V30 27 1 27 28
M  V30 28 1 28 29
M  V30 29 2 29 3
M  V30 30 1 28 6
M  V30 31 1 25 8
M  V30 32 1 24 14
M  V30 33 1 1 30
M  V30 34 1 1 31
M  V30 35 1 1 32
M  V30 36 1 4 33
M  V30 37 1 5 34
M  V30 38 1 9 35
M  V30 39 1 10 36
M  V30 40 1 13 37
M  V30 41 1 15 38
M  V30 42 1 16 39
M  V30 43 1 17 40
M  V30 44 1 24 41
M  V30 45 1 26 42
M  V30 END BOND
M  V30 END CTAB
M  END
>  <Dataset>  (363) 
ChEMBL_Kinases

>  <Ligand_Instance>  (363) 
nan

>  <PDB_ID>  (363) 
nan

>  <Standardized_SMILES>  (363) 
COc1ccc2c(-c3ccnc(Nc4cccc(OC(F)(F)F)c4)n3)cnn2n1

>  <Name>  (363) 
GW810372X

>  <Pocket>  (363) 
nan

>  <ATP_Site>  (363) 
nan

>  <Peripheral>  (363) 
nan

>  <Num_H_Atoms_ProtBoundConf>  (363) 
nan

>  <Num_Resolved_Atoms>  (363) 
nan

>  <Num_Not_Resolved_Atoms>  (363) 
nan

$$$$
CHEMBL3652540
     RDKit          3D

  0  0  0  0  0  0  0  0  0  0999 V3000
M  V30 BEGIN CTAB
M  V30 COUNTS 46 49 0 0 0
M  V30 BEGIN ATOM
M  V30 1 C 0.471708 -4.436637 0.048854 0
M  V30 2 C 0.561352 -2.983110 0.263343 0
M  V30 3 N 1.777378 -2.383354 0.374692 0
M  V30 4 C 1.823911 -1.028983 0.576627 0
M  V30 5 C 3.088881 -0.261729 0.692914 0
M  V30 6 C 3.568044 -0.059223 -0.760287 0
M  V30 7 C 4.755849 0.882297 -0.774122 0
M  V30 8 C 5.212990 1.202234 0.635085 0
M  V30 9 C 5.364657 -0.014734 1.505277 0
M  V30 10 C 4.190048 -0.957546 1.407373 0
M  V30 11 N 0.671819 -0.295712 0.664554 0
M  V30 12 C -0.540197 -0.876550 0.555102 0
M  V30 13 N -1.684136 -0.037338 0.646195 0
M  V30 14 C -2.828813 -0.160535 1.478331 0
M  V30 15 N -3.129136 -1.083553 2.401502 0
M  V30 16 N -4.298772 -0.855556 2.970333 0
M  V30 17 C -4.771465 0.260718 2.389729 0
M  V30 18 N -5.924398 0.969675 2.568558 0
M  V30 19 C -6.143955 2.071083 1.838665 0
M  V30 20 C -5.284753 2.591133 0.876642 0
M  V30 21 F -5.486142 3.686123 0.143587 0
M  V30 22 C -4.100689 1.871079 0.686347 0
M  V30 23 C -3.886722 0.754120 1.432110 0
M  V30 24 C -0.592516 -2.239806 0.351890 0
M  V30 25 C -1.920361 -2.905817 0.222348 0
M  V30 26 H 0.018843 -4.697458 -0.933333 0
M  V30 27 H 1.503152 -4.881182 0.051107 0
M  V30 28 H -0.184097 -4.908563 0.813600 0
M  V30 29 H 2.890020 0.729526 1.150357 0
M  V30 30 H 2.686038 0.371347 -1.308712 0
M  V30 31 H 3.828022 -1.041783 -1.190402 0
M  V30 32 H 4.370677 1.856517 -1.201165 0
M  V30 33 H 5.562038 0.489433 -1.397832 0
M  V30 34 H 4.508293 1.953012 1.043906 0
M  V30 35 H 6.197157 1.718309 0.552182 0
M  V30 36 H 6.341095 -0.531742 1.285352 0
M  V30 37 H 5.447709 0.363904 2.565346 0
M  V30 38 H 4.575899 -1.840837 0.817369 0
M  V30 39 H 3.932253 -1.280046 2.434901 0
M  V30 40 H -1.596879 0.755400 -0.026159 0
M  V30 41 H -4.811961 -1.378701 3.713503 0
M  V30 42 H -7.043166 2.704276 1.915623 0
M  V30 43 H -3.348555 2.176597 -0.036795 0
M  V30 44 H -2.715817 -2.198768 -0.130241 0
M  V30 45 H -2.250540 -3.410526 1.149391 0
M  V30 46 H -1.916465 -3.703462 -0.575743 0
M  V30 END ATOM
M  V30 BEGIN BOND
M  V30 1 1 1 2
M  V30 2 2 2 3
M  V30 3 1 3 4
M  V30 4 1 4 5
M  V30 5 1 5 6
M  V30 6 1 6 7
M  V30 7 1 7 8
M  V30 8 1 8 9
M  V30 9 1 9 10
M  V30 10 2 4 11
M  V30 11 1 11 12
M  V30 12 1 12 13
M  V30 13 1 13 14
M  V30 14 2 14 15
M  V30 15 1 15 16
M  V30 16 1 16 17
M  V30 17 2 17 18
M  V30 18 1 18 19
M  V30 19 2 19 20
M  V30 20 1 20 21
M  V30 21 1 20 22
M  V30 22 2 22 23
M  V30 23 2 12 24
M  V30 24 1 24 25
M  V30 25 1 24 2
M  V30 26 1 10 5
M  V30 27 1 23 14
M  V30 28 1 23 17
M  V30 29 1 1 26
M  V30 30 1 1 27
M  V30 31 1 1 28
M  V30 32 1 5 29
M  V30 33 1 6 30
M  V30 34 1 6 31
M  V30 35 1 7 32
M  V30 36 1 7 33
M  V30 37 1 8 34
M  V30 38 1 8 35
M  V30 39 1 9 36
M  V30 40 1 9 37
M  V30 41 1 10 38
M  V30 42 1 10 39
M  V30 43 1 13 40
M  V30 44 1 16 41
M  V30 45 1 19 42
M  V30 46 1 22 43
M  V30 47 1 25 44
M  V30 48 1 25 45
M  V30 49 1 25 46
M  V30 END BOND
M  V30 END CTAB
M  END
>  <Dataset>  (364) 
ChEMBL_Kinases

>  <Ligand_Instance>  (364) 
nan

>  <PDB_ID>  (364) 
nan

>  <Standardized_SMILES>  (364) 
Cc1nc(C2CCCCC2)nc(Nc2n[nH]c3ncc(F)cc23)c1C

>  <Name>  (364) 
nan

>  <Pocket>  (364) 
nan

>  <ATP_Site>  (364) 
nan

>  <Peripheral>  (364) 
nan

>  <Num_H_Atoms_ProtBoundConf>  (364) 
nan

>  <Num_Resolved_Atoms>  (364) 
nan

>  <Num_Not_Resolved_Atoms>  (364) 
nan

$$$$
CHEMBL3652541
     RDKit          3D

  0  0  0  0  0  0  0  0  0  0999 V3000
M  V30 BEGIN CTAB
M  V30 COUNTS 43 46 0 0 0
M  V30 BEGIN ATOM
M  V30 1 C 3.283772 -4.333905 2.086820 0
M  V30 2 C 2.474727 -3.231062 1.474591 0
M  V30 3 N 2.905936 -2.660088 0.336972 0
M  V30 4 C 2.188743 -1.660969 -0.228706 0
M  V30 5 N 2.579437 -0.996770 -1.425974 0
M  V30 6 C 1.815004 0.034185 -2.047571 0
M  V30 7 N 0.974518 -0.304816 -3.052738 0
M  V30 8 N 0.355750 0.796103 -3.494530 0
M  V30 9 C 0.779748 1.875598 -2.786176 0
M  V30 10 N 0.526692 3.199026 -2.770131 0
M  V30 11 C 1.187097 3.975291 -1.863911 0
M  V30 12 C 2.109853 3.525448 -0.941701 0
M  V30 13 F 2.714887 4.372284 -0.080681 0
M  V30 14 C 2.382115 2.154812 -0.946849 0
M  V30 15 C 1.698415 1.396802 -1.874889 0
M  V30 16 C 1.008331 -1.253593 0.401468 0
M  V30 17 C 0.570038 -1.857067 1.588103 0
M  V30 18 C -0.680483 -1.333974 2.166365 0
M  V30 19 C -1.860313 -2.262802 2.072884 0
M  V30 20 C -3.092227 -1.365160 2.229062 0
M  V30 21 C -2.859198 -0.183765 3.106443 0
M  V30 22 F -4.027954 0.104369 3.828372 0
M  V30 23 F -2.602191 0.987250 2.377221 0
M  V30 24 C -1.772848 -0.316327 4.115525 0
M  V30 25 C -0.500141 -0.941440 3.595687 0
M  V30 26 N 1.322667 -2.844638 2.103997 0
M  V30 27 H 4.164343 -4.531497 1.479353 0
M  V30 28 H 3.552673 -4.081119 3.134611 0
M  V30 29 H 2.698711 -5.270853 2.119887 0
M  V30 30 H 3.479254 -1.272916 -1.884631 0
M  V30 31 H -0.362697 0.854945 -4.276940 0
M  V30 32 H 0.914192 5.036309 -1.929480 0
M  V30 33 H 3.094592 1.738893 -0.249909 0
M  V30 34 H 0.446633 -0.441498 -0.079934 0
M  V30 35 H -0.982125 -0.419058 1.581805 0
M  V30 36 H -1.890899 -2.767019 1.096038 0
M  V30 37 H -1.909047 -2.988680 2.904985 0
M  V30 38 H -3.270884 -0.947677 1.193360 0
M  V30 39 H -3.991294 -1.935060 2.472135 0
M  V30 40 H -1.485538 0.723450 4.442903 0
M  V30 41 H -2.098127 -0.811671 5.052609 0
M  V30 42 H -0.252223 -1.862182 4.195059 0
M  V30 43 H 0.385026 -0.278542 3.667288 0
M  V30 END ATOM
M  V30 BEGIN BOND
M  V30 1 1 1 2
M  V30 2 2 2 3
M  V30 3 1 3 4
M  V30 4 1 4 5
M  V30 5 1 5 6
M  V30 6 2 6 7
M  V30 7 1 7 8
M  V30 8 1 8 9
M  V30 9 2 9 10
M  V30 10 1 10 11
M  V30 11 2 11 12
M  V30 12 1 12 13
M  V30 13 1 12 14
M  V30 14 2 14 15
M  V30 15 2 4 16
M  V30 16 1 16 17
M  V30 17 1 17 18
M  V30 18 1 18 19
M  V30 19 1 19 20
M  V30 20 1 20 21
M  V30 21 1 21 22
M  V30 22 1 21 23
M  V30 23 1 21 24
M  V30 24 1 24 25
M  V30 25 2 17 26
M  V30 26 1 26 2
M  V30 27 1 15 6
M  V30 28 1 25 18
M  V30 29 1 15 9
M  V30 30 1 1 27
M  V30 31 1 1 28
M  V30 32 1 1 29
M  V30 33 1 5 30
M  V30 34 1 8 31
M  V30 35 1 11 32
M  V30 36 1 14 33
M  V30 37 1 16 34
M  V30 38 1 18 35
M  V30 39 1 19 36
M  V30 40 1 19 37
M  V30 41 1 20 38
M  V30 42 1 20 39
M  V30 43 1 24 40
M  V30 44 1 24 41
M  V30 45 1 25 42
M  V30 46 1 25 43
M  V30 END BOND
M  V30 END CTAB
M  END
>  <Dataset>  (365) 
ChEMBL_Kinases

>  <Ligand_Instance>  (365) 
nan

>  <PDB_ID>  (365) 
nan

>  <Standardized_SMILES>  (365) 
Cc1nc(Nc2n[nH]c3ncc(F)cc23)cc(C2CCC(F)(F)CC2)n1

>  <Name>  (365) 
nan

>  <Pocket>  (365) 
nan

>  <ATP_Site>  (365) 
nan

>  <Peripheral>  (365) 
nan

>  <Num_H_Atoms_ProtBoundConf>  (365) 
nan

>  <Num_Resolved_Atoms>  (365) 
nan

>  <Num_Not_Resolved_Atoms>  (365) 
nan

$$$$
CHEMBL3652628
     RDKit          3D

  0  0  0  0  0  0  0  0  0  0999 V3000
M  V30 BEGIN CTAB
M  V30 COUNTS 53 56 0 0 0
M  V30 BEGIN ATOM
M  V30 1 C -4.002154 -0.568242 3.773011 0
M  V30 2 N -2.615393 -0.225145 3.543539 0
M  V30 3 N -2.232105 0.788988 4.294533 0
M  V30 4 C -0.953145 1.119186 4.092412 0
M  V30 5 C -0.527170 0.230616 3.141467 0
M  V30 6 N 0.696454 -0.048141 2.513159 0
M  V30 7 C 1.886290 -0.322676 1.906202 0
M  V30 8 O 2.245953 -1.263544 2.704971 0
M  V30 9 C 2.718395 0.088800 0.791731 0
M  V30 10 N 2.519603 1.031727 -0.089510 0
M  V30 11 C 3.259795 1.318698 -0.970520 0
M  V30 12 C 3.371333 2.281639 -2.107617 0
M  V30 13 C 4.482208 2.212774 -2.931992 0
M  V30 14 F 5.479298 1.338469 -2.806940 0
M  V30 15 C 4.464757 3.157838 -3.926711 0
M  V30 16 C 3.487853 4.133324 -4.177657 0
M  V30 17 C 2.462570 4.051814 -3.261850 0
M  V30 18 C 2.336298 3.166763 -2.215543 0
M  V30 19 F 1.279620 3.180003 -1.375505 0
M  V30 20 S 4.635021 0.132442 -0.724546 0
M  V30 21 C 3.837170 -0.657623 0.752355 0
M  V30 22 N 4.536084 -1.714114 1.374614 0
M  V30 23 C -1.560792 -0.650411 2.759260 0
M  V30 24 O -1.934569 -1.702256 1.969888 0
M  V30 25 C -1.062038 -2.330019 1.088606 0
M  V30 26 C -1.684144 -3.471239 0.322063 0
M  V30 27 C -2.187370 -4.554003 1.239142 0
M  V30 28 C -3.539152 -4.291437 1.805373 0
M  V30 29 N -4.493882 -3.715933 0.914934 0
M  V30 30 C -4.035155 -2.652597 0.088871 0
M  V30 31 C -2.754510 -2.996430 -0.636128 0
M  V30 32 H -4.307417 -1.395821 3.101364 0
M  V30 33 H -4.209703 -0.822751 4.815756 0
M  V30 34 H -4.614915 0.307681 3.407580 0
M  V30 35 H -0.191350 1.811241 4.408165 0
M  V30 36 H 0.549144 0.757426 1.758489 0
M  V30 37 H 5.321845 3.145428 -4.606034 0
M  V30 38 H 3.576272 4.827588 -4.990244 0
M  V30 39 H 1.639149 4.777428 -3.369467 0
M  V30 40 H 5.426667 -2.102595 1.023358 0
M  V30 41 H 4.315283 -2.268783 2.240651 0
M  V30 42 H -0.243962 -2.797414 1.713068 0
M  V30 43 H -0.555040 -1.617398 0.417339 0
M  V30 44 H -0.885487 -3.924105 -0.298553 0
M  V30 45 H -2.181820 -5.554749 0.744433 0
M  V30 46 H -1.446618 -4.644065 2.068709 0
M  V30 47 H -3.961202 -5.296964 2.108215 0
M  V30 48 H -3.410322 -3.758567 2.774808 0
M  V30 49 H -5.326606 -3.428765 1.453672 0
M  V30 50 H -3.837689 -1.690582 0.606544 0
M  V30 51 H -4.805773 -2.420652 -0.669588 0
M  V30 52 H -2.381895 -2.133568 -1.185071 0
M  V30 53 H -2.999615 -3.853269 -1.307206 0
M  V30 END ATOM
M  V30 BEGIN BOND
M  V30 1 1 1 2
M  V30 2 1 2 3
M  V30 3 2 3 4
M  V30 4 1 4 5
M  V30 5 1 5 6
M  V30 6 1 6 7
M  V30 7 2 7 8
M  V30 8 1 7 9
M  V30 9 1 9 10
M  V30 10 2 10 11
M  V30 11 1 11 12
M  V30 12 2 12 13
M  V30 13 1 13 14
M  V30 14 1 13 15
M  V30 15 2 15 16
M  V30 16 1 16 17
M  V30 17 2 17 18
M  V30 18 1 18 19
M  V30 19 1 11 20
M  V30 20 1 20 21
M  V30 21 1 21 22
M  V30 22 2 5 23
M  V30 23 1 23 24
M  V30 24 1 24 25
M  V30 25 1 25 26
M  V30 26 1 26 27
M  V30 27 1 27 28
M  V30 28 1 28 29
M  V30 29 1 29 30
M  V30 30 1 30 31
M  V30 31 1 23 2
M  V30 32 1 31 26
M  V30 33 2 21 9
M  V30 34 1 18 12
M  V30 35 1 1 32
M  V30 36 1 1 33
M  V30 37 1 1 34
M  V30 38 1 4 35
M  V30 39 1 6 36
M  V30 40 1 15 37
M  V30 41 1 16 38
M  V30 42 1 17 39
M  V30 43 1 22 40
M  V30 44 1 22 41
M  V30 45 1 25 42
M  V30 46 1 25 43
M  V30 47 1 26 44
M  V30 48 1 27 45
M  V30 49 1 27 46
M  V30 50 1 28 47
M  V30 51 1 28 48
M  V30 52 1 29 49
M  V30 53 1 30 50
M  V30 54 1 30 51
M  V30 55 1 31 52
M  V30 56 1 31 53
M  V30 END BOND
M  V30 END CTAB
M  END
>  <Dataset>  (366) 
ChEMBL_Kinases

>  <Ligand_Instance>  (366) 
nan

>  <PDB_ID>  (366) 
nan

>  <Standardized_SMILES>  (366) 
Cn1ncc(NC(=O)c2nc(-c3c(F)cccc3F)sc2N)c1OCC1CCNCC1

>  <Name>  (366) 
nan

>  <Pocket>  (366) 
nan

>  <ATP_Site>  (366) 
nan

>  <Peripheral>  (366) 
nan

>  <Num_H_Atoms_ProtBoundConf>  (366) 
nan

>  <Num_Resolved_Atoms>  (366) 
nan

>  <Num_Not_Resolved_Atoms>  (366) 
nan

$$$$
CHEMBL3652542
     RDKit          3D

  0  0  0  0  0  0  0  0  0  0999 V3000
M  V30 BEGIN CTAB
M  V30 COUNTS 44 47 0 0 0
M  V30 BEGIN ATOM
M  V30 1 C -2.599022 -4.047716 -3.539771 0
M  V30 2 C -1.811108 -3.141260 -2.705950 0
M  V30 3 N -0.599770 -2.651040 -3.009638 0
M  V30 4 C 0.117598 -1.816899 -2.237388 0
M  V30 5 C 1.459105 -1.363173 -2.689285 0
M  V30 6 C 2.405882 -1.254320 -1.547177 0
M  V30 7 C 2.408369 0.130202 -0.924578 0
M  V30 8 O 2.439923 1.151350 -1.856560 0
M  V30 9 C 1.225004 1.090819 -2.579997 0
M  V30 10 C 1.365598 -0.073263 -3.512195 0
M  V30 11 N -0.405828 -1.424872 -1.045722 0
M  V30 12 C -1.612835 -1.859145 -0.644812 0
M  V30 13 N -2.119664 -1.436231 0.638044 0
M  V30 14 C -1.278327 -0.543570 1.351237 0
M  V30 15 N -0.118298 -0.990529 1.876939 0
M  V30 16 N 0.523991 -0.009501 2.509922 0
M  V30 17 C -0.207055 1.140457 2.420785 0
M  V30 18 N -0.073410 2.404767 2.855331 0
M  V30 19 C -1.057438 3.304657 2.564052 0
M  V30 20 C -2.175136 2.960061 1.843376 0
M  V30 21 F -3.086449 3.933380 1.612806 0
M  V30 22 C -2.355451 1.661308 1.371974 0
M  V30 23 C -1.326423 0.793843 1.697690 0
M  V30 24 C -2.289823 -2.711043 -1.491045 0
M  V30 25 C -3.620787 -3.162335 -1.030625 0
M  V30 26 H -3.400851 -3.586388 -4.119440 0
M  V30 27 H -2.950785 -4.900897 -2.911663 0
M  V30 28 H -1.907794 -4.508699 -4.282211 0
M  V30 29 H 1.858318 -2.120246 -3.419074 0
M  V30 30 H 2.107113 -1.969345 -0.743567 0
M  V30 31 H 3.440919 -1.503843 -1.853551 0
M  V30 32 H 1.544761 0.256605 -0.238401 0
M  V30 33 H 3.314147 0.202854 -0.293942 0
M  V30 34 H 0.425533 0.926459 -1.855302 0
M  V30 35 H 1.059681 2.047553 -3.126826 0
M  V30 36 H 2.291572 -0.003438 -4.124013 0
M  V30 37 H 0.465217 -0.169413 -4.151916 0
M  V30 38 H -3.030373 -1.759154 1.012339 0
M  V30 39 H 1.425155 0.045580 3.030460 0
M  V30 40 H -0.901599 4.325158 2.940230 0
M  V30 41 H -3.228989 1.382343 0.804913 0
M  V30 42 H -4.177859 -2.203599 -0.797098 0
M  V30 43 H -3.593585 -3.720499 -0.073084 0
M  V30 44 H -4.222576 -3.698016 -1.758205 0
M  V30 END ATOM
M  V30 BEGIN BOND
M  V30 1 1 1 2
M  V30 2 2 2 3
M  V30 3 1 3 4
M  V30 4 1 4 5
M  V30 5 1 5 6
M  V30 6 1 6 7
M  V30 7 1 7 8
M  V30 8 1 8 9
M  V30 9 1 9 10
M  V30 10 2 4 11
M  V30 11 1 11 12
M  V30 12 1 12 13
M  V30 13 1 13 14
M  V30 14 2 14 15
M  V30 15 1 15 16
M  V30 16 1 16 17
M  V30 17 2 17 18
M  V30 18 1 18 19
M  V30 19 2 19 20
M  V30 20 1 20 21
M  V30 21 1 20 22
M  V30 22 2 22 23
M  V30 23 2 12 24
M  V30 24 1 24 25
M  V30 25 1 24 2
M  V30 26 1 10 5
M  V30 27 1 23 14
M  V30 28 1 23 17
M  V30 29 1 1 26
M  V30 30 1 1 27
M  V30 31 1 1 28
M  V30 32 1 5 29
M  V30 33 1 6 30
M  V30 34 1 6 31
M  V30 35 1 7 32
M  V30 36 1 7 33
M  V30 37 1 9 34
M  V30 38 1 9 35
M  V30 39 1 10 36
M  V30 40 1 10 37
M  V30 41 1 13 38
M  V30 42 1 16 39
M  V30 43 1 19 40
M  V30 44 1 22 41
M  V30 45 1 25 42
M  V30 46 1 25 43
M  V30 47 1 25 44
M  V30 END BOND
M  V30 END CTAB
M  END
>  <Dataset>  (367) 
ChEMBL_Kinases

>  <Ligand_Instance>  (367) 
nan

>  <PDB_ID>  (367) 
nan

>  <Standardized_SMILES>  (367) 
Cc1nc(C2CCOCC2)nc(Nc2n[nH]c3ncc(F)cc23)c1C

>  <Name>  (367) 
nan

>  <Pocket>  (367) 
nan

>  <ATP_Site>  (367) 
nan

>  <Peripheral>  (367) 
nan

>  <Num_H_Atoms_ProtBoundConf>  (367) 
nan

>  <Num_Resolved_Atoms>  (367) 
nan

>  <Num_Not_Resolved_Atoms>  (367) 
nan

$$$$
CHEMBL3652543
     RDKit          3D

  0  0  0  0  0  0  0  0  0  0999 V3000
M  V30 BEGIN CTAB
M  V30 COUNTS 46 49 0 0 0
M  V30 BEGIN ATOM
M  V30 1 C 0.807787 -5.557038 1.741964 0
M  V30 2 C 0.751671 -4.098551 1.485335 0
M  V30 3 C 1.846388 -3.405426 1.018880 0
M  V30 4 C 1.714399 -2.037870 0.811527 0
M  V30 5 N 2.843639 -1.303910 0.290338 0
M  V30 6 C 2.346118 -1.037726 -1.040718 0
M  V30 7 N 2.074406 -1.738899 -2.178983 0
M  V30 8 N 1.627023 -0.955475 -3.118421 0
M  V30 9 C 1.561086 0.324817 -2.700294 0
M  V30 10 N 1.166899 1.461250 -3.315511 0
M  V30 11 C 1.210913 2.638748 -2.625809 0
M  V30 12 C 1.649160 2.672502 -1.320791 0
M  V30 13 F 1.683444 3.860844 -0.653627 0
M  V30 14 C 2.041329 1.480623 -0.741393 0
M  V30 15 C 2.016893 0.271521 -1.385822 0
M  V30 16 N 0.540960 -1.501378 1.080314 0
M  V30 17 C -0.555504 -2.137680 1.535948 0
M  V30 18 C -1.692018 -1.186287 1.705951 0
M  V30 19 C -1.901750 -0.767108 3.120416 0
M  V30 20 C -2.181838 0.675063 3.365833 0
M  V30 21 C -0.885788 1.447118 3.341806 0
M  V30 22 C -0.404682 1.640323 1.936097 0
M  V30 23 C -1.320137 1.219065 0.864658 0
M  V30 24 C -1.722072 -0.160118 0.664913 0
M  V30 25 N -0.443422 -3.484096 1.744761 0
M  V30 26 H -0.204531 -5.998402 1.867547 0
M  V30 27 H 1.274466 -6.110331 0.885330 0
M  V30 28 H 1.389603 -5.782382 2.665289 0
M  V30 29 H 2.792179 -3.925811 0.821206 0
M  V30 30 H 3.748846 -1.019009 0.673925 0
M  V30 31 H 1.371230 -1.330462 -4.048248 0
M  V30 32 H 0.889792 3.556082 -3.145553 0
M  V30 33 H 2.389419 1.536167 0.274117 0
M  V30 34 H -2.590296 -1.866870 1.523990 0
M  V30 35 H -2.721836 -1.334420 3.656486 0
M  V30 36 H -0.974906 -1.032009 3.691870 0
M  V30 37 H -2.569720 0.767747 4.405462 0
M  V30 38 H -2.941463 1.066329 2.698296 0
M  V30 39 H -0.136815 0.830571 3.911067 0
M  V30 40 H -1.020819 2.375316 3.928458 0
M  V30 41 H -0.329428 2.766861 1.823495 0
M  V30 42 H 0.664168 1.332730 1.814385 0
M  V30 43 H -0.849133 1.614646 -0.092584 0
M  V30 44 H -2.221926 1.901832 0.934271 0
M  V30 45 H -2.740140 -0.122854 0.162440 0
M  V30 46 H -1.105298 -0.592513 -0.190721 0
M  V30 END ATOM
M  V30 BEGIN BOND
M  V30 1 1 1 2
M  V30 2 2 2 3
M  V30 3 1 3 4
M  V30 4 1 4 5
M  V30 5 1 5 6
M  V30 6 2 6 7
M  V30 7 1 7 8
M  V30 8 1 8 9
M  V30 9 2 9 10
M  V30 10 1 10 11
M  V30 11 2 11 12
M  V30 12 1 12 13
M  V30 13 1 12 14
M  V30 14 2 14 15
M  V30 15 2 4 16
M  V30 16 1 16 17
M  V30 17 1 17 18
M  V30 18 1 18 19
M  V30 19 1 19 20
M  V30 20 1 20 21
M  V30 21 1 21 22
M  V30 22 1 22 23
M  V30 23 1 23 24
M  V30 24 2 17 25
M  V30 25 1 25 2
M  V30 26 1 15 6
M  V30 27 1 24 18
M  V30 28 1 15 9
M  V30 29 1 1 26
M  V30 30 1 1 27
M  V30 31 1 1 28
M  V30 32 1 3 29
M  V30 33 1 5 30
M  V30 34 1 8 31
M  V30 35 1 11 32
M  V30 36 1 14 33
M  V30 37 1 18 34
M  V30 38 1 19 35
M  V30 39 1 19 36
M  V30 40 1 20 37
M  V30 41 1 20 38
M  V30 42 1 21 39
M  V30 43 1 21 40
M  V30 44 1 22 41
M  V30 45 1 22 42
M  V30 46 1 23 43
M  V30 47 1 23 44
M  V30 48 1 24 45
M  V30 49 1 24 46
M  V30 END BOND
M  V30 END CTAB
M  END
>  <Dataset>  (368) 
ChEMBL_Kinases

>  <Ligand_Instance>  (368) 
nan

>  <PDB_ID>  (368) 
nan

>  <Standardized_SMILES>  (368) 
Cc1cc(Nc2n[nH]c3ncc(F)cc23)nc(C2CCCCCC2)n1

>  <Name>  (368) 
nan

>  <Pocket>  (368) 
nan

>  <ATP_Site>  (368) 
nan

>  <Peripheral>  (368) 
nan

>  <Num_H_Atoms_ProtBoundConf>  (368) 
nan

>  <Num_Resolved_Atoms>  (368) 
nan

>  <Num_Not_Resolved_Atoms>  (368) 
nan

$$$$
CHEMBL3652029
     RDKit          3D

  0  0  0  0  0  0  0  0  0  0999 V3000
M  V30 BEGIN CTAB
M  V30 COUNTS 52 55 0 0 0
M  V30 BEGIN ATOM
M  V30 1 C 3.433444 -4.475070 -1.724257 0
M  V30 2 C 2.458550 -3.692291 -0.915001 0
M  V30 3 C 2.934136 -3.364692 0.486052 0
M  V30 4 C 2.144129 -2.198940 0.947503 0
M  V30 5 C 2.703466 -1.173096 1.784873 0
M  V30 6 C 3.975924 -1.379868 2.251477 0
M  V30 7 C 4.613569 -0.461717 3.055103 0
M  V30 8 N 4.002839 0.702350 3.425077 0
M  V30 9 C 2.743703 0.961521 2.993350 0
M  V30 10 C 2.161955 0.004254 2.192910 0
M  V30 11 N 0.862598 0.391051 1.792848 0
M  V30 12 C 0.933167 1.177010 0.582001 0
M  V30 13 O 2.063996 1.377757 0.109238 0
M  V30 14 C -0.339921 1.669293 0.017015 0
M  V30 15 C -0.322141 2.421693 -1.137422 0
M  V30 16 C -1.480645 2.910780 -1.715093 0
M  V30 17 C -2.688480 2.611142 -1.077921 0
M  V30 18 F -3.903993 3.009454 -1.508073 0
M  V30 19 C -2.676098 1.866135 0.060783 0
M  V30 20 C -3.833776 1.451258 0.867190 0
M  V30 21 C -4.260167 2.287745 1.902227 0
M  V30 22 F -3.627825 3.468783 2.173124 0
M  V30 23 C -5.337041 1.954385 2.692331 0
M  V30 24 C -6.006354 0.769101 2.454043 0
M  V30 25 C -5.613942 -0.076734 1.444790 0
M  V30 26 C -4.537374 0.285652 0.676601 0
M  V30 27 F -4.089568 -0.494939 -0.337563 0
M  V30 28 N -1.533797 1.391748 0.618242 0
M  V30 29 C 0.931143 -2.280105 0.454698 0
M  V30 30 C 0.168952 -3.189563 -0.407434 0
M  V30 31 O -1.013766 -3.661850 0.145605 0
M  V30 32 C 1.109401 -4.354018 -0.751447 0
M  V30 33 H 4.415754 -3.975421 -1.621947 0
M  V30 34 H 3.466180 -5.552280 -1.535137 0
M  V30 35 H 3.144483 -4.339240 -2.804332 0
M  V30 36 H 2.338608 -2.701404 -1.422699 0
M  V30 37 H 4.029042 -3.177629 0.499209 0
M  V30 38 H 2.704405 -4.202032 1.189602 0
M  V30 39 H 4.634307 -2.208534 2.096342 0
M  V30 40 H 5.598425 -0.544675 3.459460 0
M  V30 41 H 2.293450 1.877588 3.298392 0
M  V30 42 H -0.037830 0.152924 2.303691 0
M  V30 43 H 0.610432 2.669494 -1.654471 0
M  V30 44 H -1.560184 3.500942 -2.606813 0
M  V30 45 H -5.657834 2.619892 3.497998 0
M  V30 46 H -6.850695 0.496286 3.065016 0
M  V30 47 H -6.120030 -1.023932 1.226738 0
M  V30 48 H 0.201511 -1.532651 0.689889 0
M  V30 49 H 0.018822 -2.677502 -1.396889 0
M  V30 50 H -1.751699 -3.286711 -0.398768 0
M  V30 51 H 1.128301 -4.986364 0.177083 0
M  V30 52 H 0.782807 -4.913526 -1.631544 0
M  V30 END ATOM
M  V30 BEGIN BOND
M  V30 1 1 1 2
M  V30 2 1 2 3
M  V30 3 1 3 4
M  V30 4 1 4 5
M  V30 5 2 5 6
M  V30 6 1 6 7
M  V30 7 2 7 8
M  V30 8 1 8 9
M  V30 9 2 9 10
M  V30 10 1 10 11
M  V30 11 1 11 12
M  V30 12 2 12 13
M  V30 13 1 12 14
M  V30 14 2 14 15
M  V30 15 1 15 16
M  V30 16 2 16 17
M  V30 17 1 17 18
M  V30 18 1 17 19
M  V30 19 1 19 20
M  V30 20 2 20 21
M  V30 21 1 21 22
M  V30 22 1 21 23
M  V30 23 2 23 24
M  V30 24 1 24 25
M  V30 25 2 25 26
M  V30 26 1 26 27
M  V30 27 2 19 28
M  V30 28 2 4 29
M  V30 29 1 29 30
M  V30 30 1 30 31
M  V30 31 1 30 32
M  V30 32 1 32 2
M  V30 33 1 10 5
M  V30 34 1 28 14
M  V30 35 1 26 20
M  V30 36 1 1 33
M  V30 37 1 1 34
M  V30 38 1 1 35
M  V30 39 1 2 36
M  V30 40 1 3 37
M  V30 41 1 3 38
M  V30 42 1 6 39
M  V30 43 1 7 40
M  V30 44 1 9 41
M  V30 45 1 11 42
M  V30 46 1 15 43
M  V30 47 1 16 44
M  V30 48 1 23 45
M  V30 49 1 24 46
M  V30 50 1 25 47
M  V30 51 1 29 48
M  V30 52 1 30 49
M  V30 53 1 31 50
M  V30 54 1 32 51
M  V30 55 1 32 52
M  V30 END BOND
M  V30 END CTAB
M  END
>  <Dataset>  (369) 
ChEMBL_Kinases

>  <Ligand_Instance>  (369) 
nan

>  <PDB_ID>  (369) 
nan

>  <Standardized_SMILES>  (369) 
CC1CC(c2ccncc2NC(=O)c2ccc(F)c(-c3c(F)cccc3F)n2)=CC(O)C1

>  <Name>  (369) 
nan

>  <Pocket>  (369) 
nan

>  <ATP_Site>  (369) 
nan

>  <Peripheral>  (369) 
nan

>  <Num_H_Atoms_ProtBoundConf>  (369) 
nan

>  <Num_Resolved_Atoms>  (369) 
nan

>  <Num_Not_Resolved_Atoms>  (369) 
nan

$$$$
CHEMBL3651927
     RDKit          3D

  0  0  0  0  0  0  0  0  0  0999 V3000
M  V30 BEGIN CTAB
M  V30 COUNTS 59 62 0 0 0
M  V30 BEGIN ATOM
M  V30 1 C 4.224812 -3.124280 4.298436 0
M  V30 2 C 3.955301 -1.663431 4.315861 0
M  V30 3 C 4.040501 -1.000118 5.527950 0
M  V30 4 C 3.806154 0.357118 5.637486 0
M  V30 5 C 3.472957 1.098551 4.507097 0
M  V30 6 F 3.216561 2.428525 4.459138 0
M  V30 7 C 3.383730 0.452723 3.290605 0
M  V30 8 C 3.052094 1.029118 1.991308 0
M  V30 9 C 4.012598 1.535110 1.134461 0
M  V30 10 C 3.717267 2.085653 -0.101568 0
M  V30 11 C 2.370004 2.100279 -0.437903 0
M  V30 12 C 1.397280 1.600450 0.403093 0
M  V30 13 C 0.013955 1.673113 -0.064901 0
M  V30 14 O -0.313123 2.153285 -1.158668 0
M  V30 15 N -1.085777 1.194301 0.702356 0
M  V30 16 C -2.312639 1.388179 0.012364 0
M  V30 17 C -2.993145 2.571705 0.211070 0
M  V30 18 N -4.156839 2.785145 -0.427486 0
M  V30 19 C -4.654903 1.851257 -1.254792 0
M  V30 20 C -3.964447 0.673811 -1.443740 0
M  V30 21 C -2.766331 0.374888 -0.829161 0
M  V30 22 C -2.018270 -0.891867 -1.025889 0 CFG=1
M  V30 23 C -2.453035 -1.958764 -0.066857 0
M  V30 24 C -1.466799 -3.113962 -0.269031 0 CFG=1
M  V30 25 N -1.603040 -4.105361 0.769320 0
M  V30 26 C -1.847905 -3.700515 -1.609457 0 CFG=1
M  V30 27 O -3.239609 -3.933522 -1.532125 0
M  V30 28 C -1.628262 -2.734654 -2.723793 0 CFG=1
M  V30 29 C -2.310547 -3.228172 -4.006945 0
M  V30 30 C -1.914584 -1.311258 -2.446626 0
M  V30 31 N 1.752480 1.074465 1.600538 0
M  V30 32 C 3.623630 -0.911293 3.205938 0
M  V30 33 F 3.562636 -1.649816 2.053045 0
M  V30 34 H 4.450852 -3.474511 3.269538 0
M  V30 35 H 5.089844 -3.409325 4.937273 0
M  V30 36 H 3.337491 -3.711681 4.634166 0
M  V30 37 H 4.296755 -1.526167 6.445152 0
M  V30 38 H 3.859006 0.924057 6.557582 0
M  V30 39 H 5.064323 1.508798 1.428681 0
M  V30 40 H 4.502768 2.469322 -0.738311 0
M  V30 41 H 2.089506 2.522449 -1.398020 0
M  V30 42 H -0.908671 0.764222 1.655831 0
M  V30 43 H -2.621287 3.349575 0.872329 0
M  V30 44 H -5.600146 2.053989 -1.757622 0
M  V30 45 H -4.408653 -0.026588 -2.108046 0
M  V30 46 H -0.958780 -0.639019 -0.709002 0
M  V30 47 H -2.313534 -1.637112 0.965022 0
M  V30 48 H -3.449787 -2.385632 -0.291997 0
M  V30 49 H -0.451007 -2.663467 -0.275702 0
M  V30 50 H -2.565977 -4.148877 1.168491 0
M  V30 51 H -0.910110 -3.843624 1.524083 0
M  V30 52 H -1.353254 -4.667361 -1.748942 0
M  V30 53 H -3.431512 -4.878307 -1.311245 0
M  V30 54 H -0.529072 -2.815956 -2.977743 0
M  V30 55 H -3.408275 -3.193531 -3.912702 0
M  V30 56 H -1.989181 -4.287402 -4.120715 0
M  V30 57 H -1.912483 -2.660468 -4.849315 0
M  V30 58 H -1.186936 -0.662449 -3.020875 0
M  V30 59 H -2.895720 -1.076533 -2.949489 0
M  V30 END ATOM
M  V30 BEGIN BOND
M  V30 1 1 1 2
M  V30 2 2 2 3
M  V30 3 1 3 4
M  V30 4 2 4 5
M  V30 5 1 5 6
M  V30 6 1 5 7
M  V30 7 1 7 8
M  V30 8 2 8 9
M  V30 9 1 9 10
M  V30 10 2 10 11
M  V30 11 1 11 12
M  V30 12 1 12 13
M  V30 13 2 13 14
M  V30 14 1 13 15
M  V30 15 1 15 16
M  V30 16 2 16 17
M  V30 17 1 17 18
M  V30 18 2 18 19
M  V30 19 1 19 20
M  V30 20 2 20 21
M  V30 21 1 21 22
M  V30 22 1 22 23
M  V30 23 1 23 24
M  V30 24 1 24 25
M  V30 25 1 24 26
M  V30 26 1 26 27
M  V30 27 1 26 28
M  V30 28 1 28 29
M  V30 29 1 28 30
M  V30 30 2 12 31
M  V30 31 2 7 32
M  V30 32 1 32 33
M  V30 33 1 32 2
M  V30 34 1 31 8
M  V30 35 1 21 16
M  V30 36 1 30 22
M  V30 37 1 1 34
M  V30 38 1 1 35
M  V30 39 1 1 36
M  V30 40 1 3 37
M  V30 41 1 4 38
M  V30 42 1 9 39
M  V30 43 1 10 40
M  V30 44 1 11 41
M  V30 45 1 15 42
M  V30 46 1 17 43
M  V30 47 1 19 44
M  V30 48 1 20 45
M  V30 49 1 22 46 CFG=1
M  V30 50 1 23 47
M  V30 51 1 23 48
M  V30 52 1 24 49 CFG=3
M  V30 53 1 25 50
M  V30 54 1 25 51
M  V30 55 1 26 52 CFG=3
M  V30 56 1 27 53
M  V30 57 1 28 54 CFG=3
M  V30 58 1 29 55
M  V30 59 1 29 56
M  V30 60 1 29 57
M  V30 61 1 30 58
M  V30 62 1 30 59
M  V30 END BOND
M  V30 END CTAB
M  END
>  <Dataset>  (370) 
ChEMBL_Kinases

>  <Ligand_Instance>  (370) 
nan

>  <PDB_ID>  (370) 
nan

>  <Standardized_SMILES>  (370) 
Cc1ccc(F)c(-c2cccc(C(=O)Nc3cnccc3[C@H]3C[C@@H](N)[C@@H](O)[C@@H](C)C3)n2)c1F

>  <Name>  (370) 
nan

>  <Pocket>  (370) 
nan

>  <ATP_Site>  (370) 
nan

>  <Peripheral>  (370) 
nan

>  <Num_H_Atoms_ProtBoundConf>  (370) 
nan

>  <Num_Resolved_Atoms>  (370) 
nan

>  <Num_Not_Resolved_Atoms>  (370) 
nan

$$$$
CHEMBL3651928
     RDKit          3D

  0  0  0  0  0  0  0  0  0  0999 V3000
M  V30 BEGIN CTAB
M  V30 COUNTS 53 56 0 0 0
M  V30 BEGIN ATOM
M  V30 1 N 5.342908 -1.329458 1.668154 0
M  V30 2 C 4.111644 -0.950098 2.386262 0 CFG=1
M  V30 3 C 4.222457 0.443950 2.917337 0
M  V30 4 C 2.897393 0.911396 3.440000 0
M  V30 5 C 1.776988 0.793638 2.477251 0
M  V30 6 C 1.952308 -0.124825 1.323034 0 CFG=1
M  V30 7 C 2.197216 0.577751 0.029295 0
M  V30 8 C 3.410735 0.895441 -0.538711 0
M  V30 9 C 3.544628 1.545926 -1.743296 0
M  V30 10 N 2.454532 1.910708 -2.439607 0
M  V30 11 C 1.224333 1.648478 -1.975006 0
M  V30 12 C 1.116123 0.995431 -0.765142 0
M  V30 13 N -0.206454 0.737926 -0.313912 0
M  V30 14 C -1.175586 1.388340 0.461166 0
M  V30 15 O -0.941428 2.516118 0.954149 0
M  V30 16 C -2.428845 0.661265 0.633297 0
M  V30 17 C -3.391977 1.290853 1.394880 0
M  V30 18 C -4.612878 0.684424 1.616529 0
M  V30 19 C -4.867461 -0.567996 1.066489 0
M  V30 20 F -6.043999 -1.218711 1.244947 0
M  V30 21 C -3.877414 -1.179933 0.302281 0
M  V30 22 C -4.057160 -2.490698 -0.311985 0
M  V30 23 C -4.577708 -2.615554 -1.584455 0
M  V30 24 F -4.912410 -1.488620 -2.235964 0
M  V30 25 C -4.757934 -3.855311 -2.190198 0
M  V30 26 C -4.404297 -5.008545 -1.496660 0
M  V30 27 O -4.588313 -6.241293 -2.110599 0
M  V30 28 C -3.885824 -4.855941 -0.225357 0
M  V30 29 C -3.700482 -3.641078 0.389280 0
M  V30 30 F -3.183356 -3.577967 1.644949 0
M  V30 31 N -2.701486 -0.550375 0.112879 0
M  V30 32 C 2.889409 -1.250437 1.598729 0
M  V30 33 H 5.024520 -1.657750 0.708452 0
M  V30 34 H 5.890992 -0.455383 1.533415 0
M  V30 35 H 4.124332 -1.663784 3.272680 0
M  V30 36 H 4.744471 1.162100 2.257540 0
M  V30 37 H 4.890515 0.410765 3.833482 0
M  V30 38 H 3.016141 1.980330 3.733605 0
M  V30 39 H 2.685763 0.295630 4.340055 0
M  V30 40 H 1.443493 1.826084 2.130305 0
M  V30 41 H 0.868204 0.468769 3.074754 0
M  V30 42 H 0.942720 -0.637185 1.137818 0
M  V30 43 H 4.287650 0.613163 -0.003511 0
M  V30 44 H 4.546726 1.753338 -2.110270 0
M  V30 45 H 0.345138 1.940098 -2.531898 0
M  V30 46 H -0.364898 -0.217674 -0.749746 0
M  V30 47 H -3.229593 2.253822 1.832658 0
M  V30 48 H -5.383284 1.135472 2.197895 0
M  V30 49 H -5.173561 -3.898671 -3.198427 0
M  V30 50 H -3.819958 -6.919163 -2.100541 0
M  V30 51 H -3.626888 -5.793337 0.269699 0
M  V30 52 H 2.307595 -2.055948 2.112697 0
M  V30 53 H 3.240325 -1.609466 0.596924 0
M  V30 END ATOM
M  V30 BEGIN BOND
M  V30 1 1 1 2
M  V30 2 1 2 3
M  V30 3 1 3 4
M  V30 4 1 4 5
M  V30 5 1 5 6
M  V30 6 1 6 7
M  V30 7 2 7 8
M  V30 8 1 8 9
M  V30 9 2 9 10
M  V30 10 1 10 11
M  V30 11 2 11 12
M  V30 12 1 12 13
M  V30 13 1 13 14
M  V30 14 2 14 15
M  V30 15 1 14 16
M  V30 16 2 16 17
M  V30 17 1 17 18
M  V30 18 2 18 19
M  V30 19 1 19 20
M  V30 20 1 19 21
M  V30 21 1 21 22
M  V30 22 2 22 23
M  V30 23 1 23 24
M  V30 24 1 23 25
M  V30 25 2 25 26
M  V30 26 1 26 27
M  V30 27 1 26 28
M  V30 28 2 28 29
M  V30 29 1 29 30
M  V30 30 2 21 31
M  V30 31 1 6 32
M  V30 32 1 32 2
M  V30 33 1 12 7
M  V30 34 1 31 16
M  V30 35 1 29 22
M  V30 36 1 1 33
M  V30 37 1 1 34
M  V30 38 1 2 35 CFG=1
M  V30 39 1 3 36
M  V30 40 1 3 37
M  V30 41 1 4 38
M  V30 42 1 4 39
M  V30 43 1 5 40
M  V30 44 1 5 41
M  V30 45 1 6 42 CFG=3
M  V30 46 1 8 43
M  V30 47 1 9 44
M  V30 48 1 11 45
M  V30 49 1 13 46
M  V30 50 1 17 47
M  V30 51 1 18 48
M  V30 52 1 25 49
M  V30 53 1 27 50
M  V30 54 1 28 51
M  V30 55 1 32 52
M  V30 56 1 32 53
M  V30 END BOND
M  V30 END CTAB
M  END
>  <Dataset>  (371) 
ChEMBL_Kinases

>  <Ligand_Instance>  (371) 
nan

>  <PDB_ID>  (371) 
nan

>  <Standardized_SMILES>  (371) 
N[C@H]1CCC[C@@H](c2ccncc2NC(=O)c2ccc(F)c(-c3c(F)cc(O)cc3F)n2)C1

>  <Name>  (371) 
nan

>  <Pocket>  (371) 
nan

>  <ATP_Site>  (371) 
nan

>  <Peripheral>  (371) 
nan

>  <Num_H_Atoms_ProtBoundConf>  (371) 
nan

>  <Num_Resolved_Atoms>  (371) 
nan

>  <Num_Not_Resolved_Atoms>  (371) 
nan

$$$$
CHEMBL3651929
     RDKit          3D

  0  0  0  0  0  0  0  0  0  0999 V3000
M  V30 BEGIN CTAB
M  V30 COUNTS 53 56 0 0 0
M  V30 BEGIN ATOM
M  V30 1 N 4.265144 -0.095231 -1.126452 0
M  V30 2 C 3.753349 -1.124370 -0.202062 0 CFG=1
M  V30 3 C 4.532851 -1.213091 1.047922 0
M  V30 4 C 3.797607 -1.061955 2.324437 0
M  V30 5 C 2.424815 -0.556994 2.329763 0
M  V30 6 C 1.771867 -0.194487 1.042449 0 CFG=1
M  V30 7 C 1.589679 1.252790 0.839058 0
M  V30 8 C 2.811854 1.937050 0.888611 0
M  V30 9 C 2.916520 3.331919 0.773378 0
M  V30 10 N 1.780681 4.053997 0.606606 0
M  V30 11 C 0.625244 3.390350 0.560662 0
M  V30 12 C 0.448409 2.045347 0.663842 0
M  V30 13 N -0.766554 1.324634 0.625229 0
M  V30 14 C -2.104848 1.875630 0.607489 0
M  V30 15 O -2.250484 3.108895 0.634389 0
M  V30 16 C -3.242443 0.922759 0.559902 0
M  V30 17 C -4.534925 1.391911 0.595531 0
M  V30 18 C -5.585453 0.493882 0.560007 0
M  V30 19 C -5.364063 -0.865411 0.488855 0
M  V30 20 F -6.244294 -1.883785 0.448748 0
M  V30 21 C -4.058285 -1.301585 0.455016 0
M  V30 22 C -3.473905 -2.646788 0.367973 0
M  V30 23 C -3.828252 -3.537572 -0.623407 0
M  V30 24 C -3.282701 -4.811162 -0.740783 0
M  V30 25 O -3.701160 -5.621510 -1.762218 0
M  V30 26 C -2.339478 -5.167844 0.203162 0
M  V30 27 C -1.965711 -4.285469 1.214786 0
M  V30 28 C -2.512994 -3.047224 1.308633 0
M  V30 29 F -2.126568 -2.194045 2.312380 0
M  V30 30 N -3.084365 -0.394891 0.492185 0
M  V30 31 C 2.284628 -0.987702 -0.085403 0
M  V30 32 H 3.542811 0.037451 -1.878527 0
M  V30 33 H 5.146046 -0.443319 -1.586358 0
M  V30 34 H 3.907099 -2.061726 -0.832448 0
M  V30 35 H 5.313298 -0.392836 0.986553 0
M  V30 36 H 5.157399 -2.127994 1.025994 0
M  V30 37 H 3.837278 -2.075913 2.834160 0
M  V30 38 H 4.416351 -0.457690 3.041634 0
M  V30 39 H 2.348185 0.388402 2.957503 0
M  V30 40 H 1.771786 -1.255050 2.892831 0
M  V30 41 H 0.697546 -0.577113 1.158942 0
M  V30 42 H 3.782172 1.538302 1.022837 0
M  V30 43 H 3.846326 3.888570 0.807417 0
M  V30 44 H -0.227189 4.020995 0.422531 0
M  V30 45 H -0.815397 0.293707 0.590777 0
M  V30 46 H -4.748636 2.440895 0.650477 0
M  V30 47 H -6.628600 0.765103 0.583181 0
M  V30 48 H -4.567035 -3.227796 -1.345826 0
M  V30 49 H -4.388196 -6.346798 -1.684391 0
M  V30 50 H -1.892703 -6.168863 0.132128 0
M  V30 51 H -1.210638 -4.659022 1.913762 0
M  V30 52 H 1.880175 -2.044432 0.043686 0
M  V30 53 H 1.881825 -0.686902 -1.079948 0
M  V30 END ATOM
M  V30 BEGIN BOND
M  V30 1 1 1 2
M  V30 2 1 2 3
M  V30 3 1 3 4
M  V30 4 1 4 5
M  V30 5 1 5 6
M  V30 6 1 6 7
M  V30 7 2 7 8
M  V30 8 1 8 9
M  V30 9 2 9 10
M  V30 10 1 10 11
M  V30 11 2 11 12
M  V30 12 1 12 13
M  V30 13 1 13 14
M  V30 14 2 14 15
M  V30 15 1 14 16
M  V30 16 2 16 17
M  V30 17 1 17 18
M  V30 18 2 18 19
M  V30 19 1 19 20
M  V30 20 1 19 21
M  V30 21 1 21 22
M  V30 22 2 22 23
M  V30 23 1 23 24
M  V30 24 1 24 25
M  V30 25 2 24 26
M  V30 26 1 26 27
M  V30 27 2 27 28
M  V30 28 1 28 29
M  V30 29 2 21 30
M  V30 30 1 6 31
M  V30 31 1 31 2
M  V30 32 1 12 7
M  V30 33 1 30 16
M  V30 34 1 28 22
M  V30 35 1 1 32
M  V30 36 1 1 33
M  V30 37 1 2 34 CFG=3
M  V30 38 1 3 35
M  V30 39 1 3 36
M  V30 40 1 4 37
M  V30 41 1 4 38
M  V30 42 1 5 39
M  V30 43 1 5 40
M  V30 44 1 6 41 CFG=1
M  V30 45 1 8 42
M  V30 46 1 9 43
M  V30 47 1 11 44
M  V30 48 1 13 45
M  V30 49 1 17 46
M  V30 50 1 18 47
M  V30 51 1 23 48
M  V30 52 1 25 49
M  V30 53 1 26 50
M  V30 54 1 27 51
M  V30 55 1 31 52
M  V30 56 1 31 53
M  V30 END BOND
M  V30 END CTAB
M  END
>  <Dataset>  (372) 
ChEMBL_Kinases

>  <Ligand_Instance>  (372) 
nan

>  <PDB_ID>  (372) 
nan

>  <Standardized_SMILES>  (372) 
N[C@H]1CCC[C@@H](c2ccncc2NC(=O)c2ccc(F)c(-c3cc(O)ccc3F)n2)C1

>  <Name>  (372) 
nan

>  <Pocket>  (372) 
nan

>  <ATP_Site>  (372) 
nan

>  <Peripheral>  (372) 
nan

>  <Num_H_Atoms_ProtBoundConf>  (372) 
nan

>  <Num_Resolved_Atoms>  (372) 
nan

>  <Num_Not_Resolved_Atoms>  (372) 
nan

$$$$
CHEMBL3651930
     RDKit          3D

  0  0  0  0  0  0  0  0  0  0999 V3000
M  V30 BEGIN CTAB
M  V30 COUNTS 53 56 0 0 0
M  V30 BEGIN ATOM
M  V30 1 N 1.558668 0.173907 5.352038 0
M  V30 2 C 1.718567 -0.162185 3.949287 0 CFG=1
M  V30 3 C 0.539542 -0.955057 3.452130 0
M  V30 4 C -0.674261 -0.112388 3.176900 0
M  V30 5 C -0.331767 1.225036 2.578324 0
M  V30 6 C 1.057326 1.069658 1.973731 0 CFG=1
M  V30 7 C 1.315535 2.108407 0.951340 0
M  V30 8 C 1.880971 3.298607 1.333926 0
M  V30 9 C 2.146359 4.307580 0.424918 0
M  V30 10 N 1.831871 4.093172 -0.869711 0
M  V30 11 C 1.277352 2.947730 -1.297556 0
M  V30 12 C 1.006162 1.928658 -0.397595 0
M  V30 13 N 0.421729 0.657891 -0.694818 0
M  V30 14 C 1.407247 -0.323455 -1.015162 0
M  V30 15 O 2.597336 0.075135 -0.985572 0
M  V30 16 C 1.042816 -1.696785 -1.353247 0
M  V30 17 N -0.262273 -2.020551 -1.355881 0
M  V30 18 C -0.723074 -3.248020 -1.649531 0
M  V30 19 C -2.156179 -3.456335 -1.613723 0
M  V30 20 C -2.957622 -2.385394 -1.281393 0
M  V30 21 C -4.332954 -2.481471 -1.219736 0
M  V30 22 O -5.104702 -1.382824 -0.882002 0
M  V30 23 C -4.982240 -3.656896 -1.487849 0
M  V30 24 C -4.207566 -4.740839 -1.821904 0
M  V30 25 C -2.843815 -4.615651 -1.875177 0
M  V30 26 F -2.160874 -5.711752 -2.206623 0
M  V30 27 C 0.264116 -4.152069 -1.949669 0
M  V30 28 C 1.607294 -3.858397 -1.957355 0
M  V30 29 C 2.034606 -2.589122 -1.650595 0
M  V30 30 F 3.345307 -2.248625 -1.643897 0
M  V30 31 C 2.034032 1.049605 3.099782 0
M  V30 32 H 1.674757 -0.740832 5.878940 0
M  V30 33 H 0.536282 0.395678 5.463165 0
M  V30 34 H 2.598241 -0.838129 3.876707 0
M  V30 35 H 0.253589 -1.632412 4.307880 0
M  V30 36 H 0.776587 -1.634417 2.607885 0
M  V30 37 H -1.286398 -0.654475 2.405146 0
M  V30 38 H -1.335098 -0.031845 4.072850 0
M  V30 39 H -0.229186 1.957911 3.407434 0
M  V30 40 H -1.075569 1.562258 1.828798 0
M  V30 41 H 1.133741 0.074262 1.449824 0
M  V30 42 H 2.131628 3.473250 2.356719 0
M  V30 43 H 2.594971 5.238328 0.761234 0
M  V30 44 H 1.008738 2.734257 -2.330006 0
M  V30 45 H -0.598292 0.359367 -0.708852 0
M  V30 46 H -2.547763 -1.390903 -1.045730 0
M  V30 47 H -4.910891 -0.918741 0.016866 0
M  V30 48 H -6.053531 -3.705996 -1.433047 0
M  V30 49 H -4.702178 -5.667176 -2.034284 0
M  V30 50 H -0.019316 -5.145056 -2.192870 0
M  V30 51 H 2.326282 -4.632312 -2.206325 0
M  V30 52 H 1.863611 1.974161 3.716531 0
M  V30 53 H 3.096353 1.071269 2.785358 0
M  V30 END ATOM
M  V30 BEGIN BOND
M  V30 1 1 1 2
M  V30 2 1 2 3
M  V30 3 1 3 4
M  V30 4 1 4 5
M  V30 5 1 5 6
M  V30 6 1 6 7
M  V30 7 2 7 8
M  V30 8 1 8 9
M  V30 9 2 9 10
M  V30 10 1 10 11
M  V30 11 2 11 12
M  V30 12 1 12 13
M  V30 13 1 13 14
M  V30 14 2 14 15
M  V30 15 1 14 16
M  V30 16 2 16 17
M  V30 17 1 17 18
M  V30 18 1 18 19
M  V30 19 2 19 20
M  V30 20 1 20 21
M  V30 21 1 21 22
M  V30 22 2 21 23
M  V30 23 1 23 24
M  V30 24 2 24 25
M  V30 25 1 25 26
M  V30 26 2 18 27
M  V30 27 1 27 28
M  V30 28 2 28 29
M  V30 29 1 29 30
M  V30 30 1 6 31
M  V30 31 1 31 2
M  V30 32 1 12 7
M  V30 33 1 29 16
M  V30 34 1 25 19
M  V30 35 1 1 32
M  V30 36 1 1 33
M  V30 37 1 2 34 CFG=1
M  V30 38 1 3 35
M  V30 39 1 3 36
M  V30 40 1 4 37
M  V30 41 1 4 38
M  V30 42 1 5 39
M  V30 43 1 5 40
M  V30 44 1 6 41 CFG=3
M  V30 45 1 8 42
M  V30 46 1 9 43
M  V30 47 1 11 44
M  V30 48 1 13 45
M  V30 49 1 20 46
M  V30 50 1 22 47
M  V30 51 1 23 48
M  V30 52 1 24 49
M  V30 53 1 27 50
M  V30 54 1 28 51
M  V30 55 1 31 52
M  V30 56 1 31 53
M  V30 END BOND
M  V30 END CTAB
M  END
>  <Dataset>  (373) 
ChEMBL_Kinases

>  <Ligand_Instance>  (373) 
nan

>  <PDB_ID>  (373) 
nan

>  <Standardized_SMILES>  (373) 
N[C@H]1CCC[C@@H](c2ccncc2NC(=O)c2nc(-c3cc(O)ccc3F)ccc2F)C1

>  <Name>  (373) 
nan

>  <Pocket>  (373) 
nan

>  <ATP_Site>  (373) 
nan

>  <Peripheral>  (373) 
nan

>  <Num_H_Atoms_ProtBoundConf>  (373) 
nan

>  <Num_Resolved_Atoms>  (373) 
nan

>  <Num_Not_Resolved_Atoms>  (373) 
nan

$$$$
CHEMBL3651931
     RDKit          3D

  0  0  0  0  0  0  0  0  0  0999 V3000
M  V30 BEGIN CTAB
M  V30 COUNTS 56 59 0 0 0
M  V30 BEGIN ATOM
M  V30 1 C 2.436574 -2.684998 -0.012664 0
M  V30 2 C 2.817222 -1.468137 0.841759 0 CFG=2
M  V30 3 C 1.993686 -1.495795 2.070673 0
M  V30 4 C 2.133830 -0.217598 2.820056 0 CFG=2
M  V30 5 N 1.229714 -0.244114 3.955170 0
M  V30 6 C 1.888935 1.017341 2.019193 0
M  V30 7 C 2.535062 1.015385 0.670310 0 CFG=2
M  V30 8 C 2.133828 2.125134 -0.191718 0
M  V30 9 C 3.028936 3.187818 -0.441383 0
M  V30 10 C 2.844711 4.327039 -1.228043 0
M  V30 11 N 1.610435 4.368474 -1.814062 0
M  V30 12 C 0.720721 3.383176 -1.609876 0
M  V30 13 C 0.923427 2.271126 -0.831035 0
M  V30 14 N -0.102342 1.318143 -0.660683 0
M  V30 15 C -1.451421 1.394396 -1.079426 0
M  V30 16 O -1.858338 2.445261 -1.678296 0
M  V30 17 C -2.500230 0.399320 -0.919669 0
M  V30 18 C -3.806416 0.658407 -1.256742 0
M  V30 19 C -4.862757 -0.199175 -1.121964 0
M  V30 20 C -4.630158 -1.451699 -0.602020 0
M  V30 21 C -3.327568 -1.724359 -0.261214 0
M  V30 22 C -3.024037 -3.050022 0.258227 0
M  V30 23 C -3.954880 -3.999520 0.583135 0
M  V30 24 C -3.653863 -5.258378 1.056512 0
M  V30 25 O -4.660377 -6.171264 1.365826 0
M  V30 26 C -2.332452 -5.616314 1.225477 0
M  V30 27 C -1.332768 -4.688866 0.910424 0
M  V30 28 C -1.709432 -3.448553 0.441412 0
M  V30 29 F -0.771061 -2.541161 0.113687 0
M  V30 30 N -2.330954 -0.838331 -0.416889 0
M  V30 31 C 2.684384 -0.256735 -0.036987 0
M  V30 32 H 1.754751 -2.341612 -0.815010 0
M  V30 33 H 1.958799 -3.480119 0.592454 0
M  V30 34 H 3.345702 -3.123457 -0.492943 0
M  V30 35 H 3.884018 -1.631555 1.108551 0
M  V30 36 H 0.959855 -1.851366 1.972968 0
M  V30 37 H 2.473416 -2.282604 2.739433 0
M  V30 38 H 3.171461 -0.194098 3.256609 0
M  V30 39 H 1.521252 -0.913552 4.701194 0
M  V30 40 H 1.301878 0.717085 4.404088 0
M  V30 41 H 2.235399 1.872299 2.636682 0
M  V30 42 H 0.804231 1.160180 1.891988 0
M  V30 43 H 3.632786 1.287309 0.945610 0
M  V30 44 H 4.025550 3.186857 0.011840 0
M  V30 45 H 3.611009 5.076248 -1.343043 0
M  V30 46 H -0.149011 3.652775 -2.181238 0
M  V30 47 H -0.038158 0.398313 -0.184679 0
M  V30 48 H -4.081285 1.639013 -1.681028 0
M  V30 49 H -5.866009 0.080072 -1.410958 0
M  V30 50 H -5.485157 -2.104823 -0.508931 0
M  V30 51 H -5.000108 -3.783149 0.476210 0
M  V30 52 H -5.352254 -6.450004 0.664318 0
M  V30 53 H -2.070551 -6.587465 1.591432 0
M  V30 54 H -0.289636 -4.948261 1.034955 0
M  V30 55 H 3.660720 -0.271724 -0.640102 0
M  V30 56 H 1.942435 -0.468223 -0.816743 0
M  V30 END ATOM
M  V30 BEGIN BOND
M  V30 1 1 1 2
M  V30 2 1 2 3
M  V30 3 1 3 4
M  V30 4 1 4 5
M  V30 5 1 4 6
M  V30 6 1 6 7
M  V30 7 1 7 8
M  V30 8 2 8 9
M  V30 9 1 9 10
M  V30 10 2 10 11
M  V30 11 1 11 12
M  V30 12 2 12 13
M  V30 13 1 13 14
M  V30 14 1 14 15
M  V30 15 2 15 16
M  V30 16 1 15 17
M  V30 17 2 17 18
M  V30 18 1 18 19
M  V30 19 2 19 20
M  V30 20 1 20 21
M  V30 21 1 21 22
M  V30 22 2 22 23
M  V30 23 1 23 24
M  V30 24 1 24 25
M  V30 25 2 24 26
M  V30 26 1 26 27
M  V30 27 2 27 28
M  V30 28 1 28 29
M  V30 29 2 21 30
M  V30 30 1 7 31
M  V30 31 1 31 2
M  V30 32 1 13 8
M  V30 33 1 30 17
M  V30 34 1 28 22
M  V30 35 1 1 32
M  V30 36 1 1 33
M  V30 37 1 1 34
M  V30 38 1 2 35 CFG=1
M  V30 39 1 3 36
M  V30 40 1 3 37
M  V30 41 1 4 38 CFG=1
M  V30 42 1 5 39
M  V30 43 1 5 40
M  V30 44 1 6 41
M  V30 45 1 6 42
M  V30 46 1 7 43 CFG=1
M  V30 47 1 9 44
M  V30 48 1 10 45
M  V30 49 1 12 46
M  V30 50 1 14 47
M  V30 51 1 18 48
M  V30 52 1 19 49
M  V30 53 1 20 50
M  V30 54 1 23 51
M  V30 55 1 25 52
M  V30 56 1 26 53
M  V30 57 1 27 54
M  V30 58 1 31 55
M  V30 59 1 31 56
M  V30 END BOND
M  V30 END CTAB
M  END
>  <Dataset>  (374) 
ChEMBL_Kinases

>  <Ligand_Instance>  (374) 
nan

>  <PDB_ID>  (374) 
nan

>  <Standardized_SMILES>  (374) 
C[C@@H]1C[C@H](N)C[C@H](c2ccncc2NC(=O)c2cccc(-c3cc(O)ccc3F)n2)C1

>  <Name>  (374) 
nan

>  <Pocket>  (374) 
nan

>  <ATP_Site>  (374) 
nan

>  <Peripheral>  (374) 
nan

>  <Num_H_Atoms_ProtBoundConf>  (374) 
nan

>  <Num_Resolved_Atoms>  (374) 
nan

>  <Num_Not_Resolved_Atoms>  (374) 
nan

$$$$
CHEMBL3651932
     RDKit          3D

  0  0  0  0  0  0  0  0  0  0999 V3000
M  V30 BEGIN CTAB
M  V30 COUNTS 56 59 0 0 0
M  V30 BEGIN ATOM
M  V30 1 C 2.202194 -2.435342 -0.034600 0
M  V30 2 C 2.883709 -1.066153 -0.078599 0 CFG=2
M  V30 3 C 3.812964 -0.899344 1.045156 0
M  V30 4 C 3.942719 0.422039 1.689638 0 CFG=2
M  V30 5 N 4.604490 0.356453 2.977959 0
M  V30 6 C 2.619333 1.115495 1.781338 0
M  V30 7 C 2.169269 1.297142 0.330718 0 CFG=2
M  V30 8 C 1.237311 2.392238 0.166012 0
M  V30 9 C 1.767311 3.683299 0.019842 0
M  V30 10 C 1.064464 4.858167 -0.119730 0
M  V30 11 N -0.273532 4.737619 -0.113179 0
M  V30 12 C -0.897742 3.557652 0.019331 0
M  V30 13 C -0.135742 2.417531 0.154509 0
M  V30 14 N -0.871252 1.213389 0.294785 0
M  V30 15 C -1.264755 0.742401 -1.016794 0
M  V30 16 O -0.880960 1.479864 -1.960761 0
M  V30 17 C -2.035727 -0.476270 -1.220800 0
M  V30 18 C -2.339460 -0.807370 -2.524125 0
M  V30 19 C -3.066318 -1.945205 -2.823525 0
M  V30 20 C -3.523060 -2.805748 -1.823896 0
M  V30 21 C -3.189080 -2.423213 -0.542403 0
M  V30 22 C -3.636648 -3.281000 0.548714 0
M  V30 23 C -4.810723 -3.196843 1.233391 0
M  V30 24 F -5.635507 -2.213331 0.853522 0
M  V30 25 C -5.070334 -4.105772 2.248544 0
M  V30 26 C -4.155674 -5.099032 2.579175 0
M  V30 27 O -4.433678 -5.996766 3.595578 0
M  V30 28 C -2.962735 -5.171064 1.871049 0
M  V30 29 C -2.698384 -4.271702 0.861676 0
M  V30 30 F -1.495707 -4.425283 0.224540 0
M  V30 31 N -2.491266 -1.327471 -0.282034 0
M  V30 32 C 1.805786 -0.030306 -0.217370 0
M  V30 33 H 2.933800 -3.242617 0.146455 0
M  V30 34 H 1.687725 -2.564925 -1.013308 0
M  V30 35 H 1.387066 -2.425746 0.725120 0
M  V30 36 H 3.461878 -1.067381 -1.025370 0
M  V30 37 H 4.858682 -1.248183 0.805161 0
M  V30 38 H 3.501873 -1.623905 1.854047 0
M  V30 39 H 4.601225 1.059454 1.041369 0
M  V30 40 H 4.691283 1.331039 3.355600 0
M  V30 41 H 5.567270 -0.012372 2.843497 0
M  V30 42 H 1.877834 0.572987 2.372852 0
M  V30 43 H 2.704285 2.138690 2.210827 0
M  V30 44 H 3.117057 1.598358 -0.215333 0
M  V30 45 H 2.863612 3.802348 0.012140 0
M  V30 46 H 1.575827 5.803514 -0.226263 0
M  V30 47 H -1.976294 3.524395 0.017322 0
M  V30 48 H -1.205201 0.574655 1.078221 0
M  V30 49 H -2.027467 -0.197310 -3.382558 0
M  V30 50 H -3.325641 -2.238917 -3.846958 0
M  V30 51 H -4.094394 -3.707289 -1.997595 0
M  V30 52 H -6.014686 -4.014428 2.776701 0
M  V30 53 H -3.947688 -6.901049 3.618634 0
M  V30 54 H -2.274488 -5.954900 2.153512 0
M  V30 55 H 1.496331 0.076908 -1.270401 0
M  V30 56 H 0.922354 -0.385261 0.351510 0
M  V30 END ATOM
M  V30 BEGIN BOND
M  V30 1 1 1 2
M  V30 2 1 2 3
M  V30 3 1 3 4
M  V30 4 1 4 5
M  V30 5 1 4 6
M  V30 6 1 6 7
M  V30 7 1 7 8
M  V30 8 2 8 9
M  V30 9 1 9 10
M  V30 10 2 10 11
M  V30 11 1 11 12
M  V30 12 2 12 13
M  V30 13 1 13 14
M  V30 14 1 14 15
M  V30 15 2 15 16
M  V30 16 1 15 17
M  V30 17 2 17 18
M  V30 18 1 18 19
M  V30 19 2 19 20
M  V30 20 1 20 21
M  V30 21 1 21 22
M  V30 22 2 22 23
M  V30 23 1 23 24
M  V30 24 1 23 25
M  V30 25 2 25 26
M  V30 26 1 26 27
M  V30 27 1 26 28
M  V30 28 2 28 29
M  V30 29 1 29 30
M  V30 30 2 21 31
M  V30 31 1 7 32
M  V30 32 1 32 2
M  V30 33 1 13 8
M  V30 34 1 31 17
M  V30 35 1 29 22
M  V30 36 1 1 33
M  V30 37 1 1 34
M  V30 38 1 1 35
M  V30 39 1 2 36 CFG=3
M  V30 40 1 3 37
M  V30 41 1 3 38
M  V30 42 1 4 39 CFG=3
M  V30 43 1 5 40
M  V30 44 1 5 41
M  V30 45 1 6 42
M  V30 46 1 6 43
M  V30 47 1 7 44 CFG=3
M  V30 48 1 9 45
M  V30 49 1 10 46
M  V30 50 1 12 47
M  V30 51 1 14 48
M  V30 52 1 18 49
M  V30 53 1 19 50
M  V30 54 1 20 51
M  V30 55 1 25 52
M  V30 56 1 27 53
M  V30 57 1 28 54
M  V30 58 1 32 55
M  V30 59 1 32 56
M  V30 END BOND
M  V30 END CTAB
M  END
>  <Dataset>  (375) 
ChEMBL_Kinases

>  <Ligand_Instance>  (375) 
nan

>  <PDB_ID>  (375) 
nan

>  <Standardized_SMILES>  (375) 
C[C@@H]1C[C@H](N)C[C@H](c2ccncc2NC(=O)c2cccc(-c3c(F)cc(O)cc3F)n2)C1

>  <Name>  (375) 
nan

>  <Pocket>  (375) 
nan

>  <ATP_Site>  (375) 
nan

>  <Peripheral>  (375) 
nan

>  <Num_H_Atoms_ProtBoundConf>  (375) 
nan

>  <Num_Resolved_Atoms>  (375) 
nan

>  <Num_Not_Resolved_Atoms>  (375) 
nan

$$$$
CHEMBL3651933
     RDKit          3D

  0  0  0  0  0  0  0  0  0  0999 V3000
M  V30 BEGIN CTAB
M  V30 COUNTS 56 59 0 0 0
M  V30 BEGIN ATOM
M  V30 1 C 2.820890 -2.282626 -1.180963 0
M  V30 2 C 2.940803 -1.364417 0.016605 0 CFG=2
M  V30 3 C 1.871768 -1.685377 1.043958 0
M  V30 4 C 2.126987 -0.838786 2.233558 0 CFG=2
M  V30 5 N 1.209882 -1.187384 3.295592 0
M  V30 6 C 2.128232 0.632557 1.976998 0
M  V30 7 C 2.586491 1.043135 0.632842 0 CFG=2
M  V30 8 C 2.058862 2.318290 0.112435 0
M  V30 9 C 2.894453 3.449554 0.033642 0
M  V30 10 C 2.576661 4.699915 -0.467206 0
M  V30 11 N 1.296290 4.796116 -0.924187 0
M  V30 12 C 0.467864 3.724667 -0.860630 0
M  V30 13 C 0.786512 2.489431 -0.363519 0
M  V30 14 N -0.173642 1.449769 -0.355650 0
M  V30 15 C -1.415775 1.358759 -1.036136 0
M  V30 16 O -1.722019 2.350213 -1.790891 0
M  V30 17 C -2.387426 0.281542 -0.986722 0
M  V30 18 C -3.482251 0.328077 -1.830552 0
M  V30 19 C -4.458865 -0.636202 -1.898614 0
M  V30 20 C -4.354706 -1.733908 -1.073311 0
M  V30 21 C -3.270389 -1.790291 -0.229302 0
M  V30 22 C -3.187331 -2.934150 0.664543 0
M  V30 23 C -4.033361 -4.011515 0.574454 0
M  V30 24 C -3.987190 -5.097375 1.419156 0
M  V30 25 C -3.052656 -5.155369 2.434186 0
M  V30 26 O -2.981885 -6.229668 3.295556 0
M  V30 27 C -2.176533 -4.099342 2.571582 0
M  V30 28 C -2.275785 -3.042020 1.693072 0
M  V30 29 F -1.400413 -2.047933 1.902955 0
M  V30 30 N -2.359649 -0.801750 -0.227624 0
M  V30 31 C 2.634315 0.034463 -0.453508 0
M  V30 32 H 1.961956 -2.976846 -1.080419 0
M  V30 33 H 3.751280 -2.857982 -1.358432 0
M  V30 34 H 2.621718 -1.718817 -2.132213 0
M  V30 35 H 3.915924 -1.476487 0.489445 0
M  V30 36 H 0.856676 -1.601187 0.607802 0
M  V30 37 H 2.010143 -2.746809 1.333708 0
M  V30 38 H 3.144695 -1.137359 2.619998 0
M  V30 39 H 1.570459 -1.999054 3.863499 0
M  V30 40 H 1.216921 -0.382932 3.973510 0
M  V30 41 H 2.742635 1.072336 2.810133 0
M  V30 42 H 1.122310 1.037616 2.176299 0
M  V30 43 H 3.707595 1.270809 0.806746 0
M  V30 44 H 3.925728 3.389542 0.396952 0
M  V30 45 H 3.292229 5.501768 -0.482101 0
M  V30 46 H -0.469021 4.059167 -1.268118 0
M  V30 47 H -0.078895 0.569937 0.199368 0
M  V30 48 H -3.627392 1.176008 -2.515777 0
M  V30 49 H -5.299926 -0.521170 -2.601531 0
M  V30 50 H -5.162153 -2.442141 -1.188450 0
M  V30 51 H -4.791692 -4.091119 -0.160126 0
M  V30 52 H -4.642173 -5.940030 1.355726 0
M  V30 53 H -2.618265 -7.135306 2.979105 0
M  V30 54 H -1.441839 -4.135386 3.362511 0
M  V30 55 H 3.477557 0.268843 -1.175406 0
M  V30 56 H 1.756902 -0.007643 -1.111703 0
M  V30 END ATOM
M  V30 BEGIN BOND
M  V30 1 1 1 2
M  V30 2 1 2 3
M  V30 3 1 3 4
M  V30 4 1 4 5
M  V30 5 1 4 6
M  V30 6 1 6 7
M  V30 7 1 7 8
M  V30 8 2 8 9
M  V30 9 1 9 10
M  V30 10 2 10 11
M  V30 11 1 11 12
M  V30 12 2 12 13
M  V30 13 1 13 14
M  V30 14 1 14 15
M  V30 15 2 15 16
M  V30 16 1 15 17
M  V30 17 2 17 18
M  V30 18 1 18 19
M  V30 19 2 19 20
M  V30 20 1 20 21
M  V30 21 1 21 22
M  V30 22 2 22 23
M  V30 23 1 23 24
M  V30 24 2 24 25
M  V30 25 1 25 26
M  V30 26 1 25 27
M  V30 27 2 27 28
M  V30 28 1 28 29
M  V30 29 2 21 30
M  V30 30 1 7 31
M  V30 31 1 31 2
M  V30 32 1 13 8
M  V30 33 1 30 17
M  V30 34 1 28 22
M  V30 35 1 1 32
M  V30 36 1 1 33
M  V30 37 1 1 34
M  V30 38 1 2 35 CFG=1
M  V30 39 1 3 36
M  V30 40 1 3 37
M  V30 41 1 4 38 CFG=1
M  V30 42 1 5 39
M  V30 43 1 5 40
M  V30 44 1 6 41
M  V30 45 1 6 42
M  V30 46 1 7 43 CFG=1
M  V30 47 1 9 44
M  V30 48 1 10 45
M  V30 49 1 12 46
M  V30 50 1 14 47
M  V30 51 1 18 48
M  V30 52 1 19 49
M  V30 53 1 20 50
M  V30 54 1 23 51
M  V30 55 1 24 52
M  V30 56 1 26 53
M  V30 57 1 27 54
M  V30 58 1 31 55
M  V30 59 1 31 56
M  V30 END BOND
M  V30 END CTAB
M  END
>  <Dataset>  (376) 
ChEMBL_Kinases

>  <Ligand_Instance>  (376) 
nan

>  <PDB_ID>  (376) 
nan

>  <Standardized_SMILES>  (376) 
C[C@@H]1C[C@H](N)C[C@H](c2ccncc2NC(=O)c2cccc(-c3ccc(O)cc3F)n2)C1

>  <Name>  (376) 
nan

>  <Pocket>  (376) 
nan

>  <ATP_Site>  (376) 
nan

>  <Peripheral>  (376) 
nan

>  <Num_H_Atoms_ProtBoundConf>  (376) 
nan

>  <Num_Resolved_Atoms>  (376) 
nan

>  <Num_Not_Resolved_Atoms>  (376) 
nan

$$$$
CHEMBL3651934
     RDKit          3D

  0  0  0  0  0  0  0  0  0  0999 V3000
M  V30 BEGIN CTAB
M  V30 COUNTS 56 59 0 0 0
M  V30 BEGIN ATOM
M  V30 1 C 2.206844 -2.661811 -0.236793 0
M  V30 2 C 2.933785 -1.503382 0.414544 0 CFG=2
M  V30 3 C 2.691773 -1.538813 1.876494 0
M  V30 4 C 2.738243 -0.244086 2.607834 0 CFG=2
M  V30 5 N 2.355854 -0.452909 3.985052 0
M  V30 6 C 1.746221 0.687843 1.884698 0
M  V30 7 C 2.404380 0.949245 0.574143 0 CFG=2
M  V30 8 C 1.995000 2.132847 -0.165950 0
M  V30 9 C 2.883291 3.220032 -0.319914 0
M  V30 10 C 2.720777 4.423828 -1.007069 0
M  V30 11 N 1.506566 4.537735 -1.612651 0
M  V30 12 C 0.600252 3.536018 -1.509743 0
M  V30 13 C 0.808309 2.366682 -0.818776 0
M  V30 14 N -0.208477 1.386687 -0.748623 0
M  V30 15 C -1.469941 1.343726 -1.369196 0
M  V30 16 O -1.819999 2.306482 -2.137797 0
M  V30 17 C -2.481625 0.311652 -1.254842 0
M  V30 18 C -3.690596 0.389054 -1.905693 0
M  V30 19 C -4.691145 -0.550113 -1.827336 0
M  V30 20 C -4.469231 -1.666601 -1.029403 0
M  V30 21 F -5.457100 -2.592991 -0.953903 0
M  V30 22 C -3.256270 -1.743598 -0.376590 0
M  V30 23 C -3.135579 -2.956149 0.429849 0
M  V30 24 C -4.159572 -3.116918 1.372133 0
M  V30 25 C -4.247077 -4.183683 2.248291 0
M  V30 26 C -3.247672 -5.128747 2.162181 0
M  V30 27 O -3.310439 -6.205279 3.027732 0
M  V30 28 C -2.210269 -5.017710 1.246989 0
M  V30 29 C -2.165264 -3.935373 0.391554 0
M  V30 30 F -1.222323 -3.709650 -0.544315 0
M  V30 31 N -2.307004 -0.794419 -0.487553 0
M  V30 32 C 2.614082 -0.233700 -0.289976 0
M  V30 33 H 1.172696 -2.720163 0.140905 0
M  V30 34 H 2.764509 -3.614917 -0.115461 0
M  V30 35 H 2.166173 -2.470724 -1.326009 0
M  V30 36 H 4.016602 -1.737544 0.254645 0
M  V30 37 H 1.710372 -2.017858 2.127903 0
M  V30 38 H 3.455260 -2.196481 2.393162 0
M  V30 39 H 3.722861 0.253531 2.612029 0
M  V30 40 H 2.136572 0.480470 4.412197 0
M  V30 41 H 3.217423 -0.797749 4.470204 0
M  V30 42 H 1.661404 1.626334 2.462689 0
M  V30 43 H 0.814088 0.104210 1.861923 0
M  V30 44 H 3.488141 1.216447 0.920415 0
M  V30 45 H 3.880597 3.184171 0.150006 0
M  V30 46 H 3.481697 5.183035 -1.048548 0
M  V30 47 H -0.273210 3.839183 -2.054590 0
M  V30 48 H -0.168989 0.519670 -0.188040 0
M  V30 49 H -3.910854 1.253176 -2.544958 0
M  V30 50 H -5.615981 -0.427215 -2.366680 0
M  V30 51 H -4.972925 -2.383420 1.469484 0
M  V30 52 H -5.056035 -4.265361 2.956025 0
M  V30 53 H -3.559921 -7.136285 2.716526 0
M  V30 54 H -1.418922 -5.749297 1.167769 0
M  V30 55 H 3.477866 0.042214 -0.981426 0
M  V30 56 H 1.778284 -0.347192 -0.992697 0
M  V30 END ATOM
M  V30 BEGIN BOND
M  V30 1 1 1 2
M  V30 2 1 2 3
M  V30 3 1 3 4
M  V30 4 1 4 5
M  V30 5 1 4 6
M  V30 6 1 6 7
M  V30 7 1 7 8
M  V30 8 2 8 9
M  V30 9 1 9 10
M  V30 10 2 10 11
M  V30 11 1 11 12
M  V30 12 2 12 13
M  V30 13 1 13 14
M  V30 14 1 14 15
M  V30 15 2 15 16
M  V30 16 1 15 17
M  V30 17 2 17 18
M  V30 18 1 18 19
M  V30 19 2 19 20
M  V30 20 1 20 21
M  V30 21 1 20 22
M  V30 22 1 22 23
M  V30 23 2 23 24
M  V30 24 1 24 25
M  V30 25 2 25 26
M  V30 26 1 26 27
M  V30 27 1 26 28
M  V30 28 2 28 29
M  V30 29 1 29 30
M  V30 30 2 22 31
M  V30 31 1 7 32
M  V30 32 1 32 2
M  V30 33 1 13 8
M  V30 34 1 31 17
M  V30 35 1 29 23
M  V30 36 1 1 33
M  V30 37 1 1 34
M  V30 38 1 1 35
M  V30 39 1 2 36 CFG=1
M  V30 40 1 3 37
M  V30 41 1 3 38
M  V30 42 1 4 39 CFG=1
M  V30 43 1 5 40
M  V30 44 1 5 41
M  V30 45 1 6 42
M  V30 46 1 6 43
M  V30 47 1 7 44 CFG=1
M  V30 48 1 9 45
M  V30 49 1 10 46
M  V30 50 1 12 47
M  V30 51 1 14 48
M  V30 52 1 18 49
M  V30 53 1 19 50
M  V30 54 1 24 51
M  V30 55 1 25 52
M  V30 56 1 27 53
M  V30 57 1 28 54
M  V30 58 1 32 55
M  V30 59 1 32 56
M  V30 END BOND
M  V30 END CTAB
M  END
>  <Dataset>  (377) 
ChEMBL_Kinases

>  <Ligand_Instance>  (377) 
nan

>  <PDB_ID>  (377) 
nan

>  <Standardized_SMILES>  (377) 
C[C@@H]1C[C@H](N)C[C@H](c2ccncc2NC(=O)c2ccc(F)c(-c3ccc(O)cc3F)n2)C1

>  <Name>  (377) 
nan

>  <Pocket>  (377) 
nan

>  <ATP_Site>  (377) 
nan

>  <Peripheral>  (377) 
nan

>  <Num_H_Atoms_ProtBoundConf>  (377) 
nan

>  <Num_Resolved_Atoms>  (377) 
nan

>  <Num_Not_Resolved_Atoms>  (377) 
nan

$$$$
CHEMBL3651935
     RDKit          3D

  0  0  0  0  0  0  0  0  0  0999 V3000
M  V30 BEGIN CTAB
M  V30 COUNTS 56 59 0 0 0
M  V30 BEGIN ATOM
M  V30 1 C 2.495300 -2.230353 1.258311 0
M  V30 2 C 2.990624 -0.969062 0.581215 0 CFG=2
M  V30 3 C 3.892930 -0.187031 1.467501 0
M  V30 4 C 3.323003 0.843783 2.343094 0 CFG=2
M  V30 5 N 3.253438 0.458182 3.745977 0
M  V30 6 C 1.995856 1.342028 1.917155 0
M  V30 7 C 1.970988 1.286713 0.383253 0 CFG=2
M  V30 8 C 1.082533 2.252372 -0.207819 0
M  V30 9 C 1.581980 3.542880 -0.451569 0
M  V30 10 C 0.860742 4.582824 -0.988045 0
M  V30 11 N -0.420758 4.400877 -1.320163 0
M  V30 12 C -0.978663 3.198650 -1.121501 0
M  V30 13 C -0.239177 2.168702 -0.583047 0
M  V30 14 N -0.922159 0.936449 -0.404884 0
M  V30 15 C -0.892672 0.220987 -1.664922 0
M  V30 16 O -0.290051 0.847278 -2.575404 0
M  V30 17 C -1.515694 -1.105081 -1.829438 0
M  V30 18 N -2.118120 -1.678668 -0.805077 0
M  V30 19 C -2.699279 -2.884692 -0.906138 0
M  V30 20 C -3.332467 -3.425858 0.277247 0
M  V30 21 C -3.305089 -2.681969 1.435759 0
M  V30 22 C -3.874690 -3.098005 2.619905 0
M  V30 23 C -4.517660 -4.313994 2.704225 0
M  V30 24 O -5.101586 -4.767760 3.872817 0
M  V30 25 C -4.565729 -5.081302 1.575312 0
M  V30 26 C -3.981536 -4.619037 0.420057 0
M  V30 27 F -4.075385 -5.439805 -0.647710 0
M  V30 28 C -2.609140 -3.449378 -2.145339 0
M  V30 29 C -1.992418 -2.888714 -3.238494 0
M  V30 30 C -1.404539 -1.643850 -3.094652 0
M  V30 31 F -0.776731 -1.021557 -4.120819 0
M  V30 32 C 1.867016 -0.149626 -0.029506 0
M  V30 33 H 3.180841 -3.104557 1.062000 0
M  V30 34 H 1.538054 -2.518610 0.820392 0
M  V30 35 H 2.472621 -2.146436 2.364400 0
M  V30 36 H 3.606646 -1.336344 -0.266890 0
M  V30 37 H 4.761920 0.220117 0.881789 0
M  V30 38 H 4.388273 -0.947038 2.145339 0
M  V30 39 H 4.024030 1.734196 2.347054 0
M  V30 40 H 2.832890 1.308025 4.230434 0
M  V30 41 H 4.231179 0.425791 4.159613 0
M  V30 42 H 1.904924 2.419750 2.153280 0
M  V30 43 H 1.137827 0.785990 2.340895 0
M  V30 44 H 3.027752 1.583420 0.098280 0
M  V30 45 H 2.632754 3.761749 -0.200635 0
M  V30 46 H 1.329787 5.544700 -1.140455 0
M  V30 47 H -2.014803 3.056404 -1.391370 0
M  V30 48 H -1.402416 0.495081 0.412699 0
M  V30 49 H -2.823560 -1.708205 1.479092 0
M  V30 50 H -3.832053 -2.486140 3.506044 0
M  V30 51 H -4.826563 -5.622458 4.363871 0
M  V30 52 H -5.062573 -6.031979 1.622155 0
M  V30 53 H -3.051310 -4.418019 -2.307250 0
M  V30 54 H -1.963822 -3.402901 -4.190998 0
M  V30 55 H 1.888056 -0.200905 -1.130700 0
M  V30 56 H 0.942183 -0.663481 0.296506 0
M  V30 END ATOM
M  V30 BEGIN BOND
M  V30 1 1 1 2
M  V30 2 1 2 3
M  V30 3 1 3 4
M  V30 4 1 4 5
M  V30 5 1 4 6
M  V30 6 1 6 7
M  V30 7 1 7 8
M  V30 8 2 8 9
M  V30 9 1 9 10
M  V30 10 2 10 11
M  V30 11 1 11 12
M  V30 12 2 12 13
M  V30 13 1 13 14
M  V30 14 1 14 15
M  V30 15 2 15 16
M  V30 16 1 15 17
M  V30 17 2 17 18
M  V30 18 1 18 19
M  V30 19 1 19 20
M  V30 20 2 20 21
M  V30 21 1 21 22
M  V30 22 2 22 23
M  V30 23 1 23 24
M  V30 24 1 23 25
M  V30 25 2 25 26
M  V30 26 1 26 27
M  V30 27 2 19 28
M  V30 28 1 28 29
M  V30 29 2 29 30
M  V30 30 1 30 31
M  V30 31 1 7 32
M  V30 32 1 32 2
M  V30 33 1 13 8
M  V30 34 1 30 17
M  V30 35 1 26 20
M  V30 36 1 1 33
M  V30 37 1 1 34
M  V30 38 1 1 35
M  V30 39 1 2 36 CFG=3
M  V30 40 1 3 37
M  V30 41 1 3 38
M  V30 42 1 4 39 CFG=1
M  V30 43 1 5 40
M  V30 44 1 5 41
M  V30 45 1 6 42
M  V30 46 1 6 43
M  V30 47 1 7 44 CFG=3
M  V30 48 1 9 45
M  V30 49 1 10 46
M  V30 50 1 12 47
M  V30 51 1 14 48
M  V30 52 1 21 49
M  V30 53 1 22 50
M  V30 54 1 24 51
M  V30 55 1 25 52
M  V30 56 1 28 53
M  V30 57 1 29 54
M  V30 58 1 32 55
M  V30 59 1 32 56
M  V30 END BOND
M  V30 END CTAB
M  END
>  <Dataset>  (378) 
ChEMBL_Kinases

>  <Ligand_Instance>  (378) 
nan

>  <PDB_ID>  (378) 
nan

>  <Standardized_SMILES>  (378) 
C[C@@H]1C[C@H](N)C[C@H](c2ccncc2NC(=O)c2nc(-c3ccc(O)cc3F)ccc2F)C1

>  <Name>  (378) 
nan

>  <Pocket>  (378) 
nan

>  <ATP_Site>  (378) 
nan

>  <Peripheral>  (378) 
nan

>  <Num_H_Atoms_ProtBoundConf>  (378) 
nan

>  <Num_Resolved_Atoms>  (378) 
nan

>  <Num_Not_Resolved_Atoms>  (378) 
nan

$$$$
CHEMBL3651984
     RDKit          3D

  0  0  0  0  0  0  0  0  0  0999 V3000
M  V30 BEGIN CTAB
M  V30 COUNTS 53 56 0 0 0
M  V30 BEGIN ATOM
M  V30 1 N 1.721380 -4.514030 -2.334957 0
M  V30 2 C 1.768971 -3.074133 -2.194345 0 CFG=2
M  V30 3 C 1.990536 -2.659912 -0.754311 0
M  V30 4 C 2.284985 -1.149153 -0.799719 0 CFG=2
M  V30 5 C 3.012588 -0.677296 0.351200 0
M  V30 6 C 4.413563 -0.725161 0.360930 0
M  V30 7 C 5.223645 -0.322205 1.401047 0
M  V30 8 N 4.658255 0.164028 2.518865 0
M  V30 9 C 3.320523 0.247995 2.600688 0
M  V30 10 C 2.544210 -0.164628 1.539511 0
M  V30 11 N 1.142254 -0.036628 1.730956 0
M  V30 12 C 0.710192 1.295646 1.370929 0
M  V30 13 O 1.562482 2.124900 0.960951 0
M  V30 14 C -0.722780 1.634859 1.498542 0
M  V30 15 C -1.141908 2.886096 1.162125 0
M  V30 16 C -2.479278 3.234051 1.270504 0
M  V30 17 C -3.394004 2.282998 1.730220 0
M  V30 18 F -4.726118 2.457059 1.894230 0
M  V30 19 C -2.942740 1.038604 2.059084 0
M  V30 20 C -3.695913 -0.112143 2.556778 0
M  V30 21 C -3.771861 -0.139590 3.946623 0
M  V30 22 F -3.210253 0.797653 4.761613 0
M  V30 23 C -4.441567 -1.147950 4.621184 0
M  V30 24 C -5.039556 -2.138260 3.864447 0
M  V30 25 C -4.969674 -2.119366 2.490050 0
M  V30 26 C -4.300456 -1.111433 1.820321 0
M  V30 27 F -4.160399 -0.979792 0.479822 0
M  V30 28 N -1.630794 0.738982 1.939252 0
M  V30 29 C 1.051244 -0.449211 -1.216524 0
M  V30 30 C 0.674367 -0.937374 -2.618450 0
M  V30 31 C 0.472642 -2.432238 -2.635982 0 CFG=2
M  V30 32 O -0.569967 -2.848356 -1.823923 0
M  V30 33 H 2.552888 -4.863700 -2.896365 0
M  V30 34 H 0.897889 -4.730464 -2.952428 0
M  V30 35 H 2.596281 -2.634014 -2.791723 0
M  V30 36 H 2.827777 -3.246837 -0.374132 0
M  V30 37 H 1.053675 -2.842299 -0.164587 0
M  V30 38 H 2.991539 -1.070309 -1.684176 0
M  V30 39 H 4.941919 -1.112670 -0.523302 0
M  V30 40 H 6.296572 -0.395494 1.320732 0
M  V30 41 H 2.887753 0.642207 3.509391 0
M  V30 42 H 0.399720 -0.713590 2.073679 0
M  V30 43 H -0.450969 3.653705 0.798918 0
M  V30 44 H -2.898450 4.194993 1.028204 0
M  V30 45 H -4.512489 -1.188563 5.695132 0
M  V30 46 H -5.570812 -2.939773 4.372783 0
M  V30 47 H -5.424384 -2.875110 1.871309 0
M  V30 48 H 1.267504 0.623385 -1.371819 0
M  V30 49 H 0.160277 -0.672825 -0.609599 0
M  V30 50 H 1.424579 -0.688247 -3.378058 0
M  V30 51 H -0.281867 -0.456637 -2.898096 0
M  V30 52 H 0.343991 -2.708182 -3.706528 0
M  V30 53 H -1.271897 -2.153568 -1.803395 0
M  V30 END ATOM
M  V30 BEGIN BOND
M  V30 1 1 1 2
M  V30 2 1 2 3
M  V30 3 1 3 4
M  V30 4 1 4 5
M  V30 5 2 5 6
M  V30 6 1 6 7
M  V30 7 2 7 8
M  V30 8 1 8 9
M  V30 9 2 9 10
M  V30 10 1 10 11
M  V30 11 1 11 12
M  V30 12 2 12 13
M  V30 13 1 12 14
M  V30 14 2 14 15
M  V30 15 1 15 16
M  V30 16 2 16 17
M  V30 17 1 17 18
M  V30 18 1 17 19
M  V30 19 1 19 20
M  V30 20 2 20 21
M  V30 21 1 21 22
M  V30 22 1 21 23
M  V30 23 2 23 24
M  V30 24 1 24 25
M  V30 25 2 25 26
M  V30 26 1 26 27
M  V30 27 2 19 28
M  V30 28 1 4 29
M  V30 29 1 29 30
M  V30 30 1 30 31
M  V30 31 1 31 32
M  V30 32 1 31 2
M  V30 33 1 10 5
M  V30 34 1 28 14
M  V30 35 1 26 20
M  V30 36 1 1 33
M  V30 37 1 1 34
M  V30 38 1 2 35 CFG=3
M  V30 39 1 3 36
M  V30 40 1 3 37
M  V30 41 1 4 38 CFG=3
M  V30 42 1 6 39
M  V30 43 1 7 40
M  V30 44 1 9 41
M  V30 45 1 11 42
M  V30 46 1 15 43
M  V30 47 1 16 44
M  V30 48 1 23 45
M  V30 49 1 24 46
M  V30 50 1 25 47
M  V30 51 1 29 48
M  V30 52 1 29 49
M  V30 53 1 30 50
M  V30 54 1 30 51
M  V30 55 1 31 52 CFG=3
M  V30 56 1 32 53
M  V30 END BOND
M  V30 END CTAB
M  END
>  <Dataset>  (379) 
ChEMBL_Kinases

>  <Ligand_Instance>  (379) 
nan

>  <PDB_ID>  (379) 
nan

>  <Standardized_SMILES>  (379) 
N[C@@H]1C[C@H](c2ccncc2NC(=O)c2ccc(F)c(-c3c(F)cccc3F)n2)CC[C@@H]1O

>  <Name>  (379) 
nan

>  <Pocket>  (379) 
nan

>  <ATP_Site>  (379) 
nan

>  <Peripheral>  (379) 
nan

>  <Num_H_Atoms_ProtBoundConf>  (379) 
nan

>  <Num_Resolved_Atoms>  (379) 
nan

>  <Num_Not_Resolved_Atoms>  (379) 
nan

$$$$
CHEMBL3651937
     RDKit          3D

  0  0  0  0  0  0  0  0  0  0999 V3000
M  V30 BEGIN CTAB
M  V30 COUNTS 56 59 0 0 0
M  V30 BEGIN ATOM
M  V30 1 C 2.869400 -4.898500 2.687490 0
M  V30 2 C 3.309332 -3.481104 2.785908 0
M  V30 3 C 3.940528 -3.043418 3.932690 0
M  V30 4 C 4.350611 -1.730204 4.029311 0
M  V30 5 C 4.129442 -0.860233 2.982538 0
M  V30 6 F 4.503355 0.420515 3.018401 0
M  V30 7 C 3.497101 -1.299659 1.834291 0
M  V30 8 C 3.203943 -0.484630 0.658251 0
M  V30 9 C 4.155466 -0.421240 -0.352446 0
M  V30 10 C 3.843461 0.364966 -1.459819 0
M  V30 11 C 2.621764 1.029192 -1.491477 0
M  V30 12 C 1.697725 0.945887 -0.471176 0
M  V30 13 C 0.449883 1.687116 -0.615171 0
M  V30 14 O 0.205613 2.385769 -1.631541 0
M  V30 15 N -0.455188 1.541119 0.500776 0
M  V30 16 C -1.721272 2.050812 0.785776 0
M  V30 17 C -1.719307 3.286957 1.402418 0
M  V30 18 N -2.854326 3.908777 1.745194 0
M  V30 19 C -4.022184 3.302740 1.476284 0
M  V30 20 C -4.016070 2.068843 0.860753 0
M  V30 21 C -2.868647 1.359057 0.474033 0
M  V30 22 C -2.960205 0.052576 -0.161153 0 CFG=2
M  V30 23 C -2.973483 -1.119946 0.809275 0
M  V30 24 C -2.928730 -2.369247 -0.053214 0
M  V30 25 C -3.616749 -2.169021 -1.385902 0 CFG=2
M  V30 26 O -3.660370 -3.410360 -2.015361 0
M  V30 27 C -2.750276 -1.232436 -2.232597 0 CFG=2
M  V30 28 N -1.766628 -2.087516 -2.870597 0
M  V30 29 C -2.071169 -0.200190 -1.332309 0
M  V30 30 N 2.038447 0.181437 0.570319 0
M  V30 31 C 3.088492 -2.620532 1.745847 0
M  V30 32 F 2.464888 -3.109595 0.648871 0
M  V30 33 H 1.765476 -4.939777 2.678142 0
M  V30 34 H 3.186424 -5.456444 3.599631 0
M  V30 35 H 3.231546 -5.382183 1.758877 0
M  V30 36 H 4.102361 -3.756919 4.746927 0
M  V30 37 H 4.848737 -1.390636 4.937526 0
M  V30 38 H 5.100406 -0.947629 -0.305191 0
M  V30 39 H 4.549753 0.456069 -2.288718 0
M  V30 40 H 2.418063 1.619399 -2.351481 0
M  V30 41 H -0.224026 0.954012 1.331678 0
M  V30 42 H -0.820744 3.828105 1.646658 0
M  V30 43 H -4.954913 3.779644 1.740731 0
M  V30 44 H -4.991708 1.634432 0.671939 0
M  V30 45 H -4.008546 0.009039 -0.601351 0
M  V30 46 H -3.925520 -1.061353 1.374618 0
M  V30 47 H -2.151410 -1.126399 1.521605 0
M  V30 48 H -3.305097 -3.238394 0.502907 0
M  V30 49 H -1.852786 -2.560033 -0.271639 0
M  V30 50 H -4.641976 -1.808727 -1.297844 0
M  V30 51 H -3.749136 -4.124050 -1.350726 0
M  V30 52 H -3.421750 -0.773286 -2.972963 0
M  V30 53 H -1.280530 -1.643694 -3.673559 0
M  V30 54 H -2.185607 -2.972774 -3.172725 0
M  V30 55 H -1.948357 0.711013 -1.911668 0
M  V30 56 H -1.102002 -0.663208 -1.066191 0
M  V30 END ATOM
M  V30 BEGIN BOND
M  V30 1 1 1 2
M  V30 2 2 2 3
M  V30 3 1 3 4
M  V30 4 2 4 5
M  V30 5 1 5 6
M  V30 6 1 5 7
M  V30 7 1 7 8
M  V30 8 2 8 9
M  V30 9 1 9 10
M  V30 10 2 10 11
M  V30 11 1 11 12
M  V30 12 1 12 13
M  V30 13 2 13 14
M  V30 14 1 13 15
M  V30 15 1 15 16
M  V30 16 2 16 17
M  V30 17 1 17 18
M  V30 18 2 18 19
M  V30 19 1 19 20
M  V30 20 2 20 21
M  V30 21 1 21 22
M  V30 22 1 22 23
M  V30 23 1 23 24
M  V30 24 1 24 25
M  V30 25 1 25 26
M  V30 26 1 25 27
M  V30 27 1 27 28
M  V30 28 1 27 29
M  V30 29 2 12 30
M  V30 30 2 7 31
M  V30 31 1 31 32
M  V30 32 1 31 2
M  V30 33 1 30 8
M  V30 34 1 21 16
M  V30 35 1 29 22
M  V30 36 1 1 33
M  V30 37 1 1 34
M  V30 38 1 1 35
M  V30 39 1 3 36
M  V30 40 1 4 37
M  V30 41 1 9 38
M  V30 42 1 10 39
M  V30 43 1 11 40
M  V30 44 1 15 41
M  V30 45 1 17 42
M  V30 46 1 19 43
M  V30 47 1 20 44
M  V30 48 1 22 45 CFG=3
M  V30 49 1 23 46
M  V30 50 1 23 47
M  V30 51 1 24 48
M  V30 52 1 24 49
M  V30 53 1 25 50 CFG=1
M  V30 54 1 26 51
M  V30 55 1 27 52 CFG=3
M  V30 56 1 28 53
M  V30 57 1 28 54
M  V30 58 1 29 55
M  V30 59 1 29 56
M  V30 END BOND
M  V30 END CTAB
M  END
>  <Dataset>  (380) 
ChEMBL_Kinases

>  <Ligand_Instance>  (380) 
nan

>  <PDB_ID>  (380) 
nan

>  <Standardized_SMILES>  (380) 
Cc1ccc(F)c(-c2cccc(C(=O)Nc3cnccc3[C@@H]3CC[C@H](O)[C@H](N)C3)n2)c1F

>  <Name>  (380) 
nan

>  <Pocket>  (380) 
nan

>  <ATP_Site>  (380) 
nan

>  <Peripheral>  (380) 
nan

>  <Num_H_Atoms_ProtBoundConf>  (380) 
nan

>  <Num_Resolved_Atoms>  (380) 
nan

>  <Num_Not_Resolved_Atoms>  (380) 
nan

$$$$
CHEMBL3651938
     RDKit          3D

  0  0  0  0  0  0  0  0  0  0999 V3000
M  V30 BEGIN CTAB
M  V30 COUNTS 56 59 0 0 0
M  V30 BEGIN ATOM
M  V30 1 C 3.195778 1.352882 5.162411 0
M  V30 2 C 1.941166 0.959497 4.372371 0 CFG=2
M  V30 3 C 1.931973 -0.513090 4.226370 0
M  V30 4 C 1.179980 -1.110904 3.108852 0 CFG=2
M  V30 5 N 1.959700 -1.959099 2.238747 0
M  V30 6 C 0.441682 -0.034916 2.377933 0
M  V30 7 C 1.278133 1.094879 1.917868 0 CFG=2
M  V30 8 C 2.356495 0.801339 0.963737 0
M  V30 9 C 3.660905 0.489224 1.303259 0
M  V30 10 C 4.661373 0.224198 0.392463 0
M  V30 11 N 4.394747 0.260889 -0.922898 0
M  V30 12 C 3.173208 0.550890 -1.342823 0
M  V30 13 C 2.174161 0.815431 -0.427956 0
M  V30 14 N 0.884858 1.122637 -0.945415 0
M  V30 15 C 0.013159 0.024160 -1.184341 0
M  V30 16 O 0.541897 -1.080449 -0.890860 0
M  V30 17 C -1.342523 0.040645 -1.700837 0
M  V30 18 N -1.918813 -1.186628 -1.827042 0
M  V30 19 C -3.186248 -1.314978 -2.298987 0
M  V30 20 C -3.720809 -2.688338 -2.399099 0
M  V30 21 C -3.474284 -3.303515 -3.623377 0
M  V30 22 F -2.807506 -2.725658 -4.653113 0
M  V30 23 C -3.960520 -4.604917 -3.767705 0
M  V30 24 C -4.658290 -5.276145 -2.757463 0
M  V30 25 O -5.116038 -6.572677 -2.966016 0
M  V30 26 C -4.871618 -4.603113 -1.554924 0
M  V30 27 C -4.402022 -3.315031 -1.383726 0
M  V30 28 F -4.603888 -2.646808 -0.215581 0
M  V30 29 C -3.988092 -0.262412 -2.683285 0
M  V30 30 C -3.405387 0.981480 -2.555915 0
M  V30 31 C -2.118094 1.076907 -2.073956 0
M  V30 32 F -1.574484 2.309172 -1.960427 0
M  V30 33 C 1.723911 1.788931 3.170847 0
M  V30 34 H 3.110776 0.844290 6.154905 0
M  V30 35 H 4.107190 0.930116 4.696510 0
M  V30 36 H 3.243209 2.434684 5.368074 0
M  V30 37 H 1.131570 1.198093 5.109840 0
M  V30 38 H 1.626029 -0.989783 5.206460 0
M  V30 39 H 3.003368 -0.862528 4.125746 0
M  V30 40 H 0.392500 -1.782988 3.514264 0
M  V30 41 H 2.760652 -2.412273 2.692378 0
M  V30 42 H 1.338573 -2.532064 1.664934 0
M  V30 43 H -0.250439 0.409760 3.156616 0
M  V30 44 H -0.227110 -0.513589 1.675476 0
M  V30 45 H 0.598519 1.789656 1.379858 0
M  V30 46 H 3.919179 0.450253 2.349897 0
M  V30 47 H 5.676115 -0.016843 0.742322 0
M  V30 48 H 2.965892 0.578692 -2.401739 0
M  V30 49 H 0.510927 2.069810 -1.168517 0
M  V30 50 H -3.779804 -5.113148 -4.723785 0
M  V30 51 H -5.087044 -7.306710 -2.284046 0
M  V30 52 H -5.405666 -5.103257 -0.768384 0
M  V30 53 H -4.992511 -0.407188 -3.053980 0
M  V30 54 H -3.949041 1.869058 -2.829780 0
M  V30 55 H 0.939097 2.543948 3.401458 0
M  V30 56 H 2.627015 2.421663 3.015229 0
M  V30 END ATOM
M  V30 BEGIN BOND
M  V30 1 1 1 2
M  V30 2 1 2 3
M  V30 3 1 3 4
M  V30 4 1 4 5
M  V30 5 1 4 6
M  V30 6 1 6 7
M  V30 7 1 7 8
M  V30 8 2 8 9
M  V30 9 1 9 10
M  V30 10 2 10 11
M  V30 11 1 11 12
M  V30 12 2 12 13
M  V30 13 1 13 14
M  V30 14 1 14 15
M  V30 15 2 15 16
M  V30 16 1 15 17
M  V30 17 2 17 18
M  V30 18 1 18 19
M  V30 19 1 19 20
M  V30 20 2 20 21
M  V30 21 1 21 22
M  V30 22 1 21 23
M  V30 23 2 23 24
M  V30 24 1 24 25
M  V30 25 1 24 26
M  V30 26 2 26 27
M  V30 27 1 27 28
M  V30 28 2 19 29
M  V30 29 1 29 30
M  V30 30 2 30 31
M  V30 31 1 31 32
M  V30 32 1 7 33
M  V30 33 1 33 2
M  V30 34 1 13 8
M  V30 35 1 31 17
M  V30 36 1 27 20
M  V30 37 1 1 34
M  V30 38 1 1 35
M  V30 39 1 1 36
M  V30 40 1 2 37 CFG=1
M  V30 41 1 3 38
M  V30 42 1 3 39
M  V30 43 1 4 40 CFG=1
M  V30 44 1 5 41
M  V30 45 1 5 42
M  V30 46 1 6 43
M  V30 47 1 6 44
M  V30 48 1 7 45 CFG=3
M  V30 49 1 9 46
M  V30 50 1 10 47
M  V30 51 1 12 48
M  V30 52 1 14 49
M  V30 53 1 23 50
M  V30 54 1 25 51
M  V30 55 1 26 52
M  V30 56 1 29 53
M  V30 57 1 30 54
M  V30 58 1 33 55
M  V30 59 1 33 56
M  V30 END BOND
M  V30 END CTAB
M  END
>  <Dataset>  (381) 
ChEMBL_Kinases

>  <Ligand_Instance>  (381) 
nan

>  <PDB_ID>  (381) 
nan

>  <Standardized_SMILES>  (381) 
C[C@@H]1C[C@H](N)C[C@H](c2ccncc2NC(=O)c2nc(-c3c(F)cc(O)cc3F)ccc2F)C1

>  <Name>  (381) 
nan

>  <Pocket>  (381) 
nan

>  <ATP_Site>  (381) 
nan

>  <Peripheral>  (381) 
nan

>  <Num_H_Atoms_ProtBoundConf>  (381) 
nan

>  <Num_Resolved_Atoms>  (381) 
nan

>  <Num_Not_Resolved_Atoms>  (381) 
nan

$$$$
CHEMBL3651939
     RDKit          3D

  0  0  0  0  0  0  0  0  0  0999 V3000
M  V30 BEGIN CTAB
M  V30 COUNTS 56 59 0 0 0
M  V30 BEGIN ATOM
M  V30 1 C 1.785329 -1.699587 -1.442014 0
M  V30 2 C 2.847593 -0.737315 -0.903866 0 CFG=2
M  V30 3 C 3.210215 -1.208509 0.455172 0
M  V30 4 C 3.164858 -0.189952 1.549171 0 CFG=2
M  V30 5 N 3.347866 -0.810740 2.822375 0
M  V30 6 C 1.805079 0.488622 1.417172 0
M  V30 7 C 1.951918 1.356616 0.180077 0 CFG=2
M  V30 8 C 0.934634 2.410223 0.060620 0
M  V30 9 C 1.124315 3.761412 0.354129 0
M  V30 10 C 0.197841 4.763787 0.254533 0
M  V30 11 N -1.051302 4.420857 -0.176862 0
M  V30 12 C -1.317065 3.125560 -0.483125 0
M  V30 13 C -0.340513 2.132086 -0.367256 0
M  V30 14 N -0.854652 0.880150 -0.718776 0
M  V30 15 C -1.106742 0.017181 -1.827264 0
M  V30 16 O -0.789851 0.430544 -2.994149 0
M  V30 17 C -1.714349 -1.287790 -1.547844 0
M  V30 18 N -2.025023 -1.677311 -0.323120 0
M  V30 19 C -2.574887 -2.864720 -0.082971 0
M  V30 20 C -2.871754 -3.182745 1.300174 0
M  V30 21 C -2.589269 -2.265173 2.276464 0
M  V30 22 C -2.825362 -2.457100 3.616333 0
M  V30 23 O -2.526479 -1.509573 4.563462 0
M  V30 24 C -3.383318 -3.634292 4.064721 0
M  V30 25 C -3.687124 -4.591382 3.122462 0
M  V30 26 C -3.424948 -4.337459 1.792986 0
M  V30 27 F -3.754605 -5.332161 0.943356 0
M  V30 28 C -2.796857 -3.652499 -1.183000 0
M  V30 29 C -2.495938 -3.302667 -2.476008 0
M  V30 30 C -1.926221 -2.058716 -2.671037 0
M  V30 31 F -1.609252 -1.660085 -3.927326 0
M  V30 32 C 2.397181 0.678864 -1.046164 0
M  V30 33 H 0.994792 -1.787051 -0.664103 0
M  V30 34 H 2.233769 -2.723164 -1.580540 0
M  V30 35 H 1.441584 -1.290149 -2.401211 0
M  V30 36 H 3.725458 -0.954089 -1.564485 0
M  V30 37 H 2.562625 -2.054672 0.804901 0
M  V30 38 H 4.247571 -1.656491 0.510544 0
M  V30 39 H 3.980122 0.558957 1.403773 0
M  V30 40 H 2.821625 -0.391415 3.596806 0
M  V30 41 H 3.266824 -1.830772 2.723700 0
M  V30 42 H 1.645095 1.144570 2.277122 0
M  V30 43 H 1.082519 -0.322955 1.327679 0
M  V30 44 H 2.873071 1.955821 0.524529 0
M  V30 45 H 2.128841 4.049189 0.703235 0
M  V30 46 H 0.463322 5.779941 0.511761 0
M  V30 47 H -2.339110 2.994961 -0.810760 0
M  V30 48 H -1.118727 0.538407 0.232120 0
M  V30 49 H -2.144927 -1.294488 2.035346 0
M  V30 50 H -1.657934 -1.576214 5.083733 0
M  V30 51 H -3.582360 -3.819927 5.110363 0
M  V30 52 H -4.124254 -5.520259 3.449769 0
M  V30 53 H -3.234841 -4.613911 -1.060301 0
M  V30 54 H -2.692426 -3.963722 -3.304941 0
M  V30 55 H 3.279457 1.229745 -1.506912 0
M  V30 56 H 1.670090 0.735699 -1.881708 0
M  V30 END ATOM
M  V30 BEGIN BOND
M  V30 1 1 1 2
M  V30 2 1 2 3
M  V30 3 1 3 4
M  V30 4 1 4 5
M  V30 5 1 4 6
M  V30 6 1 6 7
M  V30 7 1 7 8
M  V30 8 2 8 9
M  V30 9 1 9 10
M  V30 10 2 10 11
M  V30 11 1 11 12
M  V30 12 2 12 13
M  V30 13 1 13 14
M  V30 14 1 14 15
M  V30 15 2 15 16
M  V30 16 1 15 17
M  V30 17 2 17 18
M  V30 18 1 18 19
M  V30 19 1 19 20
M  V30 20 2 20 21
M  V30 21 1 21 22
M  V30 22 1 22 23
M  V30 23 2 22 24
M  V30 24 1 24 25
M  V30 25 2 25 26
M  V30 26 1 26 27
M  V30 27 2 19 28
M  V30 28 1 28 29
M  V30 29 2 29 30
M  V30 30 1 30 31
M  V30 31 1 7 32
M  V30 32 1 32 2
M  V30 33 1 13 8
M  V30 34 1 30 17
M  V30 35 1 26 20
M  V30 36 1 1 33
M  V30 37 1 1 34
M  V30 38 1 1 35
M  V30 39 1 2 36 CFG=3
M  V30 40 1 3 37
M  V30 41 1 3 38
M  V30 42 1 4 39 CFG=3
M  V30 43 1 5 40
M  V30 44 1 5 41
M  V30 45 1 6 42
M  V30 46 1 6 43
M  V30 47 1 7 44 CFG=1
M  V30 48 1 9 45
M  V30 49 1 10 46
M  V30 50 1 12 47
M  V30 51 1 14 48
M  V30 52 1 21 49
M  V30 53 1 23 50
M  V30 54 1 24 51
M  V30 55 1 25 52
M  V30 56 1 28 53
M  V30 57 1 29 54
M  V30 58 1 32 55
M  V30 59 1 32 56
M  V30 END BOND
M  V30 END CTAB
M  END
>  <Dataset>  (382) 
ChEMBL_Kinases

>  <Ligand_Instance>  (382) 
nan

>  <PDB_ID>  (382) 
nan

>  <Standardized_SMILES>  (382) 
C[C@@H]1C[C@H](N)C[C@H](c2ccncc2NC(=O)c2nc(-c3cc(O)ccc3F)ccc2F)C1

>  <Name>  (382) 
nan

>  <Pocket>  (382) 
nan

>  <ATP_Site>  (382) 
nan

>  <Peripheral>  (382) 
nan

>  <Num_H_Atoms_ProtBoundConf>  (382) 
nan

>  <Num_Resolved_Atoms>  (382) 
nan

>  <Num_Not_Resolved_Atoms>  (382) 
nan

$$$$
CHEMBL3651940
     RDKit          3D

  0  0  0  0  0  0  0  0  0  0999 V3000
M  V30 BEGIN CTAB
M  V30 COUNTS 59 62 0 0 0
M  V30 BEGIN ATOM
M  V30 1 C 0.494122 3.157726 5.029953 0
M  V30 2 C -0.328253 1.915420 5.044018 0
M  V30 3 C -0.576088 1.183568 6.197383 0
M  V30 4 C -1.350333 0.028269 6.164707 0
M  V30 5 C -1.852613 -0.347907 4.943444 0
M  V30 6 F -2.607532 -1.484877 4.945331 0
M  V30 7 C -1.620372 0.367724 3.766781 0
M  V30 8 C -2.216224 -0.147151 2.538611 0
M  V30 9 N -1.479666 -1.023106 1.812154 0
M  V30 10 C -1.973751 -1.519236 0.691083 0
M  V30 11 C -1.223484 -2.479577 -0.150187 0
M  V30 12 O -1.725041 -2.948637 -1.232526 0
M  V30 13 N 0.105102 -2.958910 0.168177 0
M  V30 14 C 0.475366 -3.847057 -0.876300 0
M  V30 15 C 0.022737 -5.141185 -0.746838 0
M  V30 16 N 0.308195 -6.071728 -1.660336 0
M  V30 17 C 1.041149 -5.735657 -2.708062 0
M  V30 18 C 1.486762 -4.445360 -2.826880 0
M  V30 19 C 1.243822 -3.394655 -1.925031 0
M  V30 20 C 1.801682 -2.046204 -2.149017 0 CFG=1
M  V30 21 C 0.816258 -1.228533 -2.902209 0
M  V30 22 C 1.373467 0.201001 -3.029002 0 CFG=1
M  V30 23 N 0.580546 0.947429 -3.961222 0
M  V30 24 C 1.171316 0.702423 -1.592038 0 CFG=2
M  V30 25 O 1.340956 2.082417 -1.498107 0
M  V30 26 C 2.192669 0.030230 -0.748249 0 CFG=1
M  V30 27 C 1.735964 0.239988 0.702507 0
M  V30 28 C 2.483829 -1.398463 -1.012308 0
M  V30 29 C -3.226279 -1.163555 0.243614 0
M  V30 30 C -3.997346 -0.274304 0.962936 0
M  V30 31 C -3.475447 0.239831 2.132383 0
M  V30 32 F -4.211400 1.117704 2.862148 0
M  V30 33 C -0.847701 1.506959 3.843500 0
M  V30 34 F -0.682970 2.127002 2.647341 0
M  V30 35 H -0.123911 4.061411 5.225820 0
M  V30 36 H 1.012707 3.242873 4.055360 0
M  V30 37 H 1.303411 3.073775 5.804076 0
M  V30 38 H -0.137141 1.561525 7.106394 0
M  V30 39 H -1.520307 -0.510758 7.074998 0
M  V30 40 H 0.408673 -2.511995 1.087736 0
M  V30 41 H -0.577937 -5.441924 0.099685 0
M  V30 42 H 1.276286 -6.475814 -3.448762 0
M  V30 43 H 2.091738 -4.238739 -3.725497 0
M  V30 44 H 2.623828 -2.212611 -2.933580 0
M  V30 45 H 0.667371 -1.674737 -3.919334 0
M  V30 46 H -0.171485 -1.135856 -2.469250 0
M  V30 47 H 2.450792 0.184797 -3.229442 0
M  V30 48 H 0.613893 0.429213 -4.868668 0
M  V30 49 H -0.412013 0.875663 -3.633556 0
M  V30 50 H 0.114008 0.468980 -1.334260 0
M  V30 51 H 0.496831 2.543413 -1.728183 0
M  V30 52 H 3.113753 0.677906 -0.827405 0
M  V30 53 H 0.643813 0.457108 0.754765 0
M  V30 54 H 2.233180 1.070076 1.200744 0
M  V30 55 H 1.922182 -0.665235 1.315314 0
M  V30 56 H 3.613031 -1.458839 -1.146672 0
M  V30 57 H 2.372122 -1.965759 -0.060763 0
M  V30 58 H -3.662975 -1.556970 -0.680310 0
M  V30 59 H -4.962425 -0.004030 0.612579 0
M  V30 END ATOM
M  V30 BEGIN BOND
M  V30 1 1 1 2
M  V30 2 2 2 3
M  V30 3 1 3 4
M  V30 4 2 4 5
M  V30 5 1 5 6
M  V30 6 1 5 7
M  V30 7 1 7 8
M  V30 8 2 8 9
M  V30 9 1 9 10
M  V30 10 1 10 11
M  V30 11 2 11 12
M  V30 12 1 11 13
M  V30 13 1 13 14
M  V30 14 2 14 15
M  V30 15 1 15 16
M  V30 16 2 16 17
M  V30 17 1 17 18
M  V30 18 2 18 19
M  V30 19 1 19 20
M  V30 20 1 20 21
M  V30 21 1 21 22
M  V30 22 1 22 23
M  V30 23 1 22 24
M  V30 24 1 24 25
M  V30 25 1 24 26
M  V30 26 1 26 27
M  V30 27 1 26 28
M  V30 28 2 10 29
M  V30 29 1 29 30
M  V30 30 2 30 31
M  V30 31 1 31 32
M  V30 32 2 7 33
M  V30 33 1 33 34
M  V30 34 1 33 2
M  V30 35 1 31 8
M  V30 36 1 19 14
M  V30 37 1 28 20
M  V30 38 1 1 35
M  V30 39 1 1 36
M  V30 40 1 1 37
M  V30 41 1 3 38
M  V30 42 1 4 39
M  V30 43 1 13 40
M  V30 44 1 15 41
M  V30 45 1 17 42
M  V30 46 1 18 43
M  V30 47 1 20 44 CFG=3
M  V30 48 1 21 45
M  V30 49 1 21 46
M  V30 50 1 22 47 CFG=3
M  V30 51 1 23 48
M  V30 52 1 23 49
M  V30 53 1 24 50 CFG=1
M  V30 54 1 25 51
M  V30 55 1 26 52 CFG=1
M  V30 56 1 27 53
M  V30 57 1 27 54
M  V30 58 1 27 55
M  V30 59 1 28 56
M  V30 60 1 28 57
M  V30 61 1 29 58
M  V30 62 1 30 59
M  V30 END BOND
M  V30 END CTAB
M  END
>  <Dataset>  (383) 
ChEMBL_Kinases

>  <Ligand_Instance>  (383) 
nan

>  <PDB_ID>  (383) 
nan

>  <Standardized_SMILES>  (383) 
Cc1ccc(F)c(-c2nc(C(=O)Nc3cnccc3[C@H]3C[C@@H](N)[C@H](O)[C@@H](C)C3)ccc2F)c1F

>  <Name>  (383) 
nan

>  <Pocket>  (383) 
nan

>  <ATP_Site>  (383) 
nan

>  <Peripheral>  (383) 
nan

>  <Num_H_Atoms_ProtBoundConf>  (383) 
nan

>  <Num_Resolved_Atoms>  (383) 
nan

>  <Num_Not_Resolved_Atoms>  (383) 
nan

$$$$
CHEMBL3651941
     RDKit          3D

  0  0  0  0  0  0  0  0  0  0999 V3000
M  V30 BEGIN CTAB
M  V30 COUNTS 59 62 0 0 0
M  V30 BEGIN ATOM
M  V30 1 C 7.469691 0.579888 3.911501 0
M  V30 2 O 6.348436 0.726577 4.726621 0
M  V30 3 C 5.030474 0.796929 4.299031 0
M  V30 4 C 4.033846 0.944925 5.266967 0
M  V30 5 C 2.698456 1.020848 4.896036 0
M  V30 6 C 2.294274 0.954600 3.569320 0
M  V30 7 F 1.020860 1.022232 3.153797 0
M  V30 8 C 3.265357 0.810736 2.632929 0
M  V30 9 C 3.056914 0.714737 1.187149 0
M  V30 10 N 2.188853 -0.250896 0.803047 0
M  V30 11 C 1.892729 -0.469654 -0.493919 0
M  V30 12 C 0.964373 -1.496896 -0.971922 0
M  V30 13 O 0.696601 -1.702036 -2.187776 0
M  V30 14 N 0.230354 -2.412144 -0.130656 0
M  V30 15 C -0.531002 -3.211749 -1.065598 0
M  V30 16 C 0.185605 -4.333026 -1.437739 0
M  V30 17 N -0.365649 -5.206072 -2.321006 0
M  V30 18 C -1.591701 -4.973477 -2.820235 0
M  V30 19 C -2.305504 -3.854266 -2.447962 0
M  V30 20 C -1.803676 -2.934232 -1.559341 0
M  V30 21 C -2.416473 -1.690764 -1.045479 0 CFG=2
M  V30 22 C -3.230618 -2.072493 0.195615 0
M  V30 23 C -3.800590 -0.840452 0.844494 0 CFG=2
M  V30 24 C -5.167134 -1.131745 1.470194 0
M  V30 25 C -3.891146 0.339719 -0.068082 0
M  V30 26 C -4.185829 0.023087 -1.491596 0 CFG=2
M  V30 27 N -5.615575 -0.152290 -1.736837 0
M  V30 28 C -3.369619 -1.125894 -2.043240 0
M  V30 29 C 2.473687 0.295286 -1.483835 0
M  V30 30 C 3.375549 1.301804 -1.114333 0
M  V30 31 C 3.658609 1.501300 0.222395 0
M  V30 32 F 4.517354 2.450122 0.667011 0
M  V30 33 C 4.619968 0.731883 2.981691 0
M  V30 34 H 8.325289 1.147832 4.362207 0
M  V30 35 H 7.736317 -0.516976 3.902381 0
M  V30 36 H 7.336471 0.871124 2.856203 0
M  V30 37 H 4.314766 0.999004 6.300976 0
M  V30 38 H 1.901342 1.137978 5.648398 0
M  V30 39 H 0.391565 -2.313679 0.914947 0
M  V30 40 H 1.171968 -4.613483 -1.099203 0
M  V30 41 H -2.100713 -5.624083 -3.530510 0
M  V30 42 H -3.280166 -3.651518 -2.832523 0
M  V30 43 H -1.644252 -0.952637 -0.735563 0
M  V30 44 H -2.678026 -2.687982 0.904343 0
M  V30 45 H -4.119448 -2.616906 -0.235349 0
M  V30 46 H -3.126019 -0.573715 1.683881 0
M  V30 47 H -5.425450 -0.206393 2.063516 0
M  V30 48 H -5.086725 -1.964388 2.176629 0
M  V30 49 H -5.965847 -1.235117 0.721928 0
M  V30 50 H -4.746215 0.969528 0.304033 0
M  V30 51 H -2.992833 1.002471 0.009179 0
M  V30 52 H -3.891819 0.937215 -2.083791 0
M  V30 53 H -6.087655 0.730521 -1.450232 0
M  V30 54 H -5.732334 -0.213058 -2.794233 0
M  V30 55 H -2.850427 -0.835877 -3.000472 0
M  V30 56 H -4.107400 -1.904989 -2.317711 0
M  V30 57 H 2.303277 0.200211 -2.552909 0
M  V30 58 H 3.856046 1.927781 -1.865520 0
M  V30 59 H 5.419683 0.615614 2.250700 0
M  V30 END ATOM
M  V30 BEGIN BOND
M  V30 1 1 1 2
M  V30 2 1 2 3
M  V30 3 2 3 4
M  V30 4 1 4 5
M  V30 5 2 5 6
M  V30 6 1 6 7
M  V30 7 1 6 8
M  V30 8 1 8 9
M  V30 9 2 9 10
M  V30 10 1 10 11
M  V30 11 1 11 12
M  V30 12 2 12 13
M  V30 13 1 12 14
M  V30 14 1 14 15
M  V30 15 2 15 16
M  V30 16 1 16 17
M  V30 17 2 17 18
M  V30 18 1 18 19
M  V30 19 2 19 20
M  V30 20 1 20 21
M  V30 21 1 21 22
M  V30 22 1 22 23
M  V30 23 1 23 24
M  V30 24 1 23 25
M  V30 25 1 25 26
M  V30 26 1 26 27
M  V30 27 1 26 28
M  V30 28 2 11 29
M  V30 29 1 29 30
M  V30 30 2 30 31
M  V30 31 1 31 32
M  V30 32 2 8 33
M  V30 33 1 33 3
M  V30 34 1 31 9
M  V30 35 1 20 15
M  V30 36 1 28 21
M  V30 37 1 1 34
M  V30 38 1 1 35
M  V30 39 1 1 36
M  V30 40 1 4 37
M  V30 41 1 5 38
M  V30 42 1 14 39
M  V30 43 1 16 40
M  V30 44 1 18 41
M  V30 45 1 19 42
M  V30 46 1 21 43 CFG=1
M  V30 47 1 22 44
M  V30 48 1 22 45
M  V30 49 1 23 46 CFG=1
M  V30 50 1 24 47
M  V30 51 1 24 48
M  V30 52 1 24 49
M  V30 53 1 25 50
M  V30 54 1 25 51
M  V30 55 1 26 52 CFG=3
M  V30 56 1 27 53
M  V30 57 1 27 54
M  V30 58 1 28 55
M  V30 59 1 28 56
M  V30 60 1 29 57
M  V30 61 1 30 58
M  V30 62 1 33 59
M  V30 END BOND
M  V30 END CTAB
M  END
>  <Dataset>  (384) 
ChEMBL_Kinases

>  <Ligand_Instance>  (384) 
nan

>  <PDB_ID>  (384) 
nan

>  <Standardized_SMILES>  (384) 
COc1ccc(F)c(-c2nc(C(=O)Nc3cnccc3[C@@H]3C[C@H](C)C[C@H](N)C3)ccc2F)c1

>  <Name>  (384) 
nan

>  <Pocket>  (384) 
nan

>  <ATP_Site>  (384) 
nan

>  <Peripheral>  (384) 
nan

>  <Num_H_Atoms_ProtBoundConf>  (384) 
nan

>  <Num_Resolved_Atoms>  (384) 
nan

>  <Num_Not_Resolved_Atoms>  (384) 
nan

$$$$
CHEMBL3651942
     RDKit          3D

  0  0  0  0  0  0  0  0  0  0999 V3000
M  V30 BEGIN CTAB
M  V30 COUNTS 56 59 0 0 0
M  V30 BEGIN ATOM
M  V30 1 C 2.245790 -2.745797 0.457376 0
M  V30 2 C 2.937444 -1.494851 -0.087303 0 CFG=2
M  V30 3 C 4.085085 -1.132062 0.783306 0
M  V30 4 C 3.850645 -0.214126 1.911743 0 CFG=2
M  V30 5 N 3.979789 -0.832605 3.217084 0
M  V30 6 C 2.584180 0.597294 1.800958 0
M  V30 7 C 2.415655 0.906201 0.320331 0 CFG=2
M  V30 8 C 1.671209 2.108771 0.055301 0
M  V30 9 C 2.373501 3.324056 0.034423 0
M  V30 10 C 1.812362 4.561993 -0.181296 0
M  V30 11 N 0.490123 4.648940 -0.391794 0
M  V30 12 C -0.259593 3.535132 -0.389269 0
M  V30 13 C 0.333229 2.312046 -0.170703 0
M  V30 14 N -0.569764 1.219720 -0.188165 0
M  V30 15 C -0.942766 0.614775 -1.446448 0
M  V30 16 O -0.376920 1.176140 -2.432067 0
M  V30 17 C -1.858507 -0.508490 -1.590050 0
M  V30 18 C -2.078491 -0.951452 -2.877287 0
M  V30 19 C -2.943713 -2.017386 -3.011024 0
M  V30 20 C -3.503205 -2.537846 -1.866714 0
M  V30 21 F -4.341271 -3.579182 -2.055022 0
M  V30 22 C -3.287014 -2.100106 -0.584702 0
M  V30 23 C -3.853517 -2.614180 0.643373 0
M  V30 24 C -4.726262 -3.653254 0.799351 0
M  V30 25 C -5.230668 -4.095439 2.003297 0
M  V30 26 O -6.125270 -5.178253 2.038736 0
M  V30 27 C -4.838572 -3.454504 3.158254 0
M  V30 28 C -3.958456 -2.399752 3.050377 0
M  V30 29 C -3.483358 -1.997155 1.818679 0
M  V30 30 F -2.627528 -0.948849 1.872940 0
M  V30 31 N -2.437019 -1.060917 -0.511164 0
M  V30 32 C 1.966662 -0.362188 -0.328483 0
M  V30 33 H 2.717061 -3.683641 0.099141 0
M  V30 34 H 1.196510 -2.764980 0.137385 0
M  V30 35 H 2.367145 -2.768040 1.579675 0
M  V30 36 H 3.340401 -1.779159 -1.082007 0
M  V30 37 H 4.963552 -0.814289 0.147339 0
M  V30 38 H 4.456001 -2.104596 1.226922 0
M  V30 39 H 4.677735 0.559097 1.895857 0
M  V30 40 H 3.074770 -1.108603 3.647161 0
M  V30 41 H 4.715909 -1.543899 3.213977 0
M  V30 42 H 2.710533 1.574661 2.317042 0
M  V30 43 H 1.734141 0.013540 2.164643 0
M  V30 44 H 3.467998 1.074708 -0.067515 0
M  V30 45 H 3.455600 3.313223 0.200087 0
M  V30 46 H 2.428792 5.447616 -0.180831 0
M  V30 47 H -1.318249 3.655747 -0.562567 0
M  V30 48 H -0.988421 0.818494 0.671788 0
M  V30 49 H -1.627308 -0.525860 -3.758539 0
M  V30 50 H -3.155982 -2.406473 -3.976946 0
M  V30 51 H -5.059788 -4.181158 -0.067655 0
M  V30 52 H -5.739564 -6.108310 1.877436 0
M  V30 53 H -5.232757 -3.799312 4.104631 0
M  V30 54 H -3.675064 -1.923126 3.975974 0
M  V30 55 H 1.801881 -0.173277 -1.401429 0
M  V30 56 H 1.008828 -0.704904 0.107238 0
M  V30 END ATOM
M  V30 BEGIN BOND
M  V30 1 1 1 2
M  V30 2 1 2 3
M  V30 3 1 3 4
M  V30 4 1 4 5
M  V30 5 1 4 6
M  V30 6 1 6 7
M  V30 7 1 7 8
M  V30 8 2 8 9
M  V30 9 1 9 10
M  V30 10 2 10 11
M  V30 11 1 11 12
M  V30 12 2 12 13
M  V30 13 1 13 14
M  V30 14 1 14 15
M  V30 15 2 15 16
M  V30 16 1 15 17
M  V30 17 2 17 18
M  V30 18 1 18 19
M  V30 19 2 19 20
M  V30 20 1 20 21
M  V30 21 1 20 22
M  V30 22 1 22 23
M  V30 23 2 23 24
M  V30 24 1 24 25
M  V30 25 1 25 26
M  V30 26 2 25 27
M  V30 27 1 27 28
M  V30 28 2 28 29
M  V30 29 1 29 30
M  V30 30 2 22 31
M  V30 31 1 7 32
M  V30 32 1 32 2
M  V30 33 1 13 8
M  V30 34 1 31 17
M  V30 35 1 29 23
M  V30 36 1 1 33
M  V30 37 1 1 34
M  V30 38 1 1 35
M  V30 39 1 2 36 CFG=3
M  V30 40 1 3 37
M  V30 41 1 3 38
M  V30 42 1 4 39 CFG=1
M  V30 43 1 5 40
M  V30 44 1 5 41
M  V30 45 1 6 42
M  V30 46 1 6 43
M  V30 47 1 7 44 CFG=3
M  V30 48 1 9 45
M  V30 49 1 10 46
M  V30 50 1 12 47
M  V30 51 1 14 48
M  V30 52 1 18 49
M  V30 53 1 19 50
M  V30 54 1 24 51
M  V30 55 1 26 52
M  V30 56 1 27 53
M  V30 57 1 28 54
M  V30 58 1 32 55
M  V30 59 1 32 56
M  V30 END BOND
M  V30 END CTAB
M  END
>  <Dataset>  (385) 
ChEMBL_Kinases

>  <Ligand_Instance>  (385) 
nan

>  <PDB_ID>  (385) 
nan

>  <Standardized_SMILES>  (385) 
C[C@@H]1C[C@H](N)C[C@H](c2ccncc2NC(=O)c2ccc(F)c(-c3cc(O)ccc3F)n2)C1

>  <Name>  (385) 
nan

>  <Pocket>  (385) 
nan

>  <ATP_Site>  (385) 
nan

>  <Peripheral>  (385) 
nan

>  <Num_H_Atoms_ProtBoundConf>  (385) 
nan

>  <Num_Resolved_Atoms>  (385) 
nan

>  <Num_Not_Resolved_Atoms>  (385) 
nan

$$$$
CHEMBL3651943
     RDKit          3D

  0  0  0  0  0  0  0  0  0  0999 V3000
M  V30 BEGIN CTAB
M  V30 COUNTS 60 63 0 0 0
M  V30 BEGIN ATOM
M  V30 1 C 3.215791 2.991304 7.135729 0
M  V30 2 O 2.733624 3.107999 5.816403 0
M  V30 3 C 3.055546 2.131725 4.888612 0
M  V30 4 C 3.823843 1.007174 5.101210 0
M  V30 5 C 4.053810 0.124558 4.065538 0
M  V30 6 C 3.502154 0.391421 2.824454 0
M  V30 7 F 3.731300 -0.482978 1.803227 0
M  V30 8 C 2.723103 1.508671 2.562473 0
M  V30 9 C 2.159133 1.762992 1.254670 0
M  V30 10 N 0.923324 1.282426 0.921602 0
M  V30 11 C 0.392473 1.514265 -0.289601 0
M  V30 12 C -0.919273 1.034764 -0.719067 0
M  V30 13 O -1.392212 1.261604 -1.845298 0
M  V30 14 N -1.783433 0.262491 0.107091 0
M  V30 15 C -2.979265 -0.055371 -0.574696 0
M  V30 16 C -4.029953 0.799552 -0.474363 0
M  V30 17 N -5.162726 0.509810 -1.114482 0
M  V30 18 C -5.251559 -0.605917 -1.839786 0
M  V30 19 C -4.200233 -1.484862 -1.954638 0
M  V30 20 C -2.979554 -1.246838 -1.310695 0
M  V30 21 C -1.791644 -2.129798 -1.370901 0 CFG=1
M  V30 22 C -1.887636 -3.125975 -0.260692 0
M  V30 23 C -0.722846 -4.064348 -0.180729 0 CFG=1
M  V30 24 N -1.202800 -5.307559 0.402101 0
M  V30 25 C -0.079586 -4.354221 -1.489449 0 CFG=2
M  V30 26 O 1.104521 -3.626554 -1.599629 0
M  V30 27 C -0.937540 -4.079881 -2.697400 0 CFG=1
M  V30 28 C -2.063429 -5.101381 -2.819039 0
M  V30 29 C -1.519979 -2.710759 -2.724220 0
M  V30 30 C 1.119443 2.251880 -1.202409 0
M  V30 31 C 2.371793 2.769312 -0.939159 0
M  V30 32 C 2.873171 2.500968 0.325179 0
M  V30 33 F 4.113706 2.986455 0.652000 0
M  V30 34 C 2.506686 2.385940 3.631086 0
M  V30 35 F 1.741571 3.467105 3.341475 0
M  V30 36 H 3.154146 1.937314 7.511339 0
M  V30 37 H 4.259691 3.358504 7.213880 0
M  V30 38 H 2.542951 3.635311 7.769201 0
M  V30 39 H 4.214719 0.885204 6.115441 0
M  V30 40 H 4.659575 -0.744433 4.269032 0
M  V30 41 H -1.465322 0.016253 1.092619 0
M  V30 42 H -3.945959 1.702665 0.117681 0
M  V30 43 H -6.164115 -0.871928 -2.375624 0
M  V30 44 H -4.271816 -2.380348 -2.536249 0
M  V30 45 H -0.922281 -1.454875 -1.112778 0
M  V30 46 H -1.938006 -2.547839 0.684666 0
M  V30 47 H -2.806864 -3.739083 -0.423878 0
M  V30 48 H 0.038430 -3.682761 0.560163 0
M  V30 49 H -0.764331 -6.157458 -0.018027 0
M  V30 50 H -2.238565 -5.400958 0.204616 0
M  V30 51 H 0.227717 -5.435730 -1.570594 0
M  V30 52 H 1.144716 -2.874578 -0.965391 0
M  V30 53 H -0.291537 -4.203197 -3.590914 0
M  V30 54 H -2.133516 -5.470092 -3.882659 0
M  V30 55 H -1.942208 -5.937288 -2.115245 0
M  V30 56 H -3.057590 -4.647010 -2.629857 0
M  V30 57 H -2.442281 -2.766972 -3.339313 0
M  V30 58 H -0.794073 -2.047646 -3.281128 0
M  V30 59 H 0.722470 2.459152 -2.190882 0
M  V30 60 H 2.929399 3.346855 -1.667828 0
M  V30 END ATOM
M  V30 BEGIN BOND
M  V30 1 1 1 2
M  V30 2 1 2 3
M  V30 3 2 3 4
M  V30 4 1 4 5
M  V30 5 2 5 6
M  V30 6 1 6 7
M  V30 7 1 6 8
M  V30 8 1 8 9
M  V30 9 2 9 10
M  V30 10 1 10 11
M  V30 11 1 11 12
M  V30 12 2 12 13
M  V30 13 1 12 14
M  V30 14 1 14 15
M  V30 15 2 15 16
M  V30 16 1 16 17
M  V30 17 2 17 18
M  V30 18 1 18 19
M  V30 19 2 19 20
M  V30 20 1 20 21
M  V30 21 1 21 22
M  V30 22 1 22 23
M  V30 23 1 23 24
M  V30 24 1 23 25
M  V30 25 1 25 26
M  V30 26 1 25 27
M  V30 27 1 27 28
M  V30 28 1 27 29
M  V30 29 2 11 30
M  V30 30 1 30 31
M  V30 31 2 31 32
M  V30 32 1 32 33
M  V30 33 2 8 34
M  V30 34 1 34 35
M  V30 35 1 34 3
M  V30 36 1 32 9
M  V30 37 1 20 15
M  V30 38 1 29 21
M  V30 39 1 1 36
M  V30 40 1 1 37
M  V30 41 1 1 38
M  V30 42 1 4 39
M  V30 43 1 5 40
M  V30 44 1 14 41
M  V30 45 1 16 42
M  V30 46 1 18 43
M  V30 47 1 19 44
M  V30 48 1 21 45 CFG=1
M  V30 49 1 22 46
M  V30 50 1 22 47
M  V30 51 1 23 48 CFG=1
M  V30 52 1 24 49
M  V30 53 1 24 50
M  V30 54 1 25 51 CFG=1
M  V30 55 1 26 52
M  V30 56 1 27 53 CFG=3
M  V30 57 1 28 54
M  V30 58 1 28 55
M  V30 59 1 28 56
M  V30 60 1 29 57
M  V30 61 1 29 58
M  V30 62 1 30 59
M  V30 63 1 31 60
M  V30 END BOND
M  V30 END CTAB
M  END
>  <Dataset>  (386) 
ChEMBL_Kinases

>  <Ligand_Instance>  (386) 
nan

>  <PDB_ID>  (386) 
nan

>  <Standardized_SMILES>  (386) 
COc1ccc(F)c(-c2nc(C(=O)Nc3cnccc3[C@H]3C[C@@H](N)[C@H](O)[C@@H](C)C3)ccc2F)c1F

>  <Name>  (386) 
nan

>  <Pocket>  (386) 
nan

>  <ATP_Site>  (386) 
nan

>  <Peripheral>  (386) 
nan

>  <Num_H_Atoms_ProtBoundConf>  (386) 
nan

>  <Num_Resolved_Atoms>  (386) 
nan

>  <Num_Not_Resolved_Atoms>  (386) 
nan

$$$$
CHEMBL3651944
     RDKit          3D

  0  0  0  0  0  0  0  0  0  0999 V3000
M  V30 BEGIN CTAB
M  V30 COUNTS 52 55 0 0 0
M  V30 BEGIN ATOM
M  V30 1 N 4.406239 -2.049465 1.846495 0
M  V30 2 C 3.271328 -1.283605 2.245937 0 CFG=1
M  V30 3 C 3.299468 -0.887045 3.703549 0
M  V30 4 C 2.062314 -0.146011 4.078216 0
M  V30 5 C 1.282134 0.488852 3.003787 0
M  V30 6 C 1.842771 0.518849 1.630145 0 CFG=1
M  V30 7 C 1.595751 1.775061 0.881703 0
M  V30 8 C 2.482726 2.829899 0.938932 0
M  V30 9 C 2.290693 4.002495 0.264147 0
M  V30 10 N 1.178882 4.135491 -0.495628 0
M  V30 11 C 0.291240 3.128894 -0.576076 0
M  V30 12 C 0.474000 1.951389 0.095216 0
M  V30 13 N -0.497397 0.918071 -0.025096 0
M  V30 14 C -1.612121 0.796759 0.842750 0
M  V30 15 O -1.695185 1.674306 1.745219 0
M  V30 16 C -2.608897 -0.278614 0.705071 0
M  V30 17 C -3.643239 -0.312032 1.584700 0
M  V30 18 C -4.531348 -1.343931 1.392105 0
M  V30 19 C -4.321886 -2.230496 0.369947 0
M  V30 20 C -3.269041 -2.176239 -0.506264 0
M  V30 21 C -2.969729 -3.066159 -1.610658 0
M  V30 22 C -1.844824 -2.815851 -2.364328 0
M  V30 23 C -1.465911 -3.590875 -3.430345 0
M  V30 24 F -0.351310 -3.305636 -4.141905 0
M  V30 25 C -2.195098 -4.677492 -3.815405 0
M  V30 26 C -3.325853 -4.965034 -3.091766 0
M  V30 27 F -4.082815 -6.033198 -3.435004 0
M  V30 28 C -3.675671 -4.166929 -2.029564 0
M  V30 29 F -4.792428 -4.503336 -1.364464 0
M  V30 30 N -2.431068 -1.154477 -0.279107 0
M  V30 31 C 3.289311 0.079994 1.533934 0
M  V30 32 H 4.321323 -3.056629 2.012608 0
M  V30 33 H 4.654671 -1.811193 0.851512 0
M  V30 34 H 2.310266 -1.813524 2.072790 0
M  V30 35 H 4.171024 -0.181736 3.812068 0
M  V30 36 H 3.522806 -1.745605 4.367354 0
M  V30 37 H 2.298417 0.572768 4.918120 0
M  V30 38 H 1.406805 -0.904531 4.600609 0
M  V30 39 H 1.126933 1.574100 3.288894 0
M  V30 40 H 0.218041 0.103563 2.995286 0
M  V30 41 H 1.287517 -0.271560 1.042042 0
M  V30 42 H 3.372974 2.721210 1.548394 0
M  V30 43 H 2.967716 4.844499 0.290386 0
M  V30 44 H -0.597711 3.237513 -1.184613 0
M  V30 45 H -0.412522 0.191937 -0.786083 0
M  V30 46 H -3.806268 0.389788 2.391414 0
M  V30 47 H -5.393189 -1.459662 2.041980 0
M  V30 48 H -5.036901 -3.020090 0.253844 0
M  V30 49 H -1.184681 -1.970814 -2.146779 0
M  V30 50 H -1.885104 -5.275878 -4.653815 0
M  V30 51 H 3.978088 0.768512 2.067112 0
M  V30 52 H 3.591100 -0.102847 0.504324 0
M  V30 END ATOM
M  V30 BEGIN BOND
M  V30 1 1 1 2
M  V30 2 1 2 3
M  V30 3 1 3 4
M  V30 4 1 4 5
M  V30 5 1 5 6
M  V30 6 1 6 7
M  V30 7 2 7 8
M  V30 8 1 8 9
M  V30 9 2 9 10
M  V30 10 1 10 11
M  V30 11 2 11 12
M  V30 12 1 12 13
M  V30 13 1 13 14
M  V30 14 2 14 15
M  V30 15 1 14 16
M  V30 16 2 16 17
M  V30 17 1 17 18
M  V30 18 2 18 19
M  V30 19 1 19 20
M  V30 20 1 20 21
M  V30 21 2 21 22
M  V30 22 1 22 23
M  V30 23 1 23 24
M  V30 24 2 23 25
M  V30 25 1 25 26
M  V30 26 1 26 27
M  V30 27 2 26 28
M  V30 28 1 28 29
M  V30 29 2 20 30
M  V30 30 1 6 31
M  V30 31 1 31 2
M  V30 32 1 12 7
M  V30 33 1 30 16
M  V30 34 1 28 21
M  V30 35 1 1 32
M  V30 36 1 1 33
M  V30 37 1 2 34 CFG=1
M  V30 38 1 3 35
M  V30 39 1 3 36
M  V30 40 1 4 37
M  V30 41 1 4 38
M  V30 42 1 5 39
M  V30 43 1 5 40
M  V30 44 1 6 41 CFG=3
M  V30 45 1 8 42
M  V30 46 1 9 43
M  V30 47 1 11 44
M  V30 48 1 13 45
M  V30 49 1 17 46
M  V30 50 1 18 47
M  V30 51 1 19 48
M  V30 52 1 22 49
M  V30 53 1 25 50
M  V30 54 1 31 51
M  V30 55 1 31 52
M  V30 END BOND
M  V30 END CTAB
M  END
>  <Dataset>  (387) 
ChEMBL_Kinases

>  <Ligand_Instance>  (387) 
nan

>  <PDB_ID>  (387) 
nan

>  <Standardized_SMILES>  (387) 
N[C@H]1CCC[C@@H](c2ccncc2NC(=O)c2cccc(-c3cc(F)cc(F)c3F)n2)C1

>  <Name>  (387) 
nan

>  <Pocket>  (387) 
nan

>  <ATP_Site>  (387) 
nan

>  <Peripheral>  (387) 
nan

>  <Num_H_Atoms_ProtBoundConf>  (387) 
nan

>  <Num_Resolved_Atoms>  (387) 
nan

>  <Num_Not_Resolved_Atoms>  (387) 
nan

$$$$
CHEMBL3651945
     RDKit          3D

  0  0  0  0  0  0  0  0  0  0999 V3000
M  V30 BEGIN CTAB
M  V30 COUNTS 58 61 0 0 0
M  V30 BEGIN ATOM
M  V30 1 C 3.274339 -1.469130 3.942396 0
M  V30 2 C 1.791539 -1.494548 3.655963 0
M  V30 3 C 1.122699 -1.772885 5.010720 0
M  V30 4 C 1.453194 -2.631233 2.750737 0
M  V30 5 C 1.641303 -2.377192 1.294622 0 CFG=2
M  V30 6 N 2.398122 -3.421214 0.634268 0
M  V30 7 C 2.207264 -1.015252 1.015922 0
M  V30 8 C 1.326969 0.010679 1.704285 0 CFG=2
M  V30 9 C 1.660520 1.379985 1.264777 0
M  V30 10 C 2.692159 2.002034 1.974826 0
M  V30 11 C 3.180262 3.293477 1.740012 0
M  V30 12 N 2.578722 3.983777 0.722650 0
M  V30 13 C 1.573788 3.385848 0.025399 0
M  V30 14 C 1.092147 2.119909 0.252120 0
M  V30 15 N 0.056026 1.528724 -0.491300 0
M  V30 16 C -0.702872 2.073496 -1.553395 0
M  V30 17 O -0.486461 3.246013 -1.952825 0
M  V30 18 C -1.765279 1.371144 -2.265415 0
M  V30 19 C -2.480685 1.936039 -3.293591 0
M  V30 20 C -3.483791 1.262532 -3.960365 0
M  V30 21 C -3.802097 -0.041456 -3.595500 0
M  V30 22 F -4.792503 -0.669850 -4.273173 0
M  V30 23 C -3.062362 -0.584545 -2.554049 0
M  V30 24 C -3.439340 -1.956964 -2.212873 0
M  V30 25 C -4.381532 -2.396833 -1.305582 0
M  V30 26 F -5.024241 -1.392456 -0.662808 0
M  V30 27 C -4.573627 -3.740305 -1.143548 0
M  V30 28 C -3.871752 -4.688685 -1.842777 0
M  V30 29 C -2.921034 -4.254718 -2.758459 0
M  V30 30 C -2.712443 -2.903362 -2.936374 0
M  V30 31 F -1.756967 -2.615712 -3.859357 0
M  V30 32 N -2.095986 0.124705 -1.943624 0
M  V30 33 C 1.242328 -0.172932 3.188161 0
M  V30 34 H 3.781704 -2.141541 3.188941 0
M  V30 35 H 3.532489 -1.894165 4.949375 0
M  V30 36 H 3.712730 -0.459995 3.943021 0
M  V30 37 H 1.456645 -2.707103 5.466054 0
M  V30 38 H 0.028058 -1.773301 4.796788 0
M  V30 39 H 1.321959 -0.866036 5.612227 0
M  V30 40 H 0.424946 -3.003496 2.981775 0
M  V30 41 H 2.132499 -3.480739 3.054943 0
M  V30 42 H 0.627145 -2.406597 0.816989 0
M  V30 43 H 1.794273 -4.238482 0.449705 0
M  V30 44 H 3.281824 -3.657590 1.122576 0
M  V30 45 H 3.272383 -0.896832 1.207152 0
M  V30 46 H 2.036554 -0.841309 -0.086160 0
M  V30 47 H 0.292277 -0.212194 1.309236 0
M  V30 48 H 3.268725 1.588650 2.793749 0
M  V30 49 H 3.970283 3.783473 2.276413 0
M  V30 50 H 1.202174 4.031307 -0.729636 0
M  V30 51 H -0.283594 0.563717 -0.336574 0
M  V30 52 H -2.237632 2.959051 -3.586629 0
M  V30 53 H -3.994100 1.799112 -4.764429 0
M  V30 54 H -5.327171 -3.996249 -0.416169 0
M  V30 55 H -4.081752 -5.749175 -1.658174 0
M  V30 56 H -2.375566 -5.024458 -3.302473 0
M  V30 57 H 0.159894 -0.156081 3.526965 0
M  V30 58 H 1.809449 0.623091 3.699760 0
M  V30 END ATOM
M  V30 BEGIN BOND
M  V30 1 1 1 2
M  V30 2 1 2 3
M  V30 3 1 2 4
M  V30 4 1 4 5
M  V30 5 1 5 6
M  V30 6 1 5 7
M  V30 7 1 7 8
M  V30 8 1 8 9
M  V30 9 2 9 10
M  V30 10 1 10 11
M  V30 11 2 11 12
M  V30 12 1 12 13
M  V30 13 2 13 14
M  V30 14 1 14 15
M  V30 15 1 15 16
M  V30 16 2 16 17
M  V30 17 1 16 18
M  V30 18 2 18 19
M  V30 19 1 19 20
M  V30 20 2 20 21
M  V30 21 1 21 22
M  V30 22 1 21 23
M  V30 23 1 23 24
M  V30 24 2 24 25
M  V30 25 1 25 26
M  V30 26 1 25 27
M  V30 27 2 27 28
M  V30 28 1 28 29
M  V30 29 2 29 30
M  V30 30 1 30 31
M  V30 31 2 23 32
M  V30 32 1 8 33
M  V30 33 1 33 2
M  V30 34 1 14 9
M  V30 35 1 32 18
M  V30 36 1 30 24
M  V30 37 1 1 34
M  V30 38 1 1 35
M  V30 39 1 1 36
M  V30 40 1 3 37
M  V30 41 1 3 38
M  V30 42 1 3 39
M  V30 43 1 4 40
M  V30 44 1 4 41
M  V30 45 1 5 42 CFG=3
M  V30 46 1 6 43
M  V30 47 1 6 44
M  V30 48 1 7 45
M  V30 49 1 7 46
M  V30 50 1 8 47 CFG=3
M  V30 51 1 10 48
M  V30 52 1 11 49
M  V30 53 1 13 50
M  V30 54 1 15 51
M  V30 55 1 19 52
M  V30 56 1 20 53
M  V30 57 1 27 54
M  V30 58 1 28 55
M  V30 59 1 29 56
M  V30 60 1 33 57
M  V30 61 1 33 58
M  V30 END BOND
M  V30 END CTAB
M  END
>  <Dataset>  (388) 
ChEMBL_Kinases

>  <Ligand_Instance>  (388) 
nan

>  <PDB_ID>  (388) 
nan

>  <Standardized_SMILES>  (388) 
CC1(C)C[C@H](N)C[C@H](c2ccncc2NC(=O)c2ccc(F)c(-c3c(F)cccc3F)n2)C1

>  <Name>  (388) 
nan

>  <Pocket>  (388) 
nan

>  <ATP_Site>  (388) 
nan

>  <Peripheral>  (388) 
nan

>  <Num_H_Atoms_ProtBoundConf>  (388) 
nan

>  <Num_Resolved_Atoms>  (388) 
nan

>  <Num_Not_Resolved_Atoms>  (388) 
nan

$$$$
CHEMBL3651936
     RDKit          3D

  0  0  0  0  0  0  0  0  0  0999 V3000
M  V30 BEGIN CTAB
M  V30 COUNTS 59 62 0 0 0
M  V30 BEGIN ATOM
M  V30 1 C 3.105760 -1.754506 5.740300 0
M  V30 2 C 2.345773 -0.562340 5.239400 0
M  V30 3 C 1.218413 -0.102358 5.918774 0
M  V30 4 C 0.530163 0.997779 5.442768 0
M  V30 5 C 0.945433 1.654769 4.294050 0
M  V30 6 F 0.322234 2.746690 3.759000 0
M  V30 7 C 2.061760 1.201419 3.619026 0
M  V30 8 C 2.604626 1.811227 2.387875 0
M  V30 9 N 2.141731 1.347380 1.212461 0
M  V30 10 C 2.583580 1.847987 0.048979 0
M  V30 11 C 2.059904 1.320819 -1.206004 0
M  V30 12 O 2.522746 1.841378 -2.237066 0
M  V30 13 N 1.099823 0.297739 -1.292831 0
M  V30 14 C 0.529271 -0.281625 -2.447540 0
M  V30 15 C 0.778849 0.074775 -3.748655 0
M  V30 16 N 0.229793 -0.473380 -4.840179 0
M  V30 17 C -0.675501 -1.491610 -4.720500 0
M  V30 18 C -0.953023 -1.880596 -3.405127 0
M  V30 19 C -0.377114 -1.304703 -2.286315 0
M  V30 20 C -0.808987 -1.896740 -0.989047 0 CFG=1
M  V30 21 C -1.856452 -1.001712 -0.408279 0
M  V30 22 C -3.070707 -1.660355 0.137900 0 CFG=1
M  V30 23 N -4.129792 -0.676763 0.263926 0
M  V30 24 C -3.566619 -2.727626 -0.812324 0 CFG=1
M  V30 25 O -4.001177 -2.250345 -2.022679 0
M  V30 26 C -2.514649 -3.779197 -0.859564 0 CFG=1
M  V30 27 C -2.972003 -4.790891 -1.922371 0
M  V30 28 C -1.119860 -3.336163 -1.060026 0
M  V30 29 C 3.523614 2.848787 0.112436 0
M  V30 30 C 4.001699 3.327982 1.321229 0
M  V30 31 C 3.548638 2.814484 2.520868 0
M  V30 32 F 3.980807 3.244802 3.726016 0
M  V30 33 C 2.747962 0.101625 4.096779 0
M  V30 34 F 3.850735 -0.380064 3.466667 0
M  V30 35 H 4.184020 -1.550942 5.586813 0
M  V30 36 H 2.802863 -2.629827 5.111866 0
M  V30 37 H 2.848363 -1.907496 6.796113 0
M  V30 38 H 0.865776 -0.598250 6.826857 0
M  V30 39 H -0.354639 1.403286 5.927562 0
M  V30 40 H 0.828661 -0.004590 -0.335861 0
M  V30 41 H 1.472625 0.863927 -3.970896 0
M  V30 42 H -1.109069 -1.923221 -5.596569 0
M  V30 43 H -1.668608 -2.679151 -3.394800 0
M  V30 44 H 0.101611 -1.799758 -0.330075 0
M  V30 45 H -1.446943 -0.351722 0.409980 0
M  V30 46 H -2.232917 -0.268608 -1.185833 0
M  V30 47 H -2.932457 -2.146857 1.114086 0
M  V30 48 H -4.570376 -0.699891 1.206915 0
M  V30 49 H -4.829269 -0.714183 -0.508680 0
M  V30 50 H -4.483281 -3.169177 -0.320046 0
M  V30 51 H -4.957659 -2.392913 -2.212227 0
M  V30 52 H -2.634530 -4.371278 0.102075 0
M  V30 53 H -3.418392 -4.199791 -2.775179 0
M  V30 54 H -3.831216 -5.368125 -1.524216 0
M  V30 55 H -2.146007 -5.436839 -2.254318 0
M  V30 56 H -0.653626 -3.736942 -1.996520 0
M  V30 57 H -0.503103 -3.859355 -0.263003 0
M  V30 58 H 3.905187 3.278499 -0.790147 0
M  V30 59 H 4.744423 4.119600 1.335705 0
M  V30 END ATOM
M  V30 BEGIN BOND
M  V30 1 1 1 2
M  V30 2 2 2 3
M  V30 3 1 3 4
M  V30 4 2 4 5
M  V30 5 1 5 6
M  V30 6 1 5 7
M  V30 7 1 7 8
M  V30 8 2 8 9
M  V30 9 1 9 10
M  V30 10 1 10 11
M  V30 11 2 11 12
M  V30 12 1 11 13
M  V30 13 1 13 14
M  V30 14 2 14 15
M  V30 15 1 15 16
M  V30 16 2 16 17
M  V30 17 1 17 18
M  V30 18 2 18 19
M  V30 19 1 19 20
M  V30 20 1 20 21
M  V30 21 1 21 22
M  V30 22 1 22 23
M  V30 23 1 22 24
M  V30 24 1 24 25
M  V30 25 1 24 26
M  V30 26 1 26 27
M  V30 27 1 26 28
M  V30 28 2 10 29
M  V30 29 1 29 30
M  V30 30 2 30 31
M  V30 31 1 31 32
M  V30 32 2 7 33
M  V30 33 1 33 34
M  V30 34 1 33 2
M  V30 35 1 31 8
M  V30 36 1 19 14
M  V30 37 1 28 20
M  V30 38 1 1 35
M  V30 39 1 1 36
M  V30 40 1 1 37
M  V30 41 1 3 38
M  V30 42 1 4 39
M  V30 43 1 13 40
M  V30 44 1 15 41
M  V30 45 1 17 42
M  V30 46 1 18 43
M  V30 47 1 20 44 CFG=1
M  V30 48 1 21 45
M  V30 49 1 21 46
M  V30 50 1 22 47 CFG=1
M  V30 51 1 23 48
M  V30 52 1 23 49
M  V30 53 1 24 50 CFG=1
M  V30 54 1 25 51
M  V30 55 1 26 52 CFG=1
M  V30 56 1 27 53
M  V30 57 1 27 54
M  V30 58 1 27 55
M  V30 59 1 28 56
M  V30 60 1 28 57
M  V30 61 1 29 58
M  V30 62 1 30 59
M  V30 END BOND
M  V30 END CTAB
M  END
>  <Dataset>  (389) 
ChEMBL_Kinases

>  <Ligand_Instance>  (389) 
nan

>  <PDB_ID>  (389) 
nan

>  <Standardized_SMILES>  (389) 
Cc1ccc(F)c(-c2nc(C(=O)Nc3cnccc3[C@H]3C[C@@H](N)[C@@H](O)[C@@H](C)C3)ccc2F)c1F

>  <Name>  (389) 
nan

>  <Pocket>  (389) 
nan

>  <ATP_Site>  (389) 
nan

>  <Peripheral>  (389) 
nan

>  <Num_H_Atoms_ProtBoundConf>  (389) 
nan

>  <Num_Resolved_Atoms>  (389) 
nan

>  <Num_Not_Resolved_Atoms>  (389) 
nan

$$$$
CHEMBL3651907
     RDKit          3D

  0  0  0  0  0  0  0  0  0  0999 V3000
M  V30 BEGIN CTAB
M  V30 COUNTS 61 64 0 0 0
M  V30 BEGIN ATOM
M  V30 1 C 5.478034 2.132920 3.412129 0
M  V30 2 C 4.838801 1.539392 2.220305 0
M  V30 3 C 5.455786 0.419617 1.702826 0
M  V30 4 C 4.932494 -0.205330 0.590110 0
M  V30 5 C 3.781446 0.288702 -0.016139 0
M  V30 6 F 3.237332 -0.310552 -1.123287 0
M  V30 7 C 3.152611 1.424608 0.505973 0
M  V30 8 C 1.931444 1.957902 -0.128014 0
M  V30 9 N 0.835285 1.391166 0.418013 0
M  V30 10 C -0.421636 1.701349 0.020103 0
M  V30 11 C -1.614258 1.085829 0.612907 0
M  V30 12 O -2.750740 1.388483 0.229494 0
M  V30 13 N -1.381829 0.116579 1.658971 0
M  V30 14 C -2.504334 -0.511648 2.268988 0
M  V30 15 C -3.018457 0.183455 3.344517 0
M  V30 16 N -4.080417 -0.313814 4.000216 0
M  V30 17 C -4.617388 -1.483617 3.587824 0
M  V30 18 C -4.071781 -2.146337 2.507414 0
M  V30 19 C -2.966023 -1.694692 1.771439 0
M  V30 20 C -2.446321 -2.454053 0.653132 0 CFG=1
M  V30 21 C -3.100963 -2.010510 -0.637144 0
M  V30 22 C -2.973619 -3.172077 -1.597508 0 CFG=1
M  V30 23 N -2.812848 -2.720564 -2.968074 0
M  V30 24 C -1.920817 -4.141387 -1.178294 0
M  V30 25 C -0.678378 -3.537388 -0.609453 0
M  V30 26 C 0.150150 -2.997533 -1.752162 0
M  V30 27 C 0.146186 -4.673948 -0.006180 0
M  V30 28 C -0.970696 -2.476245 0.448738 0
M  V30 29 C -0.550276 2.639477 -0.987441 0
M  V30 30 C 0.554160 3.235457 -1.564221 0
M  V30 31 C 1.821287 2.896374 -1.134912 0
M  V30 32 F 3.016258 3.365487 -1.571385 0
M  V30 33 C 3.685489 2.044985 1.623289 0
M  V30 34 F 3.110228 3.154587 2.170548 0
M  V30 35 H 6.510258 2.458004 3.092738 0
M  V30 36 H 4.916318 2.947346 3.883110 0
M  V30 37 H 5.587392 1.335953 4.180693 0
M  V30 38 H 6.356871 -0.000695 2.144308 0
M  V30 39 H 5.338437 -1.084674 0.109100 0
M  V30 40 H -0.443856 -0.177479 2.022663 0
M  V30 41 H -2.613991 1.119549 3.699602 0
M  V30 42 H -5.469464 -1.883646 4.112770 0
M  V30 43 H -4.572959 -3.090035 2.242512 0
M  V30 44 H -2.810337 -3.523247 0.789085 0
M  V30 45 H -4.158768 -1.728417 -0.496359 0
M  V30 46 H -2.575023 -1.113307 -0.988147 0
M  V30 47 H -3.953854 -3.709480 -1.578570 0
M  V30 48 H -3.207449 -1.740578 -3.036524 0
M  V30 49 H -3.417738 -3.269737 -3.641850 0
M  V30 50 H -2.280040 -4.974886 -0.535074 0
M  V30 51 H -1.589283 -4.665618 -2.124109 0
M  V30 52 H -0.450597 -2.745492 -2.644350 0
M  V30 53 H 0.623500 -2.038105 -1.405357 0
M  V30 54 H 0.979019 -3.650234 -2.042736 0
M  V30 55 H 0.955598 -4.241371 0.642646 0
M  V30 56 H 0.594008 -5.279728 -0.793785 0
M  V30 57 H -0.487986 -5.287699 0.649733 0
M  V30 58 H -0.500721 -2.801212 1.371318 0
M  V30 59 H -0.618547 -1.542936 0.018136 0
M  V30 60 H -1.525685 2.935729 -1.355479 0
M  V30 61 H 0.540870 3.974705 -2.353364 0
M  V30 END ATOM
M  V30 BEGIN BOND
M  V30 1 1 1 2
M  V30 2 2 2 3
M  V30 3 1 3 4
M  V30 4 2 4 5
M  V30 5 1 5 6
M  V30 6 1 5 7
M  V30 7 1 7 8
M  V30 8 2 8 9
M  V30 9 1 9 10
M  V30 10 1 10 11
M  V30 11 2 11 12
M  V30 12 1 11 13
M  V30 13 1 13 14
M  V30 14 2 14 15
M  V30 15 1 15 16
M  V30 16 2 16 17
M  V30 17 1 17 18
M  V30 18 2 18 19
M  V30 19 1 19 20
M  V30 20 1 20 21
M  V30 21 1 21 22
M  V30 22 1 22 23
M  V30 23 1 22 24
M  V30 24 1 24 25
M  V30 25 1 25 26
M  V30 26 1 25 27
M  V30 27 1 25 28
M  V30 28 2 10 29
M  V30 29 1 29 30
M  V30 30 2 30 31
M  V30 31 1 31 32
M  V30 32 2 7 33
M  V30 33 1 33 34
M  V30 34 1 33 2
M  V30 35 1 31 8
M  V30 36 1 19 14
M  V30 37 1 28 20
M  V30 38 1 1 35
M  V30 39 1 1 36
M  V30 40 1 1 37
M  V30 41 1 3 38
M  V30 42 1 4 39
M  V30 43 1 13 40
M  V30 44 1 15 41
M  V30 45 1 17 42
M  V30 46 1 18 43
M  V30 47 1 20 44 CFG=1
M  V30 48 1 21 45
M  V30 49 1 21 46
M  V30 50 1 22 47 CFG=3
M  V30 51 1 23 48
M  V30 52 1 23 49
M  V30 53 1 24 50
M  V30 54 1 24 51
M  V30 55 1 26 52
M  V30 56 1 26 53
M  V30 57 1 26 54
M  V30 58 1 27 55
M  V30 59 1 27 56
M  V30 60 1 27 57
M  V30 61 1 28 58
M  V30 62 1 28 59
M  V30 63 1 29 60
M  V30 64 1 30 61
M  V30 END BOND
M  V30 END CTAB
M  END
>  <Dataset>  (390) 
ChEMBL_Kinases

>  <Ligand_Instance>  (390) 
nan

>  <PDB_ID>  (390) 
nan

>  <Standardized_SMILES>  (390) 
Cc1ccc(F)c(-c2nc(C(=O)Nc3cnccc3[C@H]3C[C@@H](N)CC(C)(C)C3)ccc2F)c1F

>  <Name>  (390) 
nan

>  <Pocket>  (390) 
nan

>  <ATP_Site>  (390) 
nan

>  <Peripheral>  (390) 
nan

>  <Num_H_Atoms_ProtBoundConf>  (390) 
nan

>  <Num_Resolved_Atoms>  (390) 
nan

>  <Num_Not_Resolved_Atoms>  (390) 
nan

$$$$
CHEMBL3651908
     RDKit          3D

  0  0  0  0  0  0  0  0  0  0999 V3000
M  V30 BEGIN CTAB
M  V30 COUNTS 61 64 0 0 0
M  V30 BEGIN ATOM
M  V30 1 C 3.758242 -3.290607 3.379703 0
M  V30 2 C 3.192210 -1.932145 3.630927 0
M  V30 3 C 2.589883 -1.587725 4.821394 0
M  V30 4 C 2.085482 -0.310878 4.989723 0
M  V30 5 C 2.201354 0.600721 3.940968 0
M  V30 6 F 1.665014 1.808752 4.245420 0
M  V30 7 C 2.811712 0.227546 2.754880 0
M  V30 8 C 2.809554 1.361199 1.809806 0
M  V30 9 C 3.797948 2.327965 1.688698 0
M  V30 10 C 3.618973 3.304126 0.752466 0
M  V30 11 C 2.511360 3.337155 -0.041007 0
M  V30 12 C 1.546256 2.367314 0.098764 0
M  V30 13 C 0.344780 2.365959 -0.730966 0
M  V30 14 O 0.245409 3.293813 -1.571908 0
M  V30 15 N -0.694365 1.403194 -0.648301 0
M  V30 16 C -1.898591 1.286455 -1.381659 0
M  V30 17 C -2.291472 2.218711 -2.291422 0
M  V30 18 N -3.421433 2.180355 -3.009389 0
M  V30 19 C -4.251600 1.114623 -2.812180 0
M  V30 20 C -3.849291 0.155752 -1.878380 0
M  V30 21 C -2.674587 0.154262 -1.104538 0
M  V30 22 C -2.415724 -0.938993 -0.188392 0 CFG=1
M  V30 23 C -3.512219 -1.994493 -0.323976 0
M  V30 24 C -3.189812 -2.824214 -1.525771 0 CFG=1
M  V30 25 N -2.490426 -2.125355 -2.587962 0
M  V30 26 C -2.147221 -3.827399 -1.004180 0
M  V30 27 C -1.097852 -3.135700 -0.208558 0
M  V30 28 C 0.254951 -3.571692 -0.736651 0
M  V30 29 C -1.189251 -3.655553 1.232513 0
M  V30 30 C -1.114730 -1.630124 -0.224895 0
M  V30 31 N 1.726699 1.417900 1.013751 0
M  V30 32 C 3.309739 -1.043637 2.597459 0
M  V30 33 F 3.872328 -1.243328 1.383273 0
M  V30 34 H 4.849531 -3.246369 3.511387 0
M  V30 35 H 3.282361 -4.018691 4.080866 0
M  V30 36 H 3.538230 -3.571044 2.337734 0
M  V30 37 H 2.515776 -2.324635 5.621127 0
M  V30 38 H 1.620399 -0.093833 5.949924 0
M  V30 39 H 4.625391 2.221755 2.349328 0
M  V30 40 H 4.393436 4.063119 0.656350 0
M  V30 41 H 2.382718 4.118801 -0.780533 0
M  V30 42 H -0.430157 0.747786 0.102954 0
M  V30 43 H -1.733859 3.107879 -2.541986 0
M  V30 44 H -5.165253 1.089266 -3.395859 0
M  V30 45 H -4.633151 -0.592453 -1.865427 0
M  V30 46 H -2.590808 -0.522718 0.854892 0
M  V30 47 H -4.525001 -1.617609 -0.239380 0
M  V30 48 H -3.431831 -2.679305 0.591630 0
M  V30 49 H -4.028504 -3.367490 -1.962909 0
M  V30 50 H -1.589703 -2.560375 -2.868044 0
M  V30 51 H -3.063033 -2.124908 -3.481873 0
M  V30 52 H -1.762862 -4.367931 -1.892348 0
M  V30 53 H -2.729397 -4.557263 -0.404891 0
M  V30 54 H 0.207220 -3.802660 -1.832933 0
M  V30 55 H 1.017502 -2.772176 -0.643202 0
M  V30 56 H 0.653204 -4.471716 -0.261419 0
M  V30 57 H -0.190695 -4.013563 1.600456 0
M  V30 58 H -1.835343 -4.556817 1.293198 0
M  V30 59 H -1.461310 -2.854973 1.950311 0
M  V30 60 H -0.531106 -1.410315 0.728534 0
M  V30 61 H -0.514889 -1.296333 -1.092067 0
M  V30 END ATOM
M  V30 BEGIN BOND
M  V30 1 1 1 2
M  V30 2 2 2 3
M  V30 3 1 3 4
M  V30 4 2 4 5
M  V30 5 1 5 6
M  V30 6 1 5 7
M  V30 7 1 7 8
M  V30 8 2 8 9
M  V30 9 1 9 10
M  V30 10 2 10 11
M  V30 11 1 11 12
M  V30 12 1 12 13
M  V30 13 2 13 14
M  V30 14 1 13 15
M  V30 15 1 15 16
M  V30 16 2 16 17
M  V30 17 1 17 18
M  V30 18 2 18 19
M  V30 19 1 19 20
M  V30 20 2 20 21
M  V30 21 1 21 22
M  V30 22 1 22 23
M  V30 23 1 23 24
M  V30 24 1 24 25
M  V30 25 1 24 26
M  V30 26 1 26 27
M  V30 27 1 27 28
M  V30 28 1 27 29
M  V30 29 1 27 30
M  V30 30 2 12 31
M  V30 31 2 7 32
M  V30 32 1 32 33
M  V30 33 1 32 2
M  V30 34 1 31 8
M  V30 35 1 21 16
M  V30 36 1 30 22
M  V30 37 1 1 34
M  V30 38 1 1 35
M  V30 39 1 1 36
M  V30 40 1 3 37
M  V30 41 1 4 38
M  V30 42 1 9 39
M  V30 43 1 10 40
M  V30 44 1 11 41
M  V30 45 1 15 42
M  V30 46 1 17 43
M  V30 47 1 19 44
M  V30 48 1 20 45
M  V30 49 1 22 46 CFG=1
M  V30 50 1 23 47
M  V30 51 1 23 48
M  V30 52 1 24 49 CFG=3
M  V30 53 1 25 50
M  V30 54 1 25 51
M  V30 55 1 26 52
M  V30 56 1 26 53
M  V30 57 1 28 54
M  V30 58 1 28 55
M  V30 59 1 28 56
M  V30 60 1 29 57
M  V30 61 1 29 58
M  V30 62 1 29 59
M  V30 63 1 30 60
M  V30 64 1 30 61
M  V30 END BOND
M  V30 END CTAB
M  END
>  <Dataset>  (391) 
ChEMBL_Kinases

>  <Ligand_Instance>  (391) 
nan

>  <PDB_ID>  (391) 
nan

>  <Standardized_SMILES>  (391) 
Cc1ccc(F)c(-c2cccc(C(=O)Nc3cnccc3[C@H]3C[C@@H](N)CC(C)(C)C3)n2)c1F

>  <Name>  (391) 
nan

>  <Pocket>  (391) 
nan

>  <ATP_Site>  (391) 
nan

>  <Peripheral>  (391) 
nan

>  <Num_H_Atoms_ProtBoundConf>  (391) 
nan

>  <Num_Resolved_Atoms>  (391) 
nan

>  <Num_Not_Resolved_Atoms>  (391) 
nan

$$$$
CHEMBL3651909
     RDKit          3D

  0  0  0  0  0  0  0  0  0  0999 V3000
M  V30 BEGIN CTAB
M  V30 COUNTS 58 61 0 0 0
M  V30 BEGIN ATOM
M  V30 1 C 3.705052 -3.282948 4.168960 0
M  V30 2 C 3.531928 -1.799840 4.174972 0
M  V30 3 C 3.556815 -1.136533 5.379370 0
M  V30 4 C 3.400967 0.237470 5.438197 0
M  V30 5 C 3.217797 0.966550 4.289318 0
M  V30 6 F 3.052195 2.306817 4.187173 0
M  V30 7 C 3.188942 0.322037 3.064081 0
M  V30 8 C 3.009526 0.886823 1.731929 0
M  V30 9 C 4.004959 1.331191 0.892717 0
M  V30 10 C 3.738687 1.851796 -0.353775 0
M  V30 11 C 2.418706 1.920349 -0.754126 0
M  V30 12 C 1.423380 1.474670 0.088125 0
M  V30 13 C 0.087580 1.612048 -0.473460 0
M  V30 14 O -0.208640 2.079169 -1.602221 0
M  V30 15 N -1.018293 1.181721 0.312858 0
M  V30 16 C -2.422970 1.074211 0.301802 0
M  V30 17 C -2.990508 2.255804 0.783517 0
M  V30 18 N -4.330450 2.439407 0.898045 0
M  V30 19 C -5.132740 1.422480 0.524384 0
M  V30 20 C -4.547925 0.266900 0.052235 0
M  V30 21 C -3.207376 0.018571 -0.087723 0
M  V30 22 N -2.621488 -1.151692 -0.575108 0
M  V30 23 C -3.381929 -2.348795 -0.848665 0
M  V30 24 C -3.277189 -2.861864 -2.244517 0 CFG=1
M  V30 25 N -4.221274 -2.255081 -3.153985 0
M  V30 26 C -1.845894 -2.761118 -2.704340 0 CFG=2
M  V30 27 O -1.489095 -3.807819 -3.548677 0
M  V30 28 C -0.992995 -2.716317 -1.460420 0 CFG=1
M  V30 29 C 0.485705 -2.785696 -1.789008 0
M  V30 30 C -1.237254 -1.318001 -0.873214 0
M  V30 31 N 1.717325 0.971428 1.299771 0
M  V30 32 C 3.347185 -1.059501 3.023040 0
M  V30 33 F 3.338691 -1.817557 1.880631 0
M  V30 34 H 4.779274 -3.486866 4.255950 0
M  V30 35 H 3.174700 -3.744442 5.007083 0
M  V30 36 H 3.294301 -3.721767 3.213970 0
M  V30 37 H 3.698629 -1.676598 6.302257 0
M  V30 38 H 3.410312 0.822555 6.352392 0
M  V30 39 H 5.031423 1.245787 1.277812 0
M  V30 40 H 4.546584 2.189646 -0.982469 0
M  V30 41 H 2.237758 2.334727 -1.740601 0
M  V30 42 H -0.822343 0.791787 1.265320 0
M  V30 43 H -2.453611 3.157045 1.120181 0
M  V30 44 H -6.204626 1.555388 0.610580 0
M  V30 45 H -5.278733 -0.478879 -0.220158 0
M  V30 46 H -3.098023 -3.132948 -0.079678 0
M  V30 47 H -4.482147 -2.215277 -0.646236 0
M  V30 48 H -3.495341 -3.962259 -2.205815 0
M  V30 49 H -4.319446 -2.918975 -3.971648 0
M  V30 50 H -3.927975 -1.319242 -3.489741 0
M  V30 51 H -1.772978 -1.768027 -3.235034 0
M  V30 52 H -0.647443 -3.522448 -4.027801 0
M  V30 53 H -1.265236 -3.524649 -0.762440 0
M  V30 54 H 0.865553 -1.774309 -2.048493 0
M  V30 55 H 0.739378 -3.567810 -2.523848 0
M  V30 56 H 0.984838 -3.016763 -0.802710 0
M  V30 57 H -1.008072 -0.656448 -1.766825 0
M  V30 58 H -0.541585 -1.163759 -0.036672 0
M  V30 END ATOM
M  V30 BEGIN BOND
M  V30 1 1 1 2
M  V30 2 2 2 3
M  V30 3 1 3 4
M  V30 4 2 4 5
M  V30 5 1 5 6
M  V30 6 1 5 7
M  V30 7 1 7 8
M  V30 8 2 8 9
M  V30 9 1 9 10
M  V30 10 2 10 11
M  V30 11 1 11 12
M  V30 12 1 12 13
M  V30 13 2 13 14
M  V30 14 1 13 15
M  V30 15 1 15 16
M  V30 16 2 16 17
M  V30 17 1 17 18
M  V30 18 2 18 19
M  V30 19 1 19 20
M  V30 20 2 20 21
M  V30 21 1 21 22
M  V30 22 1 22 23
M  V30 23 1 23 24
M  V30 24 1 24 25
M  V30 25 1 24 26
M  V30 26 1 26 27
M  V30 27 1 26 28
M  V30 28 1 28 29
M  V30 29 1 28 30
M  V30 30 2 12 31
M  V30 31 2 7 32
M  V30 32 1 32 33
M  V30 33 1 32 2
M  V30 34 1 31 8
M  V30 35 1 21 16
M  V30 36 1 30 22
M  V30 37 1 1 34
M  V30 38 1 1 35
M  V30 39 1 1 36
M  V30 40 1 3 37
M  V30 41 1 4 38
M  V30 42 1 9 39
M  V30 43 1 10 40
M  V30 44 1 11 41
M  V30 45 1 15 42
M  V30 46 1 17 43
M  V30 47 1 19 44
M  V30 48 1 20 45
M  V30 49 1 23 46
M  V30 50 1 23 47
M  V30 51 1 24 48 CFG=1
M  V30 52 1 25 49
M  V30 53 1 25 50
M  V30 54 1 26 51 CFG=3
M  V30 55 1 27 52
M  V30 56 1 28 53 CFG=1
M  V30 57 1 29 54
M  V30 58 1 29 55
M  V30 59 1 29 56
M  V30 60 1 30 57
M  V30 61 1 30 58
M  V30 END BOND
M  V30 END CTAB
M  END
>  <Dataset>  (392) 
ChEMBL_Kinases

>  <Ligand_Instance>  (392) 
nan

>  <PDB_ID>  (392) 
nan

>  <Standardized_SMILES>  (392) 
Cc1ccc(F)c(-c2cccc(C(=O)Nc3cnccc3N3C[C@@H](N)[C@H](O)[C@@H](C)C3)n2)c1F

>  <Name>  (392) 
nan

>  <Pocket>  (392) 
nan

>  <ATP_Site>  (392) 
nan

>  <Peripheral>  (392) 
nan

>  <Num_H_Atoms_ProtBoundConf>  (392) 
nan

>  <Num_Resolved_Atoms>  (392) 
nan

>  <Num_Not_Resolved_Atoms>  (392) 
nan

$$$$
CHEMBL3651910
     RDKit          3D

  0  0  0  0  0  0  0  0  0  0999 V3000
M  V30 BEGIN CTAB
M  V30 COUNTS 52 55 0 0 0
M  V30 BEGIN ATOM
M  V30 1 N -0.284202 -0.791744 4.370963 0
M  V30 2 C 0.911415 -0.261578 3.767405 0 CFG=1
M  V30 3 C 1.972691 -1.291952 3.545633 0
M  V30 4 C 3.208542 -0.602865 3.004791 0
M  V30 5 C 2.922703 0.277649 1.834358 0
M  V30 6 C 1.750606 1.242729 2.084331 0 CFG=1
M  V30 7 C 1.668185 2.121893 0.927006 0
M  V30 8 C 2.455755 3.279532 1.016184 0
M  V30 9 C 2.540290 4.229277 0.042838 0
M  V30 10 N 1.830520 4.066795 -1.086376 0
M  V30 11 C 1.046016 2.973837 -1.246499 0
M  V30 12 C 0.974049 2.024496 -0.249498 0
M  V30 13 N 0.162988 0.903132 -0.449760 0
M  V30 14 C -1.221728 0.974342 -0.136963 0
M  V30 15 O -1.543147 2.106697 0.303802 0
M  V30 16 C -2.171876 -0.118499 -0.298943 0
M  V30 17 C -3.480284 0.148779 0.063832 0
M  V30 18 C -4.372515 -0.879735 -0.088917 0
M  V30 19 C -3.904591 -2.074090 -0.581766 0
M  V30 20 F -4.825190 -3.051586 -0.711931 0
M  V30 21 C -2.611366 -2.344892 -0.942567 0
M  V30 22 C -2.069487 -3.580194 -1.464356 0
M  V30 23 C -2.717375 -4.760863 -1.717928 0
M  V30 24 C -2.151698 -5.900496 -2.213162 0
M  V30 25 F -2.886591 -7.016453 -2.427551 0
M  V30 26 C -0.802930 -5.893255 -2.494266 0
M  V30 27 C -0.089396 -4.736804 -2.262409 0
M  V30 28 F 1.215622 -4.778439 -2.550589 0
M  V30 29 C -0.726071 -3.624270 -1.761234 0
M  V30 30 F 0.087136 -2.561192 -1.581894 0
M  V30 31 N -1.776099 -1.310014 -0.775730 0
M  V30 32 C 0.586180 0.382084 2.400128 0
M  V30 33 H -0.847372 -1.254335 3.618593 0
M  V30 34 H -0.867521 0.027049 4.684112 0
M  V30 35 H 1.367019 0.554168 4.366996 0
M  V30 36 H 1.654922 -2.123667 2.884191 0
M  V30 37 H 2.254167 -1.737150 4.523921 0
M  V30 38 H 3.800877 -0.103820 3.774867 0
M  V30 39 H 3.848195 -1.440627 2.604298 0
M  V30 40 H 2.620908 -0.321314 0.947521 0
M  V30 41 H 3.825589 0.892956 1.654863 0
M  V30 42 H 2.017325 1.799427 3.025363 0
M  V30 43 H 3.072570 3.502007 1.899887 0
M  V30 44 H 3.149563 5.115245 0.124360 0
M  V30 45 H 0.469315 2.828848 -2.149653 0
M  V30 46 H 0.540108 -0.014359 -0.831029 0
M  V30 47 H -3.761872 1.117596 0.443407 0
M  V30 48 H -5.392172 -0.731811 0.174063 0
M  V30 49 H -3.772094 -4.812618 -1.513315 0
M  V30 50 H -0.335996 -6.786137 -2.886493 0
M  V30 51 H 0.394797 -0.461598 1.730564 0
M  V30 52 H -0.372142 0.901274 2.588238 0
M  V30 END ATOM
M  V30 BEGIN BOND
M  V30 1 1 1 2
M  V30 2 1 2 3
M  V30 3 1 3 4
M  V30 4 1 4 5
M  V30 5 1 5 6
M  V30 6 1 6 7
M  V30 7 2 7 8
M  V30 8 1 8 9
M  V30 9 2 9 10
M  V30 10 1 10 11
M  V30 11 2 11 12
M  V30 12 1 12 13
M  V30 13 1 13 14
M  V30 14 2 14 15
M  V30 15 1 14 16
M  V30 16 2 16 17
M  V30 17 1 17 18
M  V30 18 2 18 19
M  V30 19 1 19 20
M  V30 20 1 19 21
M  V30 21 1 21 22
M  V30 22 2 22 23
M  V30 23 1 23 24
M  V30 24 1 24 25
M  V30 25 2 24 26
M  V30 26 1 26 27
M  V30 27 1 27 28
M  V30 28 2 27 29
M  V30 29 1 29 30
M  V30 30 2 21 31
M  V30 31 1 6 32
M  V30 32 1 32 2
M  V30 33 1 12 7
M  V30 34 1 31 16
M  V30 35 1 29 22
M  V30 36 1 1 33
M  V30 37 1 1 34
M  V30 38 1 2 35 CFG=1
M  V30 39 1 3 36
M  V30 40 1 3 37
M  V30 41 1 4 38
M  V30 42 1 4 39
M  V30 43 1 5 40
M  V30 44 1 5 41
M  V30 45 1 6 42 CFG=1
M  V30 46 1 8 43
M  V30 47 1 9 44
M  V30 48 1 11 45
M  V30 49 1 13 46
M  V30 50 1 17 47
M  V30 51 1 18 48
M  V30 52 1 23 49
M  V30 53 1 26 50
M  V30 54 1 32 51
M  V30 55 1 32 52
M  V30 END BOND
M  V30 END CTAB
M  END
>  <Dataset>  (393) 
ChEMBL_Kinases

>  <Ligand_Instance>  (393) 
nan

>  <PDB_ID>  (393) 
nan

>  <Standardized_SMILES>  (393) 
N[C@H]1CCC[C@@H](c2ccncc2NC(=O)c2ccc(F)c(-c3cc(F)cc(F)c3F)n2)C1

>  <Name>  (393) 
nan

>  <Pocket>  (393) 
nan

>  <ATP_Site>  (393) 
nan

>  <Peripheral>  (393) 
nan

>  <Num_H_Atoms_ProtBoundConf>  (393) 
nan

>  <Num_Resolved_Atoms>  (393) 
nan

>  <Num_Not_Resolved_Atoms>  (393) 
nan

$$$$
CHEMBL3651911
     RDKit          3D

  0  0  0  0  0  0  0  0  0  0999 V3000
M  V30 BEGIN CTAB
M  V30 COUNTS 62 65 0 0 0
M  V30 BEGIN ATOM
M  V30 1 C 3.352797 0.958078 5.749126 0
M  V30 2 C 4.500782 1.059857 4.768746 0
M  V30 3 C 4.157232 0.440915 3.455653 0
M  V30 4 C 4.632978 -0.786336 3.068117 0
M  V30 5 C 4.305114 -1.338437 1.858620 0
M  V30 6 C 3.462659 -0.616909 1.011512 0
M  V30 7 F 3.180249 -1.223017 -0.167436 0
M  V30 8 C 2.980069 0.614535 1.390491 0
M  V30 9 C 2.115121 1.233100 0.392377 0
M  V30 10 C 2.633517 2.064574 -0.605709 0
M  V30 11 C 1.695616 2.582327 -1.485591 0
M  V30 12 C 0.356804 2.275790 -1.352729 0
M  V30 13 C -0.118105 1.450268 -0.353578 0
M  V30 14 C -1.539009 1.156572 -0.252662 0
M  V30 15 O -2.341514 1.671694 -1.103756 0
M  V30 16 N -2.005222 0.302223 0.791365 0
M  V30 17 C -3.374640 -0.035622 0.961843 0
M  V30 18 C -4.124962 0.841874 1.753156 0
M  V30 19 N -5.428093 0.582465 1.961572 0
M  V30 20 C -5.987486 -0.508373 1.410860 0
M  V30 21 C -5.226068 -1.356661 0.635742 0
M  V30 22 C -3.862748 -1.173591 0.360082 0
M  V30 23 C -3.143059 -2.117184 -0.457802 0 CFG=1
M  V30 24 C -3.207161 -1.790458 -1.932120 0
M  V30 25 C -1.953962 -2.100032 -2.667262 0 CFG=1
M  V30 26 N -1.038959 -0.956555 -2.707230 0
M  V30 27 C -1.260219 -3.369848 -2.336344 0 CFG=2
M  V30 28 O -1.665268 -4.434520 -3.153784 0
M  V30 29 C -1.431460 -3.695632 -0.893956 0 CFG=1
M  V30 30 C -0.283335 -4.467644 -0.303396 0
M  V30 31 C -1.717127 -2.417773 -0.134002 0
M  V30 32 N 0.797103 0.968585 0.473632 0
M  V30 33 C 3.323774 1.158581 2.621667 0
M  V30 34 F 2.796938 2.371140 2.896361 0
M  V30 35 H 3.397155 0.030373 6.344086 0
M  V30 36 H 2.407542 1.013796 5.169093 0
M  V30 37 H 3.386564 1.859963 6.391676 0
M  V30 38 H 4.677218 2.136683 4.567959 0
M  V30 39 H 5.414921 0.604773 5.195541 0
M  V30 40 H 5.285183 -1.315247 3.755524 0
M  V30 41 H 4.707976 -2.312919 1.598351 0
M  V30 42 H 3.697618 2.253833 -0.638980 0
M  V30 43 H 2.070942 3.232740 -2.272621 0
M  V30 44 H -0.290178 2.731525 -2.090563 0
M  V30 45 H -1.277958 -0.081593 1.452061 0
M  V30 46 H -3.668986 1.707999 2.186933 0
M  V30 47 H -7.035338 -0.743650 1.561321 0
M  V30 48 H -5.727069 -2.233481 0.208112 0
M  V30 49 H -3.695816 -3.101996 -0.372986 0
M  V30 50 H -3.395122 -0.694198 -2.021253 0
M  V30 51 H -4.065629 -2.270556 -2.431594 0
M  V30 52 H -2.266782 -2.205843 -3.755234 0
M  V30 53 H -1.549404 -0.220018 -3.247043 0
M  V30 54 H -0.245391 -1.270961 -3.329943 0
M  V30 55 H -0.154932 -3.236529 -2.553793 0
M  V30 56 H -1.114898 -5.239436 -2.990328 0
M  V30 57 H -2.325709 -4.387389 -0.842550 0
M  V30 58 H 0.487530 -3.786030 0.122240 0
M  V30 59 H -0.656780 -5.077267 0.548367 0
M  V30 60 H 0.143106 -5.179024 -1.033183 0
M  V30 61 H -1.609837 -2.705974 0.951367 0
M  V30 62 H -0.979462 -1.675800 -0.442415 0
M  V30 END ATOM
M  V30 BEGIN BOND
M  V30 1 1 1 2
M  V30 2 1 2 3
M  V30 3 2 3 4
M  V30 4 1 4 5
M  V30 5 2 5 6
M  V30 6 1 6 7
M  V30 7 1 6 8
M  V30 8 1 8 9
M  V30 9 2 9 10
M  V30 10 1 10 11
M  V30 11 2 11 12
M  V30 12 1 12 13
M  V30 13 1 13 14
M  V30 14 2 14 15
M  V30 15 1 14 16
M  V30 16 1 16 17
M  V30 17 2 17 18
M  V30 18 1 18 19
M  V30 19 2 19 20
M  V30 20 1 20 21
M  V30 21 2 21 22
M  V30 22 1 22 23
M  V30 23 1 23 24
M  V30 24 1 24 25
M  V30 25 1 25 26
M  V30 26 1 25 27
M  V30 27 1 27 28
M  V30 28 1 27 29
M  V30 29 1 29 30
M  V30 30 1 29 31
M  V30 31 2 13 32
M  V30 32 2 8 33
M  V30 33 1 33 34
M  V30 34 1 33 3
M  V30 35 1 32 9
M  V30 36 1 22 17
M  V30 37 1 31 23
M  V30 38 1 1 35
M  V30 39 1 1 36
M  V30 40 1 1 37
M  V30 41 1 2 38
M  V30 42 1 2 39
M  V30 43 1 4 40
M  V30 44 1 5 41
M  V30 45 1 10 42
M  V30 46 1 11 43
M  V30 47 1 12 44
M  V30 48 1 16 45
M  V30 49 1 18 46
M  V30 50 1 20 47
M  V30 51 1 21 48
M  V30 52 1 23 49 CFG=3
M  V30 53 1 24 50
M  V30 54 1 24 51
M  V30 55 1 25 52 CFG=3
M  V30 56 1 26 53
M  V30 57 1 26 54
M  V30 58 1 27 55 CFG=1
M  V30 59 1 28 56
M  V30 60 1 29 57 CFG=3
M  V30 61 1 30 58
M  V30 62 1 30 59
M  V30 63 1 30 60
M  V30 64 1 31 61
M  V30 65 1 31 62
M  V30 END BOND
M  V30 END CTAB
M  END
>  <Dataset>  (394) 
ChEMBL_Kinases

>  <Ligand_Instance>  (394) 
nan

>  <PDB_ID>  (394) 
nan

>  <Standardized_SMILES>  (394) 
CCc1ccc(F)c(-c2cccc(C(=O)Nc3cnccc3[C@H]3C[C@@H](N)[C@H](O)[C@@H](C)C3)n2)c1F

>  <Name>  (394) 
nan

>  <Pocket>  (394) 
nan

>  <ATP_Site>  (394) 
nan

>  <Peripheral>  (394) 
nan

>  <Num_H_Atoms_ProtBoundConf>  (394) 
nan

>  <Num_Resolved_Atoms>  (394) 
nan

>  <Num_Not_Resolved_Atoms>  (394) 
nan

$$$$
CHEMBL3651912
     RDKit          3D

  0  0  0  0  0  0  0  0  0  0999 V3000
M  V30 BEGIN CTAB
M  V30 COUNTS 61 64 0 0 0
M  V30 BEGIN ATOM
M  V30 1 C 0.284703 -2.087228 3.694708 0
M  V30 2 C 1.111748 -1.984050 2.428989 0 CFG=1
M  V30 3 C 2.217052 -0.980082 2.618617 0
M  V30 4 N 2.847092 -0.764803 1.323595 0
M  V30 5 C 3.224343 0.334345 0.518687 0
M  V30 6 C 4.550728 0.514632 0.161169 0
M  V30 7 C 4.932041 1.586751 -0.626245 0
M  V30 8 N 3.990908 2.455919 -1.041634 0
M  V30 9 C 2.691110 2.321263 -0.719481 0
M  V30 10 C 2.299918 1.254123 0.066351 0
M  V30 11 N 0.919576 1.134336 0.392818 0
M  V30 12 C 0.065391 1.589021 1.435779 0
M  V30 13 O 0.537062 2.286631 2.368528 0
M  V30 14 C -1.327044 1.174104 1.297417 0
M  V30 15 C -2.157395 1.612493 2.305686 0
M  V30 16 C -3.514114 1.311637 2.335376 0
M  V30 17 C -4.015031 0.541505 1.298142 0
M  V30 18 F -5.310613 0.188417 1.221838 0
M  V30 19 C -3.159284 0.112212 0.294830 0
M  V30 20 C -3.612293 -0.716513 -0.853566 0
M  V30 21 C -4.058243 0.151468 -2.021260 0
M  V30 22 C -4.629273 -0.768090 -3.079750 0
M  V30 23 C -3.527646 -1.686840 -3.567814 0
M  V30 24 C -3.068344 -2.523314 -2.392361 0
M  V30 25 C -2.463720 -1.560409 -1.381618 0
M  V30 26 N -1.832452 0.429776 0.302909 0
M  V30 27 C 3.197110 -1.982183 0.644714 0
M  V30 28 C 3.097549 -3.211077 1.524281 0 CFG=1
M  V30 29 N 4.185269 -3.286587 2.470489 0
M  V30 30 C 1.741474 -3.336985 2.169093 0 CFG=2
M  V30 31 O 0.870072 -4.054089 1.351970 0
M  V30 32 H -0.446278 -2.906740 3.539625 0
M  V30 33 H 0.975372 -2.382457 4.524027 0
M  V30 34 H -0.258050 -1.142398 3.894379 0
M  V30 35 H 0.497957 -1.667625 1.577390 0
M  V30 36 H 2.972272 -1.416085 3.303736 0
M  V30 37 H 1.833128 -0.052910 3.044772 0
M  V30 38 H 5.298443 -0.202068 0.508740 0
M  V30 39 H 5.981158 1.723933 -0.905390 0
M  V30 40 H 1.947451 3.045688 -1.072963 0
M  V30 41 H 0.587924 0.553934 -0.405907 0
M  V30 42 H -1.816956 2.212040 3.131730 0
M  V30 43 H -4.151977 1.653792 3.118491 0
M  V30 44 H -4.465855 -1.359734 -0.584402 0
M  V30 45 H -3.126946 0.630684 -2.416618 0
M  V30 46 H -4.779374 0.927613 -1.730414 0
M  V30 47 H -4.996206 -0.170662 -3.928045 0
M  V30 48 H -5.416463 -1.377063 -2.614734 0
M  V30 49 H -2.647153 -1.082080 -3.900239 0
M  V30 50 H -3.855423 -2.302430 -4.417642 0
M  V30 51 H -3.969297 -3.030328 -1.967413 0
M  V30 52 H -2.357189 -3.303473 -2.711739 0
M  V30 53 H -1.797445 -0.853328 -1.917631 0
M  V30 54 H -1.907245 -2.075614 -0.585447 0
M  V30 55 H 4.222712 -1.979734 0.215164 0
M  V30 56 H 2.437150 -2.158594 -0.172040 0
M  V30 57 H 3.192270 -4.093281 0.845594 0
M  V30 58 H 5.061827 -3.636225 2.046935 0
M  V30 59 H 3.911031 -3.890896 3.282747 0
M  V30 60 H 1.841438 -3.876666 3.151423 0
M  V30 61 H 0.116217 -3.504291 1.039046 0
M  V30 END ATOM
M  V30 BEGIN BOND
M  V30 1 1 1 2
M  V30 2 1 2 3
M  V30 3 1 3 4
M  V30 4 1 4 5
M  V30 5 2 5 6
M  V30 6 1 6 7
M  V30 7 2 7 8
M  V30 8 1 8 9
M  V30 9 2 9 10
M  V30 10 1 10 11
M  V30 11 1 11 12
M  V30 12 2 12 13
M  V30 13 1 12 14
M  V30 14 2 14 15
M  V30 15 1 15 16
M  V30 16 2 16 17
M  V30 17 1 17 18
M  V30 18 1 17 19
M  V30 19 1 19 20
M  V30 20 1 20 21
M  V30 21 1 21 22
M  V30 22 1 22 23
M  V30 23 1 23 24
M  V30 24 1 24 25
M  V30 25 2 19 26
M  V30 26 1 4 27
M  V30 27 1 27 28
M  V30 28 1 28 29
M  V30 29 1 28 30
M  V30 30 1 30 31
M  V30 31 1 30 2
M  V30 32 1 10 5
M  V30 33 1 26 14
M  V30 34 1 25 20
M  V30 35 1 1 32
M  V30 36 1 1 33
M  V30 37 1 1 34
M  V30 38 1 2 35 CFG=3
M  V30 39 1 3 36
M  V30 40 1 3 37
M  V30 41 1 6 38
M  V30 42 1 7 39
M  V30 43 1 9 40
M  V30 44 1 11 41
M  V30 45 1 15 42
M  V30 46 1 16 43
M  V30 47 1 20 44
M  V30 48 1 21 45
M  V30 49 1 21 46
M  V30 50 1 22 47
M  V30 51 1 22 48
M  V30 52 1 23 49
M  V30 53 1 23 50
M  V30 54 1 24 51
M  V30 55 1 24 52
M  V30 56 1 25 53
M  V30 57 1 25 54
M  V30 58 1 27 55
M  V30 59 1 27 56
M  V30 60 1 28 57 CFG=3
M  V30 61 1 29 58
M  V30 62 1 29 59
M  V30 63 1 30 60 CFG=1
M  V30 64 1 31 61
M  V30 END BOND
M  V30 END CTAB
M  END
>  <Dataset>  (395) 
ChEMBL_Kinases

>  <Ligand_Instance>  (395) 
nan

>  <PDB_ID>  (395) 
nan

>  <Standardized_SMILES>  (395) 
C[C@H]1CN(c2ccncc2NC(=O)c2ccc(F)c(C3CCCCC3)n2)C[C@@H](N)[C@@H]1O

>  <Name>  (395) 
nan

>  <Pocket>  (395) 
nan

>  <ATP_Site>  (395) 
nan

>  <Peripheral>  (395) 
nan

>  <Num_H_Atoms_ProtBoundConf>  (395) 
nan

>  <Num_Resolved_Atoms>  (395) 
nan

>  <Num_Not_Resolved_Atoms>  (395) 
nan

$$$$
CHEMBL3651913
     RDKit          3D

  0  0  0  0  0  0  0  0  0  0999 V3000
M  V30 BEGIN CTAB
M  V30 COUNTS 62 65 0 0 0
M  V30 BEGIN ATOM
M  V30 1 C 3.126861 1.161047 6.071572 0
M  V30 2 C 4.264491 1.425008 5.103938 0
M  V30 3 C 4.065264 0.756022 3.813049 0
M  V30 4 C 4.754344 -0.384907 3.475580 0
M  V30 5 C 4.544185 -0.988325 2.259952 0
M  V30 6 C 3.631116 -0.458640 1.345898 0
M  V30 7 F 3.457565 -1.088207 0.159822 0
M  V30 8 C 2.955843 0.685437 1.712548 0
M  V30 9 C 2.000559 1.248453 0.766213 0
M  V30 10 C 2.496288 2.186087 -0.147635 0
M  V30 11 C 1.530930 2.672559 -1.010990 0
M  V30 12 C 0.209550 2.280919 -0.984049 0
M  V30 13 C -0.210140 1.349759 -0.053383 0
M  V30 14 C -1.617674 0.972736 -0.070472 0
M  V30 15 O -2.434230 1.463496 -0.893966 0
M  V30 16 N -2.163061 0.019781 0.847891 0
M  V30 17 C -3.554754 -0.175602 0.617818 0
M  V30 18 C -4.444597 0.683298 1.226511 0
M  V30 19 N -5.764714 0.487411 1.013171 0
M  V30 20 C -6.217037 -0.510766 0.233031 0
M  V30 21 C -5.292057 -1.349148 -0.358062 0
M  V30 22 C -3.903374 -1.235593 -0.203577 0
M  V30 23 C -3.033471 -2.182990 -0.868021 0 CFG=1
M  V30 24 C -2.694579 -1.800714 -2.263455 0
M  V30 25 C -1.951303 -2.883676 -3.011069 0 CFG=1
M  V30 26 N -1.305700 -2.246279 -4.144263 0
M  V30 27 C -0.870842 -3.525316 -2.185781 0 CFG=1
M  V30 28 O 0.304460 -2.791598 -2.244330 0
M  V30 29 C -1.291974 -3.849515 -0.787628 0 CFG=1
M  V30 30 C -0.196432 -4.513187 -0.032456 0
M  V30 31 C -1.762014 -2.543223 -0.140753 0
M  V30 32 N 0.709794 0.871606 0.786016 0
M  V30 33 C 3.156732 1.304604 2.933319 0
M  V30 34 F 2.434924 2.432465 3.192890 0
M  V30 35 H 3.434866 0.342831 6.783188 0
M  V30 36 H 2.171757 0.942102 5.569012 0
M  V30 37 H 2.988561 2.076017 6.684427 0
M  V30 38 H 4.305245 2.529047 4.916398 0
M  V30 39 H 5.206668 1.177590 5.623750 0
M  V30 40 H 5.466233 -0.777436 4.216387 0
M  V30 41 H 5.112079 -1.883166 2.045323 0
M  V30 42 H 3.532068 2.495096 -0.171218 0
M  V30 43 H 1.861851 3.403278 -1.740722 0
M  V30 44 H -0.504956 2.693688 -1.683152 0
M  V30 45 H -1.442743 -0.365353 1.526720 0
M  V30 46 H -4.062225 1.479344 1.849813 0
M  V30 47 H -7.273582 -0.658425 0.068743 0
M  V30 48 H -5.697125 -2.137254 -0.976373 0
M  V30 49 H -3.604930 -3.157470 -0.940910 0
M  V30 50 H -3.659130 -1.642512 -2.802039 0
M  V30 51 H -2.176692 -0.823971 -2.326551 0
M  V30 52 H -2.626440 -3.660921 -3.399996 0
M  V30 53 H -1.971676 -2.057035 -4.899840 0
M  V30 54 H -0.416864 -2.705017 -4.407458 0
M  V30 55 H -0.641944 -4.518926 -2.673463 0
M  V30 56 H 0.095611 -1.829670 -2.131698 0
M  V30 57 H -2.149861 -4.561878 -0.878893 0
M  V30 58 H -0.319488 -4.247774 1.051051 0
M  V30 59 H -0.331617 -5.616915 -0.054130 0
M  V30 60 H 0.803166 -4.180697 -0.313884 0
M  V30 61 H -1.906110 -2.778591 0.927261 0
M  V30 62 H -0.928856 -1.831225 -0.337368 0
M  V30 END ATOM
M  V30 BEGIN BOND
M  V30 1 1 1 2
M  V30 2 1 2 3
M  V30 3 2 3 4
M  V30 4 1 4 5
M  V30 5 2 5 6
M  V30 6 1 6 7
M  V30 7 1 6 8
M  V30 8 1 8 9
M  V30 9 2 9 10
M  V30 10 1 10 11
M  V30 11 2 11 12
M  V30 12 1 12 13
M  V30 13 1 13 14
M  V30 14 2 14 15
M  V30 15 1 14 16
M  V30 16 1 16 17
M  V30 17 2 17 18
M  V30 18 1 18 19
M  V30 19 2 19 20
M  V30 20 1 20 21
M  V30 21 2 21 22
M  V30 22 1 22 23
M  V30 23 1 23 24
M  V30 24 1 24 25
M  V30 25 1 25 26
M  V30 26 1 25 27
M  V30 27 1 27 28
M  V30 28 1 27 29
M  V30 29 1 29 30
M  V30 30 1 29 31
M  V30 31 2 13 32
M  V30 32 2 8 33
M  V30 33 1 33 34
M  V30 34 1 33 3
M  V30 35 1 32 9
M  V30 36 1 22 17
M  V30 37 1 31 23
M  V30 38 1 1 35
M  V30 39 1 1 36
M  V30 40 1 1 37
M  V30 41 1 2 38
M  V30 42 1 2 39
M  V30 43 1 4 40
M  V30 44 1 5 41
M  V30 45 1 10 42
M  V30 46 1 11 43
M  V30 47 1 12 44
M  V30 48 1 16 45
M  V30 49 1 18 46
M  V30 50 1 20 47
M  V30 51 1 21 48
M  V30 52 1 23 49 CFG=3
M  V30 53 1 24 50
M  V30 54 1 24 51
M  V30 55 1 25 52 CFG=3
M  V30 56 1 26 53
M  V30 57 1 26 54
M  V30 58 1 27 55 CFG=3
M  V30 59 1 28 56
M  V30 60 1 29 57 CFG=3
M  V30 61 1 30 58
M  V30 62 1 30 59
M  V30 63 1 30 60
M  V30 64 1 31 61
M  V30 65 1 31 62
M  V30 END BOND
M  V30 END CTAB
M  END
>  <Dataset>  (396) 
ChEMBL_Kinases

>  <Ligand_Instance>  (396) 
nan

>  <PDB_ID>  (396) 
nan

>  <Standardized_SMILES>  (396) 
CCc1ccc(F)c(-c2cccc(C(=O)Nc3cnccc3[C@H]3C[C@@H](N)[C@@H](O)[C@@H](C)C3)n2)c1F

>  <Name>  (396) 
nan

>  <Pocket>  (396) 
nan

>  <ATP_Site>  (396) 
nan

>  <Peripheral>  (396) 
nan

>  <Num_H_Atoms_ProtBoundConf>  (396) 
nan

>  <Num_Resolved_Atoms>  (396) 
nan

>  <Num_Not_Resolved_Atoms>  (396) 
nan

$$$$
CHEMBL3651914
     RDKit          3D

  0  0  0  0  0  0  0  0  0  0999 V3000
M  V30 BEGIN CTAB
M  V30 COUNTS 59 62 0 0 0
M  V30 BEGIN ATOM
M  V30 1 C 3.211108 1.100227 5.966026 0
M  V30 2 C 4.236403 1.699969 5.059488 0
M  V30 3 C 4.047823 1.292577 3.629269 0
M  V30 4 C 4.882162 0.345231 3.071220 0
M  V30 5 C 4.698888 -0.024725 1.744847 0
M  V30 6 C 3.673740 0.589913 1.053417 0
M  V30 7 F 3.544558 0.188375 -0.234111 0
M  V30 8 C 2.824833 1.537709 1.580831 0
M  V30 9 C 1.796639 2.079199 0.697533 0
M  V30 10 C 1.933288 3.175729 -0.098427 0
M  V30 11 C 0.907356 3.621278 -0.905240 0
M  V30 12 C -0.283955 2.891191 -0.867091 0
M  V30 13 C -0.420146 1.793983 -0.070463 0
M  V30 14 C -1.712118 1.117143 -0.121928 0
M  V30 15 O -2.678000 1.487156 -0.837650 0
M  V30 16 N -1.817289 -0.026269 0.715116 0
M  V30 17 C -2.765074 -1.009662 1.053555 0
M  V30 18 C -3.638682 -0.839613 2.106872 0
M  V30 19 N -4.538007 -1.790103 2.416204 0
M  V30 20 C -4.553959 -2.918657 1.656329 0
M  V30 21 C -3.708415 -3.167240 0.578996 0
M  V30 22 C -2.794529 -2.177027 0.281336 0
M  V30 23 C -1.868560 -2.366858 -0.844433 0 CFG=2
M  V30 24 C -2.431291 -1.866111 -2.163455 0
M  V30 25 C -2.910492 -3.015787 -3.032629 0
M  V30 26 C -1.746532 -3.888720 -3.429464 0 CFG=2
M  V30 27 O -2.137624 -5.209031 -3.558234 0
M  V30 28 C -0.650941 -3.829706 -2.368790 0 CFG=2
M  V30 29 N 0.267451 -4.923380 -2.443602 0
M  V30 30 C -1.371303 -3.773395 -1.018584 0
M  V30 31 N 0.621755 1.423791 0.684579 0
M  V30 32 C 3.028400 1.894563 2.918602 0
M  V30 33 F 2.183493 2.826741 3.416630 0
M  V30 34 H 2.228623 1.186452 5.444258 0
M  V30 35 H 3.377554 0.021179 6.168569 0
M  V30 36 H 3.159678 1.690321 6.897372 0
M  V30 37 H 5.279714 1.518137 5.388523 0
M  V30 38 H 4.096503 2.801785 5.068709 0
M  V30 39 H 5.661850 -0.075560 3.714089 0
M  V30 40 H 5.353869 -0.764074 1.317536 0
M  V30 41 H 2.872237 3.682734 -0.075153 0
M  V30 42 H 1.037524 4.492892 -1.528262 0
M  V30 43 H -1.104002 3.241205 -1.507212 0
M  V30 44 H -1.042763 -0.358900 1.316995 0
M  V30 45 H -3.612758 0.079606 2.712062 0
M  V30 46 H -5.282466 -3.674282 1.917025 0
M  V30 47 H -3.807755 -4.100267 0.042619 0
M  V30 48 H -0.974417 -1.733003 -0.653777 0
M  V30 49 H -3.273167 -1.167567 -2.049211 0
M  V30 50 H -1.667442 -1.312082 -2.759528 0
M  V30 51 H -3.721914 -3.589063 -2.521213 0
M  V30 52 H -3.347097 -2.577911 -3.943477 0
M  V30 53 H -1.375990 -3.559039 -4.407933 0
M  V30 54 H -1.809110 -5.748051 -2.793184 0
M  V30 55 H -0.139629 -2.851389 -2.506711 0
M  V30 56 H 1.070753 -4.733093 -3.077959 0
M  V30 57 H 0.659195 -5.118372 -1.493205 0
M  V30 58 H -0.645463 -4.062451 -0.232995 0
M  V30 59 H -2.155635 -4.542637 -1.065142 0
M  V30 END ATOM
M  V30 BEGIN BOND
M  V30 1 1 1 2
M  V30 2 1 2 3
M  V30 3 2 3 4
M  V30 4 1 4 5
M  V30 5 2 5 6
M  V30 6 1 6 7
M  V30 7 1 6 8
M  V30 8 1 8 9
M  V30 9 2 9 10
M  V30 10 1 10 11
M  V30 11 2 11 12
M  V30 12 1 12 13
M  V30 13 1 13 14
M  V30 14 2 14 15
M  V30 15 1 14 16
M  V30 16 1 16 17
M  V30 17 2 17 18
M  V30 18 1 18 19
M  V30 19 2 19 20
M  V30 20 1 20 21
M  V30 21 2 21 22
M  V30 22 1 22 23
M  V30 23 1 23 24
M  V30 24 1 24 25
M  V30 25 1 25 26
M  V30 26 1 26 27
M  V30 27 1 26 28
M  V30 28 1 28 29
M  V30 29 1 28 30
M  V30 30 2 13 31
M  V30 31 2 8 32
M  V30 32 1 32 33
M  V30 33 1 32 3
M  V30 34 1 31 9
M  V30 35 1 22 17
M  V30 36 1 30 23
M  V30 37 1 1 34
M  V30 38 1 1 35
M  V30 39 1 1 36
M  V30 40 1 2 37
M  V30 41 1 2 38
M  V30 42 1 4 39
M  V30 43 1 5 40
M  V30 44 1 10 41
M  V30 45 1 11 42
M  V30 46 1 12 43
M  V30 47 1 16 44
M  V30 48 1 18 45
M  V30 49 1 20 46
M  V30 50 1 21 47
M  V30 51 1 23 48 CFG=1
M  V30 52 1 24 49
M  V30 53 1 24 50
M  V30 54 1 25 51
M  V30 55 1 25 52
M  V30 56 1 26 53 CFG=3
M  V30 57 1 27 54
M  V30 58 1 28 55 CFG=3
M  V30 59 1 29 56
M  V30 60 1 29 57
M  V30 61 1 30 58
M  V30 62 1 30 59
M  V30 END BOND
M  V30 END CTAB
M  END
>  <Dataset>  (397) 
ChEMBL_Kinases

>  <Ligand_Instance>  (397) 
nan

>  <PDB_ID>  (397) 
nan

>  <Standardized_SMILES>  (397) 
CCc1ccc(F)c(-c2cccc(C(=O)Nc3cnccc3[C@@H]3CC[C@H](O)[C@H](N)C3)n2)c1F

>  <Name>  (397) 
nan

>  <Pocket>  (397) 
nan

>  <ATP_Site>  (397) 
nan

>  <Peripheral>  (397) 
nan

>  <Num_H_Atoms_ProtBoundConf>  (397) 
nan

>  <Num_Resolved_Atoms>  (397) 
nan

>  <Num_Not_Resolved_Atoms>  (397) 
nan

$$$$
CHEMBL3651915
     RDKit          3D

  0  0  0  0  0  0  0  0  0  0999 V3000
M  V30 BEGIN CTAB
M  V30 COUNTS 58 61 0 0 0
M  V30 BEGIN ATOM
M  V30 1 C 2.070870 -3.709746 2.945236 0
M  V30 2 C 3.425459 -3.075296 3.202975 0
M  V30 3 C 3.294750 -1.592026 3.268805 0
M  V30 4 C 3.329601 -0.913585 4.466435 0
M  V30 5 C 3.205049 0.473447 4.497818 0
M  V30 6 C 3.042388 1.218060 3.331837 0
M  V30 7 F 2.915448 2.555427 3.274797 0
M  V30 8 C 3.012143 0.506285 2.152300 0
M  V30 9 C 2.846739 1.115627 0.818714 0
M  V30 10 C 3.817045 1.570098 -0.078253 0
M  V30 11 C 3.356978 2.094338 -1.267367 0
M  V30 12 C 2.006398 2.156626 -1.534738 0
M  V30 13 C 1.063950 1.701459 -0.633256 0
M  V30 14 C -0.373104 1.783774 -0.946429 0
M  V30 15 O -0.719383 2.265487 -2.061219 0
M  V30 16 N -1.270220 1.294286 0.075795 0
M  V30 17 C -2.660831 1.267779 0.010031 0
M  V30 18 C -3.266287 2.439453 0.430379 0
M  V30 19 N -4.612460 2.543862 0.418647 0
M  V30 20 C -5.347022 1.474678 -0.014174 0
M  V30 21 C -4.723315 0.315429 -0.429106 0
M  V30 22 C -3.324984 0.145497 -0.439658 0
M  V30 23 C -2.729619 -1.100309 -0.870622 0 CFG=2
M  V30 24 C -2.611770 -2.122833 0.271931 0
M  V30 25 C -2.586056 -3.499865 -0.353223 0
M  V30 26 C -2.449382 -3.451342 -1.856355 0
M  V30 27 C -1.420962 -2.490987 -2.347148 0 CFG=2
M  V30 28 N -0.114953 -3.106950 -2.177354 0
M  V30 29 C -1.495109 -1.114161 -1.667595 0
M  V30 30 N 1.527991 1.185687 0.537372 0
M  V30 31 C 3.135290 -0.885249 2.097215 0
M  V30 32 F 3.105374 -1.587631 0.927929 0
M  V30 33 H 1.563569 -4.040475 3.871492 0
M  V30 34 H 1.384072 -2.958236 2.468361 0
M  V30 35 H 2.136964 -4.596919 2.268287 0
M  V30 36 H 4.121586 -3.364529 2.387361 0
M  V30 37 H 3.813370 -3.480406 4.140919 0
M  V30 38 H 3.453878 -1.456355 5.382774 0
M  V30 39 H 3.229869 1.035168 5.440040 0
M  V30 40 H 4.814244 1.435208 0.314601 0
M  V30 41 H 4.155504 2.426278 -1.914244 0
M  V30 42 H 1.723300 2.579240 -2.485602 0
M  V30 43 H -0.872820 0.914268 0.968264 0
M  V30 44 H -2.725907 3.304259 0.778264 0
M  V30 45 H -6.421601 1.571742 -0.019120 0
M  V30 46 H -5.388184 -0.473979 -0.752685 0
M  V30 47 H -3.500755 -1.582531 -1.548269 0
M  V30 48 H -1.649665 -2.007922 0.804032 0
M  V30 49 H -3.445700 -1.988771 1.002100 0
M  V30 50 H -3.587279 -3.963055 -0.135714 0
M  V30 51 H -1.838394 -4.164960 0.127084 0
M  V30 52 H -2.048448 -4.477176 -2.128370 0
M  V30 53 H -3.421429 -3.417760 -2.392538 0
M  V30 54 H -1.559736 -2.400794 -3.446854 0
M  V30 55 H 0.570197 -2.878470 -2.899925 0
M  V30 56 H -0.133601 -4.065455 -1.818347 0
M  V30 57 H -0.551277 -1.070459 -1.093610 0
M  V30 58 H -1.527167 -0.373080 -2.482757 0
M  V30 END ATOM
M  V30 BEGIN BOND
M  V30 1 1 1 2
M  V30 2 1 2 3
M  V30 3 2 3 4
M  V30 4 1 4 5
M  V30 5 2 5 6
M  V30 6 1 6 7
M  V30 7 1 6 8
M  V30 8 1 8 9
M  V30 9 2 9 10
M  V30 10 1 10 11
M  V30 11 2 11 12
M  V30 12 1 12 13
M  V30 13 1 13 14
M  V30 14 2 14 15
M  V30 15 1 14 16
M  V30 16 1 16 17
M  V30 17 2 17 18
M  V30 18 1 18 19
M  V30 19 2 19 20
M  V30 20 1 20 21
M  V30 21 2 21 22
M  V30 22 1 22 23
M  V30 23 1 23 24
M  V30 24 1 24 25
M  V30 25 1 25 26
M  V30 26 1 26 27
M  V30 27 1 27 28
M  V30 28 1 27 29
M  V30 29 2 13 30
M  V30 30 2 8 31
M  V30 31 1 31 32
M  V30 32 1 31 3
M  V30 33 1 30 9
M  V30 34 1 22 17
M  V30 35 1 29 23
M  V30 36 1 1 33
M  V30 37 1 1 34
M  V30 38 1 1 35
M  V30 39 1 2 36
M  V30 40 1 2 37
M  V30 41 1 4 38
M  V30 42 1 5 39
M  V30 43 1 10 40
M  V30 44 1 11 41
M  V30 45 1 12 42
M  V30 46 1 16 43
M  V30 47 1 18 44
M  V30 48 1 20 45
M  V30 49 1 21 46
M  V30 50 1 23 47 CFG=3
M  V30 51 1 24 48
M  V30 52 1 24 49
M  V30 53 1 25 50
M  V30 54 1 25 51
M  V30 55 1 26 52
M  V30 56 1 26 53
M  V30 57 1 27 54 CFG=3
M  V30 58 1 28 55
M  V30 59 1 28 56
M  V30 60 1 29 57
M  V30 61 1 29 58
M  V30 END BOND
M  V30 END CTAB
M  END
>  <Dataset>  (398) 
ChEMBL_Kinases

>  <Ligand_Instance>  (398) 
nan

>  <PDB_ID>  (398) 
nan

>  <Standardized_SMILES>  (398) 
CCc1ccc(F)c(-c2cccc(C(=O)Nc3cnccc3[C@@H]3CCC[C@H](N)C3)n2)c1F

>  <Name>  (398) 
nan

>  <Pocket>  (398) 
nan

>  <ATP_Site>  (398) 
nan

>  <Peripheral>  (398) 
nan

>  <Num_H_Atoms_ProtBoundConf>  (398) 
nan

>  <Num_Resolved_Atoms>  (398) 
nan

>  <Num_Not_Resolved_Atoms>  (398) 
nan

$$$$
CHEMBL3651926
     RDKit          3D

  0  0  0  0  0  0  0  0  0  0999 V3000
M  V30 BEGIN CTAB
M  V30 COUNTS 59 62 0 0 0
M  V30 BEGIN ATOM
M  V30 1 C 3.817209 -3.131148 4.859068 0
M  V30 2 C 3.595850 -1.667021 4.765135 0
M  V30 3 C 3.603379 -0.933160 5.924942 0
M  V30 4 C 3.405204 0.432929 5.922146 0
M  V30 5 C 3.191710 1.089150 4.715464 0
M  V30 6 F 2.981198 2.427039 4.545645 0
M  V30 7 C 3.180381 0.362630 3.527745 0
M  V30 8 C 2.968638 0.922640 2.195669 0
M  V30 9 C 4.049927 1.357586 1.450587 0
M  V30 10 C 3.773390 1.875674 0.199513 0
M  V30 11 C 2.479400 1.951872 -0.275735 0
M  V30 12 C 1.432495 1.507726 0.498404 0
M  V30 13 C 0.093255 1.620036 -0.069785 0
M  V30 14 O -0.135132 2.092401 -1.205089 0
M  V30 15 N -1.088090 1.205171 0.606627 0
M  V30 16 C -2.231112 1.456551 -0.234620 0
M  V30 17 C -2.859047 2.680240 -0.130691 0
M  V30 18 N -3.929016 2.964483 -0.892538 0
M  V30 19 C -4.386581 2.043786 -1.761720 0
M  V30 20 C -3.743010 0.827235 -1.848613 0
M  V30 21 C -2.657690 0.456486 -1.118873 0
M  V30 22 C -1.980974 -0.852627 -1.223004 0 CFG=1
M  V30 23 C -2.556368 -1.891167 -0.313261 0
M  V30 24 C -1.671924 -3.119998 -0.395493 0 CFG=1
M  V30 25 N -2.154241 -4.047661 0.615850 0
M  V30 26 C -1.933947 -3.694545 -1.767146 0 CFG=2
M  V30 27 O -1.437294 -4.964689 -1.923178 0
M  V30 28 C -1.470317 -2.739989 -2.834086 0 CFG=1
M  V30 29 C -1.940818 -3.153366 -4.205886 0
M  V30 30 C -1.772859 -1.313215 -2.620199 0
M  V30 31 N 1.706611 0.999840 1.725540 0
M  V30 32 C 3.383127 -1.009081 3.568872 0
M  V30 33 F 3.388100 -1.799645 2.452651 0
M  V30 34 H 3.702290 -3.621357 3.865682 0
M  V30 35 H 4.877174 -3.255341 5.205202 0
M  V30 36 H 3.095727 -3.631124 5.548513 0
M  V30 37 H 3.760665 -1.342239 6.923686 0
M  V30 38 H 3.399556 1.066301 6.799891 0
M  V30 39 H 5.059901 1.292560 1.834170 0
M  V30 40 H 4.615103 2.226509 -0.408567 0
M  V30 41 H 2.360645 2.364816 -1.249347 0
M  V30 42 H -0.999003 0.789101 1.580586 0
M  V30 43 H -2.489048 3.419577 0.569452 0
M  V30 44 H -5.257973 2.292937 -2.372958 0
M  V30 45 H -4.173469 0.156226 -2.562891 0
M  V30 46 H -0.943223 -0.660988 -0.810181 0
M  V30 47 H -3.560039 -2.245862 -0.635792 0
M  V30 48 H -2.535131 -1.577177 0.741613 0
M  V30 49 H -0.597994 -2.882618 -0.266992 0
M  V30 50 H -3.131912 -3.828161 0.915116 0
M  V30 51 H -1.577876 -4.053013 1.483788 0
M  V30 52 H -3.043452 -3.765916 -1.853050 0
M  V30 53 H -0.926299 -5.325912 -1.180311 0
M  V30 54 H -0.345133 -2.840034 -2.843845 0
M  V30 55 H -2.921050 -2.735295 -4.480162 0
M  V30 56 H -1.901311 -4.259265 -4.228881 0
M  V30 57 H -1.199614 -2.770796 -4.959752 0
M  V30 58 H -2.707621 -1.089961 -3.202612 0
M  V30 59 H -0.993496 -0.694071 -3.156751 0
M  V30 END ATOM
M  V30 BEGIN BOND
M  V30 1 1 1 2
M  V30 2 2 2 3
M  V30 3 1 3 4
M  V30 4 2 4 5
M  V30 5 1 5 6
M  V30 6 1 5 7
M  V30 7 1 7 8
M  V30 8 2 8 9
M  V30 9 1 9 10
M  V30 10 2 10 11
M  V30 11 1 11 12
M  V30 12 1 12 13
M  V30 13 2 13 14
M  V30 14 1 13 15
M  V30 15 1 15 16
M  V30 16 2 16 17
M  V30 17 1 17 18
M  V30 18 2 18 19
M  V30 19 1 19 20
M  V30 20 2 20 21
M  V30 21 1 21 22
M  V30 22 1 22 23
M  V30 23 1 23 24
M  V30 24 1 24 25
M  V30 25 1 24 26
M  V30 26 1 26 27
M  V30 27 1 26 28
M  V30 28 1 28 29
M  V30 29 1 28 30
M  V30 30 2 12 31
M  V30 31 2 7 32
M  V30 32 1 32 33
M  V30 33 1 32 2
M  V30 34 1 31 8
M  V30 35 1 21 16
M  V30 36 1 30 22
M  V30 37 1 1 34
M  V30 38 1 1 35
M  V30 39 1 1 36
M  V30 40 1 3 37
M  V30 41 1 4 38
M  V30 42 1 9 39
M  V30 43 1 10 40
M  V30 44 1 11 41
M  V30 45 1 15 42
M  V30 46 1 17 43
M  V30 47 1 19 44
M  V30 48 1 20 45
M  V30 49 1 22 46 CFG=1
M  V30 50 1 23 47
M  V30 51 1 23 48
M  V30 52 1 24 49 CFG=1
M  V30 53 1 25 50
M  V30 54 1 25 51
M  V30 55 1 26 52 CFG=3
M  V30 56 1 27 53
M  V30 57 1 28 54 CFG=3
M  V30 58 1 29 55
M  V30 59 1 29 56
M  V30 60 1 29 57
M  V30 61 1 30 58
M  V30 62 1 30 59
M  V30 END BOND
M  V30 END CTAB
M  END
>  <Dataset>  (399) 
ChEMBL_Kinases

>  <Ligand_Instance>  (399) 
nan

>  <PDB_ID>  (399) 
nan

>  <Standardized_SMILES>  (399) 
Cc1ccc(F)c(-c2cccc(C(=O)Nc3cnccc3[C@H]3C[C@@H](N)[C@H](O)[C@@H](C)C3)n2)c1F

>  <Name>  (399) 
nan

>  <Pocket>  (399) 
nan

>  <ATP_Site>  (399) 
nan

>  <Peripheral>  (399) 
nan

>  <Num_H_Atoms_ProtBoundConf>  (399) 
nan

>  <Num_Resolved_Atoms>  (399) 
nan

>  <Num_Not_Resolved_Atoms>  (399) 
nan

$$$$
CHEMBL3651917
     RDKit          3D

  0  0  0  0  0  0  0  0  0  0999 V3000
M  V30 BEGIN CTAB
M  V30 COUNTS 61 64 0 0 0
M  V30 BEGIN ATOM
M  V30 1 C 1.796576 3.512282 5.159277 0
M  V30 2 C 3.167082 3.703012 4.545854 0
M  V30 3 C 3.385992 2.669769 3.514190 0
M  V30 4 C 4.203605 1.605079 3.790101 0
M  V30 5 C 4.390709 0.643331 2.789930 0
M  V30 6 C 3.729912 0.835467 1.577435 0
M  V30 7 F 3.950057 -0.126232 0.651435 0
M  V30 8 C 2.912131 1.914820 1.323038 0
M  V30 9 C 2.279989 1.995996 0.010715 0
M  V30 10 C 2.765105 2.606818 -1.135957 0
M  V30 11 C 2.022089 2.582983 -2.297081 0
M  V30 12 C 0.786692 1.945947 -2.316208 0
M  V30 13 C 0.327359 1.345896 -1.161317 0
M  V30 14 C -0.978502 0.692355 -1.247150 0
M  V30 15 O -1.669369 0.659084 -2.298132 0
M  V30 16 N -1.431364 0.089878 -0.068038 0
M  V30 17 C -2.588785 -0.639550 0.333938 0
M  V30 18 C -3.684142 0.033155 0.837450 0
M  V30 19 N -4.764087 -0.662732 1.212290 0
M  V30 20 C -4.782829 -1.994260 1.100645 0
M  V30 21 C -3.696491 -2.655741 0.601777 0
M  V30 22 C -2.539578 -2.026354 0.189979 0
M  V30 23 C -1.354066 -2.740484 -0.353099 0 CFG=2
M  V30 24 C -1.341902 -2.941870 -1.810816 0
M  V30 25 C -1.765999 -4.259746 -2.347230 0 CFG=2
M  V30 26 C -3.087442 -4.162651 -3.125905 0
M  V30 27 C -1.914860 -5.357743 -1.332667 0
M  V30 28 C -0.831359 -5.195499 -0.320845 0 CFG=2
M  V30 29 N -0.791223 -6.373367 0.508767 0
M  V30 30 C -1.079126 -3.942027 0.480438 0
M  V30 31 N 1.088188 1.395106 -0.051698 0
M  V30 32 C 2.732937 2.858616 2.314484 0
M  V30 33 F 1.926874 3.897704 2.027495 0
M  V30 34 H 1.300360 2.576610 4.832847 0
M  V30 35 H 1.861175 3.549218 6.276663 0
M  V30 36 H 1.099981 4.336680 4.882689 0
M  V30 37 H 3.958555 3.679505 5.332673 0
M  V30 38 H 3.159181 4.700617 4.039685 0
M  V30 39 H 4.711828 1.462431 4.730711 0
M  V30 40 H 5.028118 -0.210420 2.970029 0
M  V30 41 H 3.738548 3.072943 -1.005801 0
M  V30 42 H 2.440092 3.072527 -3.166230 0
M  V30 43 H 0.217398 1.939034 -3.242257 0
M  V30 44 H -0.879341 0.097291 0.837258 0
M  V30 45 H -3.679625 1.121016 0.933106 0
M  V30 46 H -5.690231 -2.485915 1.424105 0
M  V30 47 H -3.777030 -3.711305 0.539958 0
M  V30 48 H -0.508767 -2.022907 -0.108214 0
M  V30 49 H -0.288627 -2.773743 -2.189402 0
M  V30 50 H -1.892066 -2.078961 -2.275639 0
M  V30 51 H -1.051998 -4.658443 -3.130316 0
M  V30 52 H -3.182445 -5.016990 -3.830054 0
M  V30 53 H -3.894862 -4.208500 -2.351026 0
M  V30 54 H -3.150333 -3.173350 -3.596828 0
M  V30 55 H -2.934732 -5.418557 -0.906800 0
M  V30 56 H -1.727689 -6.346955 -1.835845 0
M  V30 57 H 0.130644 -5.153947 -0.872217 0
M  V30 58 H -1.287851 -7.166769 0.042968 0
M  V30 59 H 0.186610 -6.728131 0.669502 0
M  V30 60 H -1.904775 -4.172277 1.184979 0
M  V30 61 H -0.174102 -3.850362 1.145788 0
M  V30 END ATOM
M  V30 BEGIN BOND
M  V30 1 1 1 2
M  V30 2 1 2 3
M  V30 3 2 3 4
M  V30 4 1 4 5
M  V30 5 2 5 6
M  V30 6 1 6 7
M  V30 7 1 6 8
M  V30 8 1 8 9
M  V30 9 2 9 10
M  V30 10 1 10 11
M  V30 11 2 11 12
M  V30 12 1 12 13
M  V30 13 1 13 14
M  V30 14 2 14 15
M  V30 15 1 14 16
M  V30 16 1 16 17
M  V30 17 2 17 18
M  V30 18 1 18 19
M  V30 19 2 19 20
M  V30 20 1 20 21
M  V30 21 2 21 22
M  V30 22 1 22 23
M  V30 23 1 23 24
M  V30 24 1 24 25
M  V30 25 1 25 26
M  V30 26 1 25 27
M  V30 27 1 27 28
M  V30 28 1 28 29
M  V30 29 1 28 30
M  V30 30 2 13 31
M  V30 31 2 8 32
M  V30 32 1 32 33
M  V30 33 1 32 3
M  V30 34 1 31 9
M  V30 35 1 22 17
M  V30 36 1 30 23
M  V30 37 1 1 34
M  V30 38 1 1 35
M  V30 39 1 1 36
M  V30 40 1 2 37
M  V30 41 1 2 38
M  V30 42 1 4 39
M  V30 43 1 5 40
M  V30 44 1 10 41
M  V30 45 1 11 42
M  V30 46 1 12 43
M  V30 47 1 16 44
M  V30 48 1 18 45
M  V30 49 1 20 46
M  V30 50 1 21 47
M  V30 51 1 23 48 CFG=3
M  V30 52 1 24 49
M  V30 53 1 24 50
M  V30 54 1 25 51 CFG=3
M  V30 55 1 26 52
M  V30 56 1 26 53
M  V30 57 1 26 54
M  V30 58 1 27 55
M  V30 59 1 27 56
M  V30 60 1 28 57 CFG=3
M  V30 61 1 29 58
M  V30 62 1 29 59
M  V30 63 1 30 60
M  V30 64 1 30 61
M  V30 END BOND
M  V30 END CTAB
M  END
>  <Dataset>  (400) 
ChEMBL_Kinases

>  <Ligand_Instance>  (400) 
nan

>  <PDB_ID>  (400) 
nan

>  <Standardized_SMILES>  (400) 
CCc1ccc(F)c(-c2cccc(C(=O)Nc3cnccc3[C@@H]3C[C@H](C)C[C@H](N)C3)n2)c1F

>  <Name>  (400) 
nan

>  <Pocket>  (400) 
nan

>  <ATP_Site>  (400) 
nan

>  <Peripheral>  (400) 
nan

>  <Num_H_Atoms_ProtBoundConf>  (400) 
nan

>  <Num_Resolved_Atoms>  (400) 
nan

>  <Num_Not_Resolved_Atoms>  (400) 
nan

$$$$
CHEMBL3651918
     RDKit          3D

  0  0  0  0  0  0  0  0  0  0999 V3000
M  V30 BEGIN CTAB
M  V30 COUNTS 58 61 0 0 0
M  V30 BEGIN ATOM
M  V30 1 C 2.834400 -4.317895 3.701464 0
M  V30 2 C 3.427227 -3.050984 3.172967 0
M  V30 3 C 4.291250 -2.291869 3.950903 0
M  V30 4 C 4.811579 -1.129027 3.414653 0
M  V30 5 C 4.482663 -0.728270 2.136486 0
M  V30 6 F 5.068038 0.443815 1.727020 0
M  V30 7 C 3.613995 -1.490360 1.352791 0
M  V30 8 C 3.329244 -0.977267 0.009707 0
M  V30 9 N 2.271644 -0.159128 -0.036087 0
M  V30 10 C 1.817967 0.429845 -1.137410 0
M  V30 11 C 0.669426 1.325013 -1.217473 0
M  V30 12 O 0.267405 1.865384 -2.277141 0
M  V30 13 N 0.009218 1.561145 0.001687 0
M  V30 14 C -1.110738 2.319062 0.446114 0
M  V30 15 C -0.933325 3.622907 0.866900 0
M  V30 16 N -2.003647 4.356040 1.294693 0
M  V30 17 C -3.242409 3.798213 1.304680 0
M  V30 18 C -3.480607 2.491085 0.892693 0
M  V30 19 C -2.380897 1.744990 0.455625 0
M  V30 20 N -2.606000 0.399862 0.028347 0
M  V30 21 C -2.335210 -0.166978 -1.279938 0
M  V30 22 C -3.472360 -1.095600 -1.639425 0 CFG=1
M  V30 23 N -3.397939 -1.370649 -3.039124 0
M  V30 24 C -3.269588 -2.327256 -0.782402 0 CFG=2
M  V30 25 O -4.353154 -3.200301 -0.872348 0
M  V30 26 C -2.903643 -1.966307 0.628084 0 CFG=1
M  V30 27 C -1.499413 -2.396373 0.962957 0
M  V30 28 C -3.166476 -0.526924 0.984806 0
M  V30 29 C 2.477970 0.182206 -2.303731 0
M  V30 30 C 3.581315 -0.655542 -2.327659 0
M  V30 31 C 4.026653 -1.253470 -1.156676 0
M  V30 32 F 5.076188 -2.086542 -1.014993 0
M  V30 33 C 3.096236 -2.653023 1.894317 0
M  V30 34 F 2.250958 -3.367692 1.093464 0
M  V30 35 H 3.188313 -5.210757 3.164642 0
M  V30 36 H 1.718128 -4.257806 3.713805 0
M  V30 37 H 3.114168 -4.395915 4.782261 0
M  V30 38 H 4.558362 -2.598342 4.961862 0
M  V30 39 H 5.487969 -0.550712 4.046347 0
M  V30 40 H 0.272822 1.153341 0.939498 0
M  V30 41 H 0.080369 4.053375 0.849753 0
M  V30 42 H -4.077155 4.419132 1.655275 0
M  V30 43 H -4.494697 2.112416 0.927764 0
M  V30 44 H -1.425932 -0.796582 -1.182543 0
M  V30 45 H -2.173186 0.611427 -2.049290 0
M  V30 46 H -4.467365 -0.664417 -1.435208 0
M  V30 47 H -4.296375 -1.206348 -3.530378 0
M  V30 48 H -2.894146 -2.236066 -3.293345 0
M  V30 49 H -2.387817 -2.851666 -1.247519 0
M  V30 50 H -4.196591 -3.890106 -1.568084 0
M  V30 51 H -3.589388 -2.558207 1.278286 0
M  V30 52 H -1.112726 -2.977235 0.101297 0
M  V30 53 H -0.806860 -1.538064 1.076453 0
M  V30 54 H -1.463776 -3.051523 1.845323 0
M  V30 55 H -4.233756 -0.330880 1.133014 0
M  V30 56 H -2.622336 -0.332036 1.942590 0
M  V30 57 H 2.164384 0.631435 -3.256405 0
M  V30 58 H 4.154228 -0.900426 -3.204084 0
M  V30 END ATOM
M  V30 BEGIN BOND
M  V30 1 1 1 2
M  V30 2 2 2 3
M  V30 3 1 3 4
M  V30 4 2 4 5
M  V30 5 1 5 6
M  V30 6 1 5 7
M  V30 7 1 7 8
M  V30 8 2 8 9
M  V30 9 1 9 10
M  V30 10 1 10 11
M  V30 11 2 11 12
M  V30 12 1 11 13
M  V30 13 1 13 14
M  V30 14 2 14 15
M  V30 15 1 15 16
M  V30 16 2 16 17
M  V30 17 1 17 18
M  V30 18 2 18 19
M  V30 19 1 19 20
M  V30 20 1 20 21
M  V30 21 1 21 22
M  V30 22 1 22 23
M  V30 23 1 22 24
M  V30 24 1 24 25
M  V30 25 1 24 26
M  V30 26 1 26 27
M  V30 27 1 26 28
M  V30 28 2 10 29
M  V30 29 1 29 30
M  V30 30 2 30 31
M  V30 31 1 31 32
M  V30 32 2 7 33
M  V30 33 1 33 34
M  V30 34 1 33 2
M  V30 35 1 31 8
M  V30 36 1 19 14
M  V30 37 1 28 20
M  V30 38 1 1 35
M  V30 39 1 1 36
M  V30 40 1 1 37
M  V30 41 1 3 38
M  V30 42 1 4 39
M  V30 43 1 13 40
M  V30 44 1 15 41
M  V30 45 1 17 42
M  V30 46 1 18 43
M  V30 47 1 21 44
M  V30 48 1 21 45
M  V30 49 1 22 46 CFG=3
M  V30 50 1 23 47
M  V30 51 1 23 48
M  V30 52 1 24 49 CFG=3
M  V30 53 1 25 50
M  V30 54 1 26 51 CFG=1
M  V30 55 1 27 52
M  V30 56 1 27 53
M  V30 57 1 27 54
M  V30 58 1 28 55
M  V30 59 1 28 56
M  V30 60 1 29 57
M  V30 61 1 30 58
M  V30 END BOND
M  V30 END CTAB
M  END
>  <Dataset>  (401) 
ChEMBL_Kinases

>  <Ligand_Instance>  (401) 
nan

>  <PDB_ID>  (401) 
nan

>  <Standardized_SMILES>  (401) 
Cc1ccc(F)c(-c2nc(C(=O)Nc3cnccc3N3C[C@@H](N)[C@H](O)[C@@H](C)C3)ccc2F)c1F

>  <Name>  (401) 
nan

>  <Pocket>  (401) 
nan

>  <ATP_Site>  (401) 
nan

>  <Peripheral>  (401) 
nan

>  <Num_H_Atoms_ProtBoundConf>  (401) 
nan

>  <Num_Resolved_Atoms>  (401) 
nan

>  <Num_Not_Resolved_Atoms>  (401) 
nan

$$$$
CHEMBL3651919
     RDKit          3D

  0  0  0  0  0  0  0  0  0  0999 V3000
M  V30 BEGIN CTAB
M  V30 COUNTS 55 58 0 0 0
M  V30 BEGIN ATOM
M  V30 1 C 0.060501 -2.549622 2.778131 0
M  V30 2 C 0.781860 -2.172325 1.511721 0 CFG=1
M  V30 3 C 2.158318 -1.647666 1.775245 0
M  V30 4 N 2.728165 -1.249811 0.477966 0
M  V30 5 C 3.173086 0.000942 -0.089551 0
M  V30 6 C 4.524622 -0.081354 -0.428975 0
M  V30 7 C 5.159670 1.007901 -0.993043 0
M  V30 8 N 4.446086 2.128911 -1.200362 0
M  V30 9 C 3.149339 2.226772 -0.881449 0
M  V30 10 C 2.472480 1.167784 -0.316782 0
M  V30 11 N 1.108355 1.089341 0.081234 0
M  V30 12 C 0.709805 1.462038 1.392468 0
M  V30 13 O 1.628008 1.857424 2.157311 0
M  V30 14 C -0.683280 1.392421 1.832814 0
M  V30 15 C -0.973445 1.775666 3.125513 0
M  V30 16 C -2.302901 1.695392 3.503768 0
M  V30 17 C -3.224105 1.247110 2.580271 0
M  V30 18 C -2.920842 0.866379 1.289120 0
M  V30 19 C -3.922503 0.397377 0.339396 0
M  V30 20 C -5.268735 0.279677 0.612888 0
M  V30 21 C -6.177963 -0.172723 -0.330076 0
M  V30 22 C -5.741232 -0.520111 -1.584682 0
M  V30 23 C -4.401225 -0.413398 -1.888476 0
M  V30 24 C -3.498473 0.045253 -0.923688 0
M  V30 25 F -2.199036 0.139381 -1.245925 0
M  V30 26 N -1.605569 0.958917 0.954461 0
M  V30 27 C 2.857587 -2.413949 -0.412998 0
M  V30 28 C 1.501635 -3.033635 -0.682883 0 CFG=1
M  V30 29 N 1.690959 -4.196411 -1.496908 0
M  V30 30 C 0.836472 -3.396296 0.621786 0 CFG=2
M  V30 31 O -0.470849 -3.810055 0.384897 0
M  V30 32 H -1.042639 -2.414397 2.590541 0
M  V30 33 H 0.179220 -3.606422 3.036383 0
M  V30 34 H 0.285752 -1.850307 3.630664 0
M  V30 35 H 0.203436 -1.415170 0.943070 0
M  V30 36 H 2.807880 -2.490039 2.131009 0
M  V30 37 H 2.114795 -0.823075 2.491144 0
M  V30 38 H 5.178451 -0.935866 -0.301045 0
M  V30 39 H 6.197695 1.057376 -1.294156 0
M  V30 40 H 2.524281 3.108022 -1.026954 0
M  V30 41 H 0.380378 0.749076 -0.607474 0
M  V30 42 H -0.181143 2.116030 3.783785 0
M  V30 43 H -2.562566 1.987619 4.507241 0
M  V30 44 H -4.227108 1.208541 2.931778 0
M  V30 45 H -5.618429 0.551719 1.598692 0
M  V30 46 H -7.223468 -0.228155 -0.008862 0
M  V30 47 H -6.483846 -0.869875 -2.295211 0
M  V30 48 H -4.065602 -0.691233 -2.885710 0
M  V30 49 H 3.436798 -3.177749 0.184394 0
M  V30 50 H 3.386847 -2.186090 -1.335522 0
M  V30 51 H 0.863869 -2.331809 -1.232968 0
M  V30 52 H 2.557067 -4.166665 -2.070577 0
M  V30 53 H 0.894862 -4.395014 -2.144255 0
M  V30 54 H 1.386918 -4.225273 1.111020 0
M  V30 55 H -0.645152 -3.993511 -0.572933 0
M  V30 END ATOM
M  V30 BEGIN BOND
M  V30 1 1 1 2
M  V30 2 1 2 3
M  V30 3 1 3 4
M  V30 4 1 4 5
M  V30 5 2 5 6
M  V30 6 1 6 7
M  V30 7 2 7 8
M  V30 8 1 8 9
M  V30 9 2 9 10
M  V30 10 1 10 11
M  V30 11 1 11 12
M  V30 12 2 12 13
M  V30 13 1 12 14
M  V30 14 2 14 15
M  V30 15 1 15 16
M  V30 16 2 16 17
M  V30 17 1 17 18
M  V30 18 1 18 19
M  V30 19 2 19 20
M  V30 20 1 20 21
M  V30 21 2 21 22
M  V30 22 1 22 23
M  V30 23 2 23 24
M  V30 24 1 24 25
M  V30 25 2 18 26
M  V30 26 1 4 27
M  V30 27 1 27 28
M  V30 28 1 28 29
M  V30 29 1 28 30
M  V30 30 1 30 31
M  V30 31 1 30 2
M  V30 32 1 10 5
M  V30 33 1 26 14
M  V30 34 1 24 19
M  V30 35 1 1 32
M  V30 36 1 1 33
M  V30 37 1 1 34
M  V30 38 1 2 35 CFG=3
M  V30 39 1 3 36
M  V30 40 1 3 37
M  V30 41 1 6 38
M  V30 42 1 7 39
M  V30 43 1 9 40
M  V30 44 1 11 41
M  V30 45 1 15 42
M  V30 46 1 16 43
M  V30 47 1 17 44
M  V30 48 1 20 45
M  V30 49 1 21 46
M  V30 50 1 22 47
M  V30 51 1 23 48
M  V30 52 1 27 49
M  V30 53 1 27 50
M  V30 54 1 28 51 CFG=3
M  V30 55 1 29 52
M  V30 56 1 29 53
M  V30 57 1 30 54 CFG=1
M  V30 58 1 31 55
M  V30 END BOND
M  V30 END CTAB
M  END
>  <Dataset>  (402) 
ChEMBL_Kinases

>  <Ligand_Instance>  (402) 
nan

>  <PDB_ID>  (402) 
nan

>  <Standardized_SMILES>  (402) 
C[C@H]1CN(c2ccncc2NC(=O)c2cccc(-c3ccccc3F)n2)C[C@@H](N)[C@@H]1O

>  <Name>  (402) 
nan

>  <Pocket>  (402) 
nan

>  <ATP_Site>  (402) 
nan

>  <Peripheral>  (402) 
nan

>  <Num_H_Atoms_ProtBoundConf>  (402) 
nan

>  <Num_Resolved_Atoms>  (402) 
nan

>  <Num_Not_Resolved_Atoms>  (402) 
nan

$$$$
CHEMBL3651920
     RDKit          3D

  0  0  0  0  0  0  0  0  0  0999 V3000
M  V30 BEGIN CTAB
M  V30 COUNTS 55 58 0 0 0
M  V30 BEGIN ATOM
M  V30 1 C 2.333571 -4.002953 0.556283 0
M  V30 2 C 1.468338 -3.241160 -0.419586 0 CFG=1
M  V30 3 C 1.288802 -1.802704 0.001897 0
M  V30 4 N 2.455233 -1.006232 -0.209064 0
M  V30 5 C 3.024813 0.061103 0.539135 0
M  V30 6 C 4.296609 -0.138674 1.003935 0
M  V30 7 C 4.859217 0.899962 1.735075 0
M  V30 8 N 4.180876 2.055858 1.976478 0
M  V30 9 C 2.924780 2.247797 1.514941 0
M  V30 10 C 2.326322 1.227431 0.776583 0
M  V30 11 N 1.012347 1.414667 0.287117 0
M  V30 12 C -0.127096 1.043377 1.041101 0
M  V30 13 O 0.180114 0.545625 2.157911 0
M  V30 14 C -1.530017 1.156015 0.711507 0
M  V30 15 N -2.392468 0.710156 1.651089 0
M  V30 16 C -3.736196 0.775012 1.430826 0
M  V30 17 C -4.643261 0.285435 2.465029 0
M  V30 18 C -4.991875 -1.066757 2.380370 0
M  V30 19 F -4.495867 -1.844643 1.381730 0
M  V30 20 C -5.851258 -1.555385 3.349651 0
M  V30 21 C -6.339251 -0.748639 4.348968 0
M  V30 22 C -5.973715 0.587544 4.403887 0
M  V30 23 C -5.123897 1.115695 3.464079 0
M  V30 24 F -4.761436 2.425045 3.512312 0
M  V30 25 C -4.331537 1.273425 0.291780 0
M  V30 26 C -3.443639 1.736923 -0.685468 0
M  V30 27 C -2.108522 1.655175 -0.428216 0
M  V30 28 F -1.273943 2.107189 -1.383458 0
M  V30 29 C 3.214219 -1.343515 -1.420478 0
M  V30 30 C 2.290715 -2.010753 -2.421801 0 CFG=1
M  V30 31 N 3.007366 -2.167821 -3.655755 0
M  V30 32 C 1.971610 -3.377472 -1.835851 0 CFG=2
M  V30 33 O 1.080626 -4.006210 -2.679605 0
M  V30 34 H 2.349725 -3.534570 1.553044 0
M  V30 35 H 3.360888 -4.078524 0.128336 0
M  V30 36 H 1.964815 -5.056875 0.576437 0
M  V30 37 H 0.449173 -3.702012 -0.399998 0
M  V30 38 H 0.405023 -1.377162 -0.497882 0
M  V30 39 H 1.041486 -1.843711 1.101899 0
M  V30 40 H 4.902913 -1.016193 0.860884 0
M  V30 41 H 5.848905 0.913382 2.175651 0
M  V30 42 H 2.414480 3.198139 1.734136 0
M  V30 43 H 0.830716 1.833920 -0.649438 0
M  V30 44 H -6.145554 -2.601263 3.317899 0
M  V30 45 H -7.015191 -1.210126 5.079403 0
M  V30 46 H -6.367825 1.195651 5.193024 0
M  V30 47 H -5.397655 1.296761 0.179549 0
M  V30 48 H -3.821027 2.136737 -1.593684 0
M  V30 49 H 3.954410 -2.107001 -1.104383 0
M  V30 50 H 3.730913 -0.478980 -1.851030 0
M  V30 51 H 1.383254 -1.397455 -2.521100 0
M  V30 52 H 4.042026 -2.104649 -3.578384 0
M  V30 53 H 2.731820 -1.434529 -4.374117 0
M  V30 54 H 2.923363 -3.947283 -1.811842 0
M  V30 55 H 1.566843 -4.635712 -3.253556 0
M  V30 END ATOM
M  V30 BEGIN BOND
M  V30 1 1 1 2
M  V30 2 1 2 3
M  V30 3 1 3 4
M  V30 4 1 4 5
M  V30 5 2 5 6
M  V30 6 1 6 7
M  V30 7 2 7 8
M  V30 8 1 8 9
M  V30 9 2 9 10
M  V30 10 1 10 11
M  V30 11 1 11 12
M  V30 12 2 12 13
M  V30 13 1 12 14
M  V30 14 2 14 15
M  V30 15 1 15 16
M  V30 16 1 16 17
M  V30 17 2 17 18
M  V30 18 1 18 19
M  V30 19 1 18 20
M  V30 20 2 20 21
M  V30 21 1 21 22
M  V30 22 2 22 23
M  V30 23 1 23 24
M  V30 24 2 16 25
M  V30 25 1 25 26
M  V30 26 2 26 27
M  V30 27 1 27 28
M  V30 28 1 4 29
M  V30 29 1 29 30
M  V30 30 1 30 31
M  V30 31 1 30 32
M  V30 32 1 32 33
M  V30 33 1 32 2
M  V30 34 1 10 5
M  V30 35 1 27 14
M  V30 36 1 23 17
M  V30 37 1 1 34
M  V30 38 1 1 35
M  V30 39 1 1 36
M  V30 40 1 2 37 CFG=3
M  V30 41 1 3 38
M  V30 42 1 3 39
M  V30 43 1 6 40
M  V30 44 1 7 41
M  V30 45 1 9 42
M  V30 46 1 11 43
M  V30 47 1 20 44
M  V30 48 1 21 45
M  V30 49 1 22 46
M  V30 50 1 25 47
M  V30 51 1 26 48
M  V30 52 1 29 49
M  V30 53 1 29 50
M  V30 54 1 30 51 CFG=3
M  V30 55 1 31 52
M  V30 56 1 31 53
M  V30 57 1 32 54 CFG=1
M  V30 58 1 33 55
M  V30 END BOND
M  V30 END CTAB
M  END
>  <Dataset>  (403) 
ChEMBL_Kinases

>  <Ligand_Instance>  (403) 
nan

>  <PDB_ID>  (403) 
nan

>  <Standardized_SMILES>  (403) 
C[C@H]1CN(c2ccncc2NC(=O)c2nc(-c3c(F)cccc3F)ccc2F)C[C@@H](N)[C@@H]1O

>  <Name>  (403) 
nan

>  <Pocket>  (403) 
nan

>  <ATP_Site>  (403) 
nan

>  <Peripheral>  (403) 
nan

>  <Num_H_Atoms_ProtBoundConf>  (403) 
nan

>  <Num_Resolved_Atoms>  (403) 
nan

>  <Num_Not_Resolved_Atoms>  (403) 
nan

$$$$
CHEMBL3651921
     RDKit          3D

  0  0  0  0  0  0  0  0  0  0999 V3000
M  V30 BEGIN CTAB
M  V30 COUNTS 55 58 0 0 0
M  V30 BEGIN ATOM
M  V30 1 C 1.791384 -4.600872 1.373901 0
M  V30 2 C 0.879898 -3.389377 1.318584 0 CFG=1
M  V30 3 C 1.606029 -2.125571 1.716272 0
M  V30 4 N 2.391810 -1.621545 0.608507 0
M  V30 5 C 3.195983 -0.464715 0.644334 0
M  V30 6 C 4.532565 -0.805832 0.618056 0
M  V30 7 C 5.560231 0.140202 0.675168 0
M  V30 8 N 5.160405 1.443637 0.760344 0
M  V30 9 C 3.844534 1.748289 0.783864 0
M  V30 10 C 2.816819 0.842196 0.728471 0
M  V30 11 N 1.434203 1.125501 0.743305 0
M  V30 12 C 0.780383 2.373745 0.893490 0
M  V30 13 O 1.469742 3.413851 1.041119 0
M  V30 14 C -0.674340 2.528635 0.887171 0
M  V30 15 C -1.266309 3.739231 1.053599 0
M  V30 16 C -2.627584 3.936979 1.058156 0
M  V30 17 C -3.405339 2.817411 0.880438 0
M  V30 18 F -4.763126 3.001590 0.882220 0
M  V30 19 C -2.794711 1.582604 0.710752 0
M  V30 20 C -3.752022 0.495818 0.530351 0
M  V30 21 C -4.777191 0.240270 1.427796 0
M  V30 22 C -5.687810 -0.789056 1.262932 0
M  V30 23 C -5.585114 -1.621280 0.144330 0
M  V30 24 C -4.572500 -1.385562 -0.761886 0
M  V30 25 C -3.690396 -0.347638 -0.552978 0
M  V30 26 F -2.721751 -0.194519 -1.503714 0
M  V30 27 N -1.459685 1.445813 0.714550 0
M  V30 28 C 2.370054 -2.341674 -0.655363 0
M  V30 29 C 0.895890 -2.490404 -1.024686 0 CFG=1
M  V30 30 N 0.720005 -3.058923 -2.350980 0
M  V30 31 C 0.145562 -3.249926 0.020659 0 CFG=2
M  V30 32 O -1.090756 -2.630707 0.304639 0
M  V30 33 H 1.502354 -5.320440 2.188752 0
M  V30 34 H 1.752384 -5.189808 0.437270 0
M  V30 35 H 2.843692 -4.320016 1.631764 0
M  V30 36 H 0.113899 -3.548053 2.113167 0
M  V30 37 H 2.339604 -2.423384 2.529557 0
M  V30 38 H 0.924307 -1.396024 2.149494 0
M  V30 39 H 4.947802 -1.798231 0.553117 0
M  V30 40 H 6.614752 -0.081529 0.657112 0
M  V30 41 H 3.632085 2.797380 0.851927 0
M  V30 42 H 0.731972 0.367417 0.624267 0
M  V30 43 H -0.651385 4.619168 1.192678 0
M  V30 44 H -3.039296 4.941876 1.198079 0
M  V30 45 H -4.832861 0.904561 2.289105 0
M  V30 46 H -6.437541 -0.864876 2.055642 0
M  V30 47 H -6.353893 -2.391311 0.123481 0
M  V30 48 H -4.549783 -2.068728 -1.609681 0
M  V30 49 H 2.878891 -3.311622 -0.543651 0
M  V30 50 H 2.897456 -1.803482 -1.466932 0
M  V30 51 H 0.487881 -1.458669 -1.065553 0
M  V30 52 H -0.054084 -3.788898 -2.357423 0
M  V30 53 H 0.470200 -2.331921 -3.065196 0
M  V30 54 H -0.109363 -4.259231 -0.345025 0
M  V30 55 H -0.890850 -1.973284 1.031893 0
M  V30 END ATOM
M  V30 BEGIN BOND
M  V30 1 1 1 2
M  V30 2 1 2 3
M  V30 3 1 3 4
M  V30 4 1 4 5
M  V30 5 2 5 6
M  V30 6 1 6 7
M  V30 7 2 7 8
M  V30 8 1 8 9
M  V30 9 2 9 10
M  V30 10 1 10 11
M  V30 11 1 11 12
M  V30 12 2 12 13
M  V30 13 1 12 14
M  V30 14 2 14 15
M  V30 15 1 15 16
M  V30 16 2 16 17
M  V30 17 1 17 18
M  V30 18 1 17 19
M  V30 19 1 19 20
M  V30 20 2 20 21
M  V30 21 1 21 22
M  V30 22 2 22 23
M  V30 23 1 23 24
M  V30 24 2 24 25
M  V30 25 1 25 26
M  V30 26 2 19 27
M  V30 27 1 4 28
M  V30 28 1 28 29
M  V30 29 1 29 30
M  V30 30 1 29 31
M  V30 31 1 31 32
M  V30 32 1 31 2
M  V30 33 1 10 5
M  V30 34 1 27 14
M  V30 35 1 25 20
M  V30 36 1 1 33
M  V30 37 1 1 34
M  V30 38 1 1 35
M  V30 39 1 2 36 CFG=1
M  V30 40 1 3 37
M  V30 41 1 3 38
M  V30 42 1 6 39
M  V30 43 1 7 40
M  V30 44 1 9 41
M  V30 45 1 11 42
M  V30 46 1 15 43
M  V30 47 1 16 44
M  V30 48 1 21 45
M  V30 49 1 22 46
M  V30 50 1 23 47
M  V30 51 1 24 48
M  V30 52 1 28 49
M  V30 53 1 28 50
M  V30 54 1 29 51 CFG=3
M  V30 55 1 30 52
M  V30 56 1 30 53
M  V30 57 1 31 54 CFG=3
M  V30 58 1 32 55
M  V30 END BOND
M  V30 END CTAB
M  END
>  <Dataset>  (404) 
ChEMBL_Kinases

>  <Ligand_Instance>  (404) 
nan

>  <PDB_ID>  (404) 
nan

>  <Standardized_SMILES>  (404) 
C[C@H]1CN(c2ccncc2NC(=O)c2ccc(F)c(-c3ccccc3F)n2)C[C@@H](N)[C@@H]1O

>  <Name>  (404) 
nan

>  <Pocket>  (404) 
nan

>  <ATP_Site>  (404) 
nan

>  <Peripheral>  (404) 
nan

>  <Num_H_Atoms_ProtBoundConf>  (404) 
nan

>  <Num_Resolved_Atoms>  (404) 
nan

>  <Num_Not_Resolved_Atoms>  (404) 
nan

$$$$
CHEMBL3651922
     RDKit          3D

  0  0  0  0  0  0  0  0  0  0999 V3000
M  V30 BEGIN CTAB
M  V30 COUNTS 55 58 0 0 0
M  V30 BEGIN ATOM
M  V30 1 C 2.631778 -3.539596 3.299695 0
M  V30 2 C 1.320545 -3.178853 2.620199 0 CFG=1
M  V30 3 C 1.339550 -1.781059 2.074728 0
M  V30 4 N 1.875157 -1.738328 0.703740 0
M  V30 5 C 2.688529 -0.751574 0.093680 0
M  V30 6 C 3.947243 -1.111336 -0.397619 0
M  V30 7 C 4.839436 -0.229580 -1.019575 0
M  V30 8 N 4.444196 1.059497 -1.148506 0
M  V30 9 C 3.243292 1.468170 -0.695565 0
M  V30 10 C 2.379813 0.580849 -0.085437 0
M  V30 11 N 1.111151 1.014922 0.391249 0
M  V30 12 C 0.605135 1.545835 1.611247 0
M  V30 13 O 1.351281 1.733892 2.607162 0
M  V30 14 C -0.822979 1.837298 1.580969 0
M  V30 15 C -1.350142 2.354614 2.746501 0
M  V30 16 C -2.680389 2.667200 2.836804 0
M  V30 17 C -3.506537 2.464199 1.752626 0
M  V30 18 C -2.962417 1.944559 0.590777 0
M  V30 19 C -3.621876 1.640702 -0.680304 0
M  V30 20 C -4.137972 0.365412 -0.799605 0
M  V30 21 F -4.040056 -0.546348 0.197494 0
M  V30 22 C -4.786894 -0.064758 -1.940024 0
M  V30 23 C -4.915606 0.832369 -2.995902 0
M  V30 24 C -4.396860 2.123408 -2.883928 0
M  V30 25 C -3.752744 2.526156 -1.731228 0
M  V30 26 F -3.234204 3.762186 -1.573605 0
M  V30 27 N -1.653786 1.645492 0.526108 0
M  V30 28 C 1.634907 -2.771564 -0.291055 0
M  V30 29 C 0.554884 -3.649904 0.274976 0 CFG=1
M  V30 30 N 0.084836 -4.668620 -0.629815 0
M  V30 31 C 0.924272 -4.219204 1.616291 0 CFG=2
M  V30 32 O -0.110533 -5.022140 2.094363 0
M  V30 33 H 2.488617 -3.895758 4.342279 0
M  V30 34 H 3.191988 -4.335142 2.771872 0
M  V30 35 H 3.226494 -2.588909 3.356585 0
M  V30 36 H 0.555274 -3.191495 3.425506 0
M  V30 37 H 2.051858 -1.187388 2.683076 0
M  V30 38 H 0.362126 -1.299033 2.063282 0
M  V30 39 H 4.271932 -2.154265 -0.295313 0
M  V30 40 H 5.792300 -0.629819 -1.360556 0
M  V30 41 H 2.946531 2.509943 -0.809918 0
M  V30 42 H 0.524721 0.844566 -0.459492 0
M  V30 43 H -0.741678 2.534793 3.632884 0
M  V30 44 H -3.164620 3.072910 3.707596 0
M  V30 45 H -4.567566 2.654883 1.655779 0
M  V30 46 H -5.193382 -1.061437 -2.040370 0
M  V30 47 H -5.420207 0.501631 -3.886016 0
M  V30 48 H -4.502471 2.820351 -3.717395 0
M  V30 49 H 2.578668 -3.355636 -0.475336 0
M  V30 50 H 1.337569 -2.395943 -1.274869 0
M  V30 51 H -0.325466 -2.969015 0.447063 0
M  V30 52 H 0.584842 -5.562216 -0.593550 0
M  V30 53 H 0.047406 -4.223618 -1.588996 0
M  V30 54 H 1.796432 -4.887889 1.459289 0
M  V30 55 H -0.899291 -4.436345 2.317407 0
M  V30 END ATOM
M  V30 BEGIN BOND
M  V30 1 1 1 2
M  V30 2 1 2 3
M  V30 3 1 3 4
M  V30 4 1 4 5
M  V30 5 2 5 6
M  V30 6 1 6 7
M  V30 7 2 7 8
M  V30 8 1 8 9
M  V30 9 2 9 10
M  V30 10 1 10 11
M  V30 11 1 11 12
M  V30 12 2 12 13
M  V30 13 1 12 14
M  V30 14 2 14 15
M  V30 15 1 15 16
M  V30 16 2 16 17
M  V30 17 1 17 18
M  V30 18 1 18 19
M  V30 19 2 19 20
M  V30 20 1 20 21
M  V30 21 1 20 22
M  V30 22 2 22 23
M  V30 23 1 23 24
M  V30 24 2 24 25
M  V30 25 1 25 26
M  V30 26 2 18 27
M  V30 27 1 4 28
M  V30 28 1 28 29
M  V30 29 1 29 30
M  V30 30 1 29 31
M  V30 31 1 31 32
M  V30 32 1 31 2
M  V30 33 1 10 5
M  V30 34 1 27 14
M  V30 35 1 25 19
M  V30 36 1 1 33
M  V30 37 1 1 34
M  V30 38 1 1 35
M  V30 39 1 2 36 CFG=1
M  V30 40 1 3 37
M  V30 41 1 3 38
M  V30 42 1 6 39
M  V30 43 1 7 40
M  V30 44 1 9 41
M  V30 45 1 11 42
M  V30 46 1 15 43
M  V30 47 1 16 44
M  V30 48 1 17 45
M  V30 49 1 22 46
M  V30 50 1 23 47
M  V30 51 1 24 48
M  V30 52 1 28 49
M  V30 53 1 28 50
M  V30 54 1 29 51 CFG=1
M  V30 55 1 30 52
M  V30 56 1 30 53
M  V30 57 1 31 54 CFG=3
M  V30 58 1 32 55
M  V30 END BOND
M  V30 END CTAB
M  END
>  <Dataset>  (405) 
ChEMBL_Kinases

>  <Ligand_Instance>  (405) 
nan

>  <PDB_ID>  (405) 
nan

>  <Standardized_SMILES>  (405) 
C[C@H]1CN(c2ccncc2NC(=O)c2cccc(-c3c(F)cccc3F)n2)C[C@@H](N)[C@@H]1O

>  <Name>  (405) 
nan

>  <Pocket>  (405) 
nan

>  <ATP_Site>  (405) 
nan

>  <Peripheral>  (405) 
nan

>  <Num_H_Atoms_ProtBoundConf>  (405) 
nan

>  <Num_Resolved_Atoms>  (405) 
nan

>  <Num_Not_Resolved_Atoms>  (405) 
nan

$$$$
CHEMBL3651923
     RDKit          3D

  0  0  0  0  0  0  0  0  0  0999 V3000
M  V30 BEGIN CTAB
M  V30 COUNTS 58 61 0 0 0
M  V30 BEGIN ATOM
M  V30 1 C 1.830184 -2.661363 5.404111 0
M  V30 2 C 2.545664 -1.624164 4.615626 0
M  V30 3 C 3.927322 -1.617909 4.530330 0
M  V30 4 C 4.535699 -0.627502 3.781759 0
M  V30 5 C 3.781122 0.343280 3.127014 0
M  V30 6 F 4.499960 1.269699 2.418034 0
M  V30 7 C 2.403676 0.316674 3.226707 0
M  V30 8 C 1.773814 1.401139 2.482742 0
M  V30 9 N 1.500513 1.053009 1.231277 0
M  V30 10 C 0.912151 1.889363 0.335883 0
M  V30 11 C 0.592841 1.551435 -1.048419 0
M  V30 12 O 0.047144 2.348808 -1.854021 0
M  V30 13 N 0.945266 0.238158 -1.434013 0
M  V30 14 C 0.827633 -0.503440 -2.644258 0
M  V30 15 C 1.849796 -0.465250 -3.563156 0
M  V30 16 N 1.695093 -1.180435 -4.690330 0
M  V30 17 C 0.572465 -1.910496 -4.909351 0
M  V30 18 C -0.481457 -1.987094 -4.028332 0
M  V30 19 C -0.317744 -1.246619 -2.864735 0
M  V30 20 C -1.375988 -1.245364 -1.840618 0 CFG=2
M  V30 21 C -1.238510 -2.328240 -0.799005 0
M  V30 22 C -2.105819 -1.841733 0.352947 0 CFG=2
M  V30 23 C -2.094495 -2.786205 1.529562 0
M  V30 24 C -3.499442 -1.516752 -0.012856 0
M  V30 25 C -3.766161 -1.041078 -1.392498 0 CFG=2
M  V30 26 N -5.047578 -1.568675 -1.824029 0
M  V30 27 C -2.754911 -1.437256 -2.420006 0
M  V30 28 C 0.582391 3.163677 0.747806 0
M  V30 29 C 0.858255 3.544406 2.044313 0
M  V30 30 C 1.455630 2.678938 2.934901 0
M  V30 31 F 1.783056 2.910512 4.223745 0
M  V30 32 C 1.787359 -0.664726 3.969265 0
M  V30 33 F 0.441188 -0.597254 3.999431 0
M  V30 34 H 0.893726 -2.277230 5.867853 0
M  V30 35 H 2.473623 -3.020022 6.253236 0
M  V30 36 H 1.618948 -3.572886 4.807124 0
M  V30 37 H 4.508433 -2.374456 5.040965 0
M  V30 38 H 5.610503 -0.626495 3.718172 0
M  V30 39 H 1.405192 -0.474423 -0.800960 0
M  V30 40 H 2.740140 0.118322 -3.381258 0
M  V30 41 H 0.574613 -2.442294 -5.860678 0
M  V30 42 H -1.352744 -2.578031 -4.241778 0
M  V30 43 H -1.378839 -0.261401 -1.329161 0
M  V30 44 H -1.657834 -3.296809 -1.126599 0
M  V30 45 H -0.212217 -2.437888 -0.419463 0
M  V30 46 H -1.573920 -0.914963 0.717930 0
M  V30 47 H -2.463084 -2.202091 2.404867 0
M  V30 48 H -1.095203 -3.155752 1.808262 0
M  V30 49 H -2.844451 -3.615955 1.412078 0
M  V30 50 H -3.830811 -0.684141 0.676241 0
M  V30 51 H -4.160045 -2.381630 0.262189 0
M  V30 52 H -3.847634 0.080038 -1.446679 0
M  V30 53 H -5.700592 -1.794520 -1.060904 0
M  V30 54 H -5.454975 -1.052163 -2.629246 0
M  V30 55 H -2.874663 -0.819624 -3.321922 0
M  V30 56 H -2.847481 -2.527189 -2.651070 0
M  V30 57 H 0.107092 3.895852 0.088689 0
M  V30 58 H 0.640715 4.520358 2.469556 0
M  V30 END ATOM
M  V30 BEGIN BOND
M  V30 1 1 1 2
M  V30 2 2 2 3
M  V30 3 1 3 4
M  V30 4 2 4 5
M  V30 5 1 5 6
M  V30 6 1 5 7
M  V30 7 1 7 8
M  V30 8 2 8 9
M  V30 9 1 9 10
M  V30 10 1 10 11
M  V30 11 2 11 12
M  V30 12 1 11 13
M  V30 13 1 13 14
M  V30 14 2 14 15
M  V30 15 1 15 16
M  V30 16 2 16 17
M  V30 17 1 17 18
M  V30 18 2 18 19
M  V30 19 1 19 20
M  V30 20 1 20 21
M  V30 21 1 21 22
M  V30 22 1 22 23
M  V30 23 1 22 24
M  V30 24 1 24 25
M  V30 25 1 25 26
M  V30 26 1 25 27
M  V30 27 2 10 28
M  V30 28 1 28 29
M  V30 29 2 29 30
M  V30 30 1 30 31
M  V30 31 2 7 32
M  V30 32 1 32 33
M  V30 33 1 32 2
M  V30 34 1 30 8
M  V30 35 1 19 14
M  V30 36 1 27 20
M  V30 37 1 1 34
M  V30 38 1 1 35
M  V30 39 1 1 36
M  V30 40 1 3 37
M  V30 41 1 4 38
M  V30 42 1 13 39
M  V30 43 1 15 40
M  V30 44 1 17 41
M  V30 45 1 18 42
M  V30 46 1 20 43 CFG=1
M  V30 47 1 21 44
M  V30 48 1 21 45
M  V30 49 1 22 46 CFG=1
M  V30 50 1 23 47
M  V30 51 1 23 48
M  V30 52 1 23 49
M  V30 53 1 24 50
M  V30 54 1 24 51
M  V30 55 1 25 52 CFG=1
M  V30 56 1 26 53
M  V30 57 1 26 54
M  V30 58 1 27 55
M  V30 59 1 27 56
M  V30 60 1 28 57
M  V30 61 1 29 58
M  V30 END BOND
M  V30 END CTAB
M  END
>  <Dataset>  (406) 
ChEMBL_Kinases

>  <Ligand_Instance>  (406) 
nan

>  <PDB_ID>  (406) 
nan

>  <Standardized_SMILES>  (406) 
Cc1ccc(F)c(-c2nc(C(=O)Nc3cnccc3[C@@H]3C[C@H](C)C[C@H](N)C3)ccc2F)c1F

>  <Name>  (406) 
nan

>  <Pocket>  (406) 
nan

>  <ATP_Site>  (406) 
nan

>  <Peripheral>  (406) 
nan

>  <Num_H_Atoms_ProtBoundConf>  (406) 
nan

>  <Num_Resolved_Atoms>  (406) 
nan

>  <Num_Not_Resolved_Atoms>  (406) 
nan

$$$$
CHEMBL3651924
     RDKit          3D

  0  0  0  0  0  0  0  0  0  0999 V3000
M  V30 BEGIN CTAB
M  V30 COUNTS 55 58 0 0 0
M  V30 BEGIN ATOM
M  V30 1 C 0.440815 -1.814748 6.291108 0
M  V30 2 C 1.494768 -1.166592 5.446561 0
M  V30 3 C 2.818698 -1.604008 5.566588 0
M  V30 4 C 3.842832 -1.055268 4.822389 0
M  V30 5 C 3.540034 -0.033775 3.925482 0
M  V30 6 F 4.543182 0.521655 3.179558 0
M  V30 7 C 2.225992 0.397347 3.809220 0
M  V30 8 C 1.991544 1.473417 2.845741 0
M  V30 9 C 2.025948 2.835340 3.058084 0
M  V30 10 C 1.773174 3.691213 2.005014 0
M  V30 11 C 1.485279 3.186971 0.736573 0
M  V30 12 C 1.460957 1.817541 0.567500 0
M  V30 13 C 1.154198 1.343457 -0.780778 0
M  V30 14 O 0.920792 2.067139 -1.757153 0
M  V30 15 N 1.127346 -0.068576 -0.961303 0
M  V30 16 C 0.874164 -0.888638 -2.093721 0
M  V30 17 C 1.904506 -1.280884 -2.918745 0
M  V30 18 N 1.651145 -2.056817 -3.986936 0
M  V30 19 C 0.377125 -2.449078 -4.244948 0
M  V30 20 C -0.701916 -2.088223 -3.453649 0
M  V30 21 C -0.437713 -1.292275 -2.359029 0
M  V30 22 C -1.501348 -0.833530 -1.428040 0 CFG=2
M  V30 23 C -1.739592 -1.796480 -0.291184 0
M  V30 24 C -2.532870 -3.008615 -0.663030 0
M  V30 25 C -3.678854 -2.742212 -1.573946 0
M  V30 26 C -3.938793 -1.294876 -1.862040 0 CFG=2
M  V30 27 N -4.858332 -1.220362 -2.983679 0
M  V30 28 C -2.716628 -0.498119 -2.224421 0
M  V30 29 N 1.710255 1.000194 1.607334 0
M  V30 30 C 1.211074 -0.154411 4.554225 0
M  V30 31 F -0.051455 0.284100 4.419597 0
M  V30 32 H -0.543367 -1.583698 5.797223 0
M  V30 33 H 0.525139 -2.918341 6.289918 0
M  V30 34 H 0.397613 -1.368326 7.293363 0
M  V30 35 H 3.100517 -2.407741 6.262651 0
M  V30 36 H 4.874385 -1.421332 4.939724 0
M  V30 37 H 2.257740 3.113344 4.073352 0
M  V30 38 H 1.813739 4.748843 2.229803 0
M  V30 39 H 1.295989 3.887128 -0.049233 0
M  V30 40 H 1.310565 -0.763712 -0.200493 0
M  V30 41 H 2.941073 -0.986183 -2.744406 0
M  V30 42 H 0.212333 -3.065716 -5.102870 0
M  V30 43 H -1.710104 -2.410684 -3.674263 0
M  V30 44 H -1.194401 0.128802 -0.919246 0
M  V30 45 H -2.223644 -1.254139 0.538178 0
M  V30 46 H -0.755790 -2.161087 0.062626 0
M  V30 47 H -1.896239 -3.809360 -1.107185 0
M  V30 48 H -2.889742 -3.450267 0.312308 0
M  V30 49 H -4.620031 -3.133452 -1.098183 0
M  V30 50 H -3.613738 -3.322446 -2.531893 0
M  V30 51 H -4.455157 -0.780380 -1.023254 0
M  V30 52 H -4.319543 -1.091124 -3.888839 0
M  V30 53 H -5.361355 -2.141028 -3.140930 0
M  V30 54 H -2.579041 -0.602759 -3.338678 0
M  V30 55 H -3.038188 0.581835 -2.124794 0
M  V30 END ATOM
M  V30 BEGIN BOND
M  V30 1 1 1 2
M  V30 2 2 2 3
M  V30 3 1 3 4
M  V30 4 2 4 5
M  V30 5 1 5 6
M  V30 6 1 5 7
M  V30 7 1 7 8
M  V30 8 2 8 9
M  V30 9 1 9 10
M  V30 10 2 10 11
M  V30 11 1 11 12
M  V30 12 1 12 13
M  V30 13 2 13 14
M  V30 14 1 13 15
M  V30 15 1 15 16
M  V30 16 2 16 17
M  V30 17 1 17 18
M  V30 18 2 18 19
M  V30 19 1 19 20
M  V30 20 2 20 21
M  V30 21 1 21 22
M  V30 22 1 22 23
M  V30 23 1 23 24
M  V30 24 1 24 25
M  V30 25 1 25 26
M  V30 26 1 26 27
M  V30 27 1 26 28
M  V30 28 2 12 29
M  V30 29 2 7 30
M  V30 30 1 30 31
M  V30 31 1 30 2
M  V30 32 1 29 8
M  V30 33 1 21 16
M  V30 34 1 28 22
M  V30 35 1 1 32
M  V30 36 1 1 33
M  V30 37 1 1 34
M  V30 38 1 3 35
M  V30 39 1 4 36
M  V30 40 1 9 37
M  V30 41 1 10 38
M  V30 42 1 11 39
M  V30 43 1 15 40
M  V30 44 1 17 41
M  V30 45 1 19 42
M  V30 46 1 20 43
M  V30 47 1 22 44 CFG=1
M  V30 48 1 23 45
M  V30 49 1 23 46
M  V30 50 1 24 47
M  V30 51 1 24 48
M  V30 52 1 25 49
M  V30 53 1 25 50
M  V30 54 1 26 51 CFG=1
M  V30 55 1 27 52
M  V30 56 1 27 53
M  V30 57 1 28 54
M  V30 58 1 28 55
M  V30 END BOND
M  V30 END CTAB
M  END
>  <Dataset>  (407) 
ChEMBL_Kinases

>  <Ligand_Instance>  (407) 
nan

>  <PDB_ID>  (407) 
nan

>  <Standardized_SMILES>  (407) 
Cc1ccc(F)c(-c2cccc(C(=O)Nc3cnccc3[C@@H]3CCC[C@H](N)C3)n2)c1F

>  <Name>  (407) 
nan

>  <Pocket>  (407) 
nan

>  <ATP_Site>  (407) 
nan

>  <Peripheral>  (407) 
nan

>  <Num_H_Atoms_ProtBoundConf>  (407) 
nan

>  <Num_Resolved_Atoms>  (407) 
nan

>  <Num_Not_Resolved_Atoms>  (407) 
nan

$$$$
CHEMBL3651925
     RDKit          3D

  0  0  0  0  0  0  0  0  0  0999 V3000
M  V30 BEGIN CTAB
M  V30 COUNTS 57 60 0 0 0
M  V30 BEGIN ATOM
M  V30 1 C 3.209467 -4.476943 3.038464 0
M  V30 2 C 3.310631 -2.983260 3.102648 0
M  V30 3 C 3.636030 -2.312155 4.268537 0
M  V30 4 C 3.716020 -0.934127 4.272903 0
M  V30 5 C 3.466918 -0.232481 3.097661 0
M  V30 6 F 3.575068 1.116660 3.222797 0
M  V30 7 C 3.143058 -0.903306 1.937933 0
M  V30 8 C 2.916973 -0.003268 0.809924 0
M  V30 9 C 3.922306 0.402321 -0.054001 0
M  V30 10 C 3.615039 1.266873 -1.108414 0
M  V30 11 C 2.302189 1.700602 -1.265155 0
M  V30 12 C 1.332554 1.275565 -0.386776 0
M  V30 13 C -0.005218 1.793270 -0.649057 0
M  V30 14 O -0.284599 2.576685 -1.602386 0
M  V30 15 N -1.052227 1.387844 0.224066 0
M  V30 16 C -2.419944 1.498070 0.509054 0
M  V30 17 C -2.677596 2.630106 1.290910 0
M  V30 18 N -3.936413 2.932236 1.711776 0
M  V30 19 C -4.942400 2.112804 1.358472 0
M  V30 20 C -4.675589 1.001605 0.588565 0
M  V30 21 C -3.407392 0.628968 0.120191 0
M  V30 22 C -3.149248 -0.548307 -0.693926 0 CFG=2
M  V30 23 C -2.451871 -1.667491 0.047877 0
M  V30 24 C -2.648159 -2.934746 -0.755169 0 CFG=2
M  V30 25 N -1.824191 -3.949086 -0.106556 0
M  V30 26 C -2.165233 -2.793324 -2.166510 0
M  V30 27 C -1.603680 -1.418919 -2.459336 0 CFG=2
M  V30 28 N -0.279892 -1.207695 -1.948317 0
M  V30 29 C -2.578918 -0.329017 -2.054199 0
M  V30 30 N 1.634834 0.435577 0.636534 0
M  V30 31 C 3.064539 -2.286077 1.940664 0
M  V30 32 F 2.739797 -2.837575 0.749330 0
M  V30 33 H 2.248761 -4.810173 2.592586 0
M  V30 34 H 4.016056 -4.910705 2.415772 0
M  V30 35 H 3.202917 -4.826756 4.084984 0
M  V30 36 H 3.820672 -2.919233 5.159537 0
M  V30 37 H 3.972803 -0.443892 5.202250 0
M  V30 38 H 4.928887 0.035220 0.112018 0
M  V30 39 H 4.373622 1.591382 -1.785042 0
M  V30 40 H 2.057126 2.381550 -2.094577 0
M  V30 41 H -0.790860 0.730377 1.021572 0
M  V30 42 H -1.956923 3.353681 1.632791 0
M  V30 43 H -5.961838 2.305334 1.665413 0
M  V30 44 H -5.521274 0.359073 0.321760 0
M  V30 45 H -4.190147 -0.993617 -0.888794 0
M  V30 46 H -2.959183 -1.831540 1.019079 0
M  V30 47 H -1.385352 -1.473074 0.129826 0
M  V30 48 H -3.696853 -3.292444 -0.690893 0
M  V30 49 H -1.902049 -4.877253 -0.581415 0
M  V30 50 H -0.838843 -3.646134 -0.018090 0
M  V30 51 H -2.940472 -3.003914 -2.919061 0
M  V30 52 H -1.316862 -3.503259 -2.399042 0
M  V30 53 H -1.517076 -1.385758 -3.586778 0
M  V30 54 H 0.265472 -2.076788 -1.828540 0
M  V30 55 H 0.183619 -0.472073 -2.525739 0
M  V30 56 H -3.400695 -0.399712 -2.844081 0
M  V30 57 H -2.112350 0.654546 -2.182946 0
M  V30 END ATOM
M  V30 BEGIN BOND
M  V30 1 1 1 2
M  V30 2 2 2 3
M  V30 3 1 3 4
M  V30 4 2 4 5
M  V30 5 1 5 6
M  V30 6 1 5 7
M  V30 7 1 7 8
M  V30 8 2 8 9
M  V30 9 1 9 10
M  V30 10 2 10 11
M  V30 11 1 11 12
M  V30 12 1 12 13
M  V30 13 2 13 14
M  V30 14 1 13 15
M  V30 15 1 15 16
M  V30 16 2 16 17
M  V30 17 1 17 18
M  V30 18 2 18 19
M  V30 19 1 19 20
M  V30 20 2 20 21
M  V30 21 1 21 22
M  V30 22 1 22 23
M  V30 23 1 23 24
M  V30 24 1 24 25
M  V30 25 1 24 26
M  V30 26 1 26 27
M  V30 27 1 27 28
M  V30 28 1 27 29
M  V30 29 2 12 30
M  V30 30 2 7 31
M  V30 31 1 31 32
M  V30 32 1 31 2
M  V30 33 1 30 8
M  V30 34 1 21 16
M  V30 35 1 29 22
M  V30 36 1 1 33
M  V30 37 1 1 34
M  V30 38 1 1 35
M  V30 39 1 3 36
M  V30 40 1 4 37
M  V30 41 1 9 38
M  V30 42 1 10 39
M  V30 43 1 11 40
M  V30 44 1 15 41
M  V30 45 1 17 42
M  V30 46 1 19 43
M  V30 47 1 20 44
M  V30 48 1 22 45 CFG=3
M  V30 49 1 23 46
M  V30 50 1 23 47
M  V30 51 1 24 48 CFG=3
M  V30 52 1 25 49
M  V30 53 1 25 50
M  V30 54 1 26 51
M  V30 55 1 26 52
M  V30 56 1 27 53 CFG=3
M  V30 57 1 28 54
M  V30 58 1 28 55
M  V30 59 1 29 56
M  V30 60 1 29 57
M  V30 END BOND
M  V30 END CTAB
M  END
>  <Dataset>  (408) 
ChEMBL_Kinases

>  <Ligand_Instance>  (408) 
nan

>  <PDB_ID>  (408) 
nan

>  <Standardized_SMILES>  (408) 
Cc1ccc(F)c(-c2cccc(C(=O)Nc3cnccc3[C@@H]3C[C@H](N)C[C@H](N)C3)n2)c1F

>  <Name>  (408) 
nan

>  <Pocket>  (408) 
nan

>  <ATP_Site>  (408) 
nan

>  <Peripheral>  (408) 
nan

>  <Num_H_Atoms_ProtBoundConf>  (408) 
nan

>  <Num_Resolved_Atoms>  (408) 
nan

>  <Num_Not_Resolved_Atoms>  (408) 
nan

$$$$
CHEMBL3651916
     RDKit          3D

  0  0  0  0  0  0  0  0  0  0999 V3000
M  V30 BEGIN CTAB
M  V30 COUNTS 55 58 0 0 0
M  V30 BEGIN ATOM
M  V30 1 C 3.048294 -5.410023 0.251843 0
M  V30 2 C 3.679998 -4.068026 0.044745 0
M  V30 3 C 4.906844 -3.757772 0.564892 0
M  V30 4 C 5.534393 -2.526593 0.399941 0
M  V30 5 C 4.846104 -1.576077 -0.343798 0
M  V30 6 F 5.367748 -0.334322 -0.568619 0
M  V30 7 C 3.618394 -1.833292 -0.885745 0
M  V30 8 C 2.821488 -0.903760 -1.678072 0
M  V30 9 N 1.998540 -0.156327 -0.958494 0
M  V30 10 C 1.169020 0.773444 -1.509768 0
M  V30 11 C 0.239603 1.628933 -0.778802 0
M  V30 12 O -0.514195 2.481180 -1.334005 0
M  V30 13 N 0.250384 1.423578 0.628516 0
M  V30 14 C -0.431913 1.970597 1.752077 0
M  V30 15 C 0.120052 3.051543 2.371491 0
M  V30 16 N -0.541918 3.564650 3.444398 0
M  V30 17 C -1.701559 3.000935 3.856249 0
M  V30 18 C -2.245042 1.906756 3.216382 0
M  V30 19 C -1.624148 1.327394 2.111640 0
M  V30 20 C -2.123023 0.156053 1.356192 0 CFG=2
M  V30 21 C -3.027925 0.522374 0.222917 0
M  V30 22 C -4.490653 0.440912 0.533552 0
M  V30 23 C -4.916286 -0.738722 1.338181 0
M  V30 24 C -3.773799 -1.692175 1.481056 0 CFG=2
M  V30 25 N -4.122728 -2.883264 2.203011 0
M  V30 26 C -2.674957 -0.941149 2.227884 0
M  V30 27 C 1.205067 0.922774 -2.859140 0
M  V30 28 C 2.035746 0.180038 -3.670261 0
M  V30 29 C 2.855462 -0.749088 -3.050733 0
M  V30 30 F 3.736581 -1.566131 -3.699553 0
M  V30 31 C 3.027949 -3.077390 -0.696099 0
M  V30 32 F 1.807099 -3.427535 -1.197043 0
M  V30 33 H 3.767476 -6.227579 0.293502 0
M  V30 34 H 2.455856 -5.403559 1.210572 0
M  V30 35 H 2.291292 -5.609567 -0.545259 0
M  V30 36 H 5.432831 -4.506473 1.142347 0
M  V30 37 H 6.491925 -2.298640 0.811413 0
M  V30 38 H 0.870138 0.719380 1.109387 0
M  V30 39 H 1.040115 3.478771 2.024680 0
M  V30 40 H -2.255141 3.388109 4.711375 0
M  V30 41 H -3.170740 1.451855 3.540063 0
M  V30 42 H -1.209744 -0.294237 0.879936 0
M  V30 43 H -2.819905 1.586755 -0.026556 0
M  V30 44 H -2.803897 -0.061678 -0.694505 0
M  V30 45 H -5.029348 0.400216 -0.437913 0
M  V30 46 H -4.848509 1.417934 0.974451 0
M  V30 47 H -5.341051 -0.486939 2.337189 0
M  V30 48 H -5.749023 -1.314376 0.836449 0
M  V30 49 H -3.372950 -1.966411 0.496305 0
M  V30 50 H -3.685432 -3.758629 1.842184 0
M  V30 51 H -3.907152 -2.793947 3.238665 0
M  V30 52 H -3.042789 -0.553615 3.197175 0
M  V30 53 H -1.924962 -1.720343 2.498932 0
M  V30 54 H 0.577317 1.639056 -3.368222 0
M  V30 55 H 2.098154 0.263467 -4.739756 0
M  V30 END ATOM
M  V30 BEGIN BOND
M  V30 1 1 1 2
M  V30 2 2 2 3
M  V30 3 1 3 4
M  V30 4 2 4 5
M  V30 5 1 5 6
M  V30 6 1 5 7
M  V30 7 1 7 8
M  V30 8 2 8 9
M  V30 9 1 9 10
M  V30 10 1 10 11
M  V30 11 2 11 12
M  V30 12 1 11 13
M  V30 13 1 13 14
M  V30 14 2 14 15
M  V30 15 1 15 16
M  V30 16 2 16 17
M  V30 17 1 17 18
M  V30 18 2 18 19
M  V30 19 1 19 20
M  V30 20 1 20 21
M  V30 21 1 21 22
M  V30 22 1 22 23
M  V30 23 1 23 24
M  V30 24 1 24 25
M  V30 25 1 24 26
M  V30 26 2 10 27
M  V30 27 1 27 28
M  V30 28 2 28 29
M  V30 29 1 29 30
M  V30 30 2 7 31
M  V30 31 1 31 32
M  V30 32 1 31 2
M  V30 33 1 29 8
M  V30 34 1 19 14
M  V30 35 1 26 20
M  V30 36 1 1 33
M  V30 37 1 1 34
M  V30 38 1 1 35
M  V30 39 1 3 36
M  V30 40 1 4 37
M  V30 41 1 13 38
M  V30 42 1 15 39
M  V30 43 1 17 40
M  V30 44 1 18 41
M  V30 45 1 20 42 CFG=3
M  V30 46 1 21 43
M  V30 47 1 21 44
M  V30 48 1 22 45
M  V30 49 1 22 46
M  V30 50 1 23 47
M  V30 51 1 23 48
M  V30 52 1 24 49 CFG=3
M  V30 53 1 25 50
M  V30 54 1 25 51
M  V30 55 1 26 52
M  V30 56 1 26 53
M  V30 57 1 27 54
M  V30 58 1 28 55
M  V30 END BOND
M  V30 END CTAB
M  END
>  <Dataset>  (409) 
ChEMBL_Kinases

>  <Ligand_Instance>  (409) 
nan

>  <PDB_ID>  (409) 
nan

>  <Standardized_SMILES>  (409) 
Cc1ccc(F)c(-c2nc(C(=O)Nc3cnccc3[C@@H]3CCC[C@H](N)C3)ccc2F)c1F

>  <Name>  (409) 
nan

>  <Pocket>  (409) 
nan

>  <ATP_Site>  (409) 
nan

>  <Peripheral>  (409) 
nan

>  <Num_H_Atoms_ProtBoundConf>  (409) 
nan

>  <Num_Resolved_Atoms>  (409) 
nan

>  <Num_Not_Resolved_Atoms>  (409) 
nan

$$$$
CHEMBL3651967
     RDKit          3D

  0  0  0  0  0  0  0  0  0  0999 V3000
M  V30 BEGIN CTAB
M  V30 COUNTS 55 58 0 0 0
M  V30 BEGIN ATOM
M  V30 1 C 3.833023 3.260145 0.901385 0
M  V30 2 C 3.539027 1.799351 1.241608 0 CFG=1
M  V30 3 C 3.123682 1.619999 2.650885 0
M  V30 4 C 1.805908 0.896985 2.725390 0 CFG=1
M  V30 5 N 1.241920 0.851677 4.055756 0
M  V30 6 C 0.869498 1.663083 1.774230 0
M  V30 7 C 1.228755 1.161103 0.402121 0 CFG=1
M  V30 8 C 0.536235 1.788986 -0.710952 0
M  V30 9 C 0.900661 2.897716 -1.435386 0
M  V30 10 C 0.207570 3.456512 -2.486950 0
M  V30 11 N -0.944573 2.867551 -2.852690 0
M  V30 12 C -1.404668 1.759631 -2.203978 0
M  V30 13 C -0.673701 1.239201 -1.157571 0
M  V30 14 N -1.261051 0.099729 -0.580812 0
M  V30 15 C -2.193103 -0.044706 0.483853 0
M  V30 16 O -2.669324 0.937500 1.122186 0
M  V30 17 C -2.582867 -1.408996 0.812540 0
M  V30 18 N -2.118142 -2.500363 0.177681 0
M  V30 19 C -2.540210 -3.720299 0.556137 0
M  V30 20 C -2.081401 -4.943843 -0.083607 0
M  V30 21 C -0.979731 -5.690667 0.292068 0
M  V30 22 F -0.315806 -5.166584 1.368384 0
M  V30 23 C -0.629857 -6.845624 -0.389042 0
M  V30 24 C -1.413960 -7.232527 -1.457434 0
M  V30 25 C -2.512067 -6.503958 -1.845730 0
M  V30 26 C -2.860495 -5.357620 -1.170781 0
M  V30 27 F -3.952774 -4.680811 -1.598913 0
M  V30 28 C -3.432271 -3.933060 1.567978 0
M  V30 29 C -3.965655 -2.852786 2.281159 0
M  V30 30 C -3.483252 -1.620297 1.834115 0
M  V30 31 F -3.970076 -0.532494 2.494193 0
M  V30 32 C 2.718622 1.158881 0.180292 0
M  V30 33 H 2.928847 3.877312 0.917968 0
M  V30 34 H 4.570130 3.588328 1.685887 0
M  V30 35 H 4.378254 3.253413 -0.060405 0
M  V30 36 H 4.565498 1.305190 1.156628 0
M  V30 37 H 2.904954 2.654202 3.057359 0
M  V30 38 H 3.895540 1.149134 3.296303 0
M  V30 39 H 1.930473 -0.155436 2.391144 0
M  V30 40 H 1.695836 0.091923 4.592323 0
M  V30 41 H 0.207194 0.766119 4.026610 0
M  V30 42 H -0.135138 1.361154 2.094669 0
M  V30 43 H 1.099672 2.731499 1.947255 0
M  V30 44 H 0.937039 0.064559 0.408665 0
M  V30 45 H 1.823959 3.381464 -1.152364 0
M  V30 46 H 0.595795 4.344534 -2.991591 0
M  V30 47 H -2.323907 1.367646 -2.566827 0
M  V30 48 H -0.884883 -0.744635 -1.091344 0
M  V30 49 H 0.248213 -7.365714 -0.024182 0
M  V30 50 H -1.087632 -8.145684 -1.949605 0
M  V30 51 H -3.037054 -6.928785 -2.705665 0
M  V30 52 H -3.788350 -4.914757 1.891485 0
M  V30 53 H -4.667339 -2.910173 3.086644 0
M  V30 54 H 2.961127 1.739461 -0.765896 0
M  V30 55 H 3.106936 0.124896 -0.085930 0
M  V30 END ATOM
M  V30 BEGIN BOND
M  V30 1 1 1 2
M  V30 2 1 2 3
M  V30 3 1 3 4
M  V30 4 1 4 5
M  V30 5 1 4 6
M  V30 6 1 6 7
M  V30 7 1 7 8
M  V30 8 2 8 9
M  V30 9 1 9 10
M  V30 10 2 10 11
M  V30 11 1 11 12
M  V30 12 2 12 13
M  V30 13 1 13 14
M  V30 14 1 14 15
M  V30 15 2 15 16
M  V30 16 1 15 17
M  V30 17 2 17 18
M  V30 18 1 18 19
M  V30 19 1 19 20
M  V30 20 2 20 21
M  V30 21 1 21 22
M  V30 22 1 21 23
M  V30 23 2 23 24
M  V30 24 1 24 25
M  V30 25 2 25 26
M  V30 26 1 26 27
M  V30 27 2 19 28
M  V30 28 1 28 29
M  V30 29 2 29 30
M  V30 30 1 30 31
M  V30 31 1 7 32
M  V30 32 1 32 2
M  V30 33 1 13 8
M  V30 34 1 30 17
M  V30 35 1 26 20
M  V30 36 1 1 33
M  V30 37 1 1 34
M  V30 38 1 1 35
M  V30 39 1 2 36 CFG=1
M  V30 40 1 3 37
M  V30 41 1 3 38
M  V30 42 1 4 39 CFG=3
M  V30 43 1 5 40
M  V30 44 1 5 41
M  V30 45 1 6 42
M  V30 46 1 6 43
M  V30 47 1 7 44 CFG=1
M  V30 48 1 9 45
M  V30 49 1 10 46
M  V30 50 1 12 47
M  V30 51 1 14 48
M  V30 52 1 23 49
M  V30 53 1 24 50
M  V30 54 1 25 51
M  V30 55 1 28 52
M  V30 56 1 29 53
M  V30 57 1 32 54
M  V30 58 1 32 55
M  V30 END BOND
M  V30 END CTAB
M  END
>  <Dataset>  (410) 
ChEMBL_Kinases

>  <Ligand_Instance>  (410) 
nan

>  <PDB_ID>  (410) 
nan

>  <Standardized_SMILES>  (410) 
C[C@H]1C[C@@H](N)C[C@@H](c2ccncc2NC(=O)c2nc(-c3c(F)cccc3F)ccc2F)C1

>  <Name>  (410) 
nan

>  <Pocket>  (410) 
nan

>  <ATP_Site>  (410) 
nan

>  <Peripheral>  (410) 
nan

>  <Num_H_Atoms_ProtBoundConf>  (410) 
nan

>  <Num_Resolved_Atoms>  (410) 
nan

>  <Num_Not_Resolved_Atoms>  (410) 
nan

$$$$
CHEMBL3652636
     RDKit          3D

  0  0  0  0  0  0  0  0  0  0999 V3000
M  V30 BEGIN CTAB
M  V30 COUNTS 57 60 0 0 0
M  V30 BEGIN ATOM
M  V30 1 C -3.451377 -4.069003 2.542010 0
M  V30 2 N -2.938121 -2.720118 2.693996 0
M  V30 3 N -3.288870 -1.762231 3.537093 0
M  V30 4 C -2.546361 -0.657039 3.330838 0
M  V30 5 C -1.683532 -0.975555 2.283616 0
M  V30 6 N -0.740196 -0.024631 1.792991 0
M  V30 7 C -1.194111 0.802695 0.749558 0
M  V30 8 O -2.352462 0.738579 0.253353 0
M  V30 9 C -0.301078 1.807579 0.180543 0
M  V30 10 N 0.950192 1.968930 0.624641 0
M  V30 11 C 1.810491 2.871696 0.141134 0
M  V30 12 C 3.155776 2.963105 0.700344 0
M  V30 13 C 4.122211 3.852169 0.282365 0
M  V30 14 C 5.389208 3.926098 0.820993 0
M  V30 15 C 5.700740 3.037366 1.856209 0
M  V30 16 C 4.774122 2.112383 2.329168 0
M  V30 17 C 3.534488 2.119148 1.723450 0
M  V30 18 F 2.660591 1.194784 2.221322 0
M  V30 19 C 1.388730 3.693340 -0.881276 0
M  V30 20 C 0.099453 3.611066 -1.422410 0
M  V30 21 C -0.695712 2.643685 -0.843133 0
M  V30 22 N -2.017485 2.513116 -1.352551 0
M  V30 23 C -1.945610 -2.287787 1.891832 0
M  V30 24 N -1.193686 -2.863779 0.829005 0
M  V30 25 C 0.016847 -3.565934 1.100744 0
M  V30 26 C 0.097124 -4.924010 0.466144 0
M  V30 27 C -0.527581 -5.017595 -0.882046 0
M  V30 28 C -1.833859 -4.270757 -0.968761 0 CFG=2
M  V30 29 C -2.309325 -4.248969 -2.405576 0
M  V30 30 N -1.305032 -3.582905 -3.217473 0
M  V30 31 C -1.515687 -2.828689 -0.580698 0
M  V30 32 H -4.106802 -4.178414 1.642432 0
M  V30 33 H -2.658705 -4.842469 2.598684 0
M  V30 34 H -4.145175 -4.289002 3.406555 0
M  V30 35 H -2.707021 0.228972 3.942145 0
M  V30 36 H 0.218655 0.042247 2.190100 0
M  V30 37 H 3.892277 4.535101 -0.508694 0
M  V30 38 H 6.112979 4.641525 0.458320 0
M  V30 39 H 6.709551 3.109719 2.271884 0
M  V30 40 H 5.033286 1.433905 3.129761 0
M  V30 41 H 2.035448 4.442411 -1.314996 0
M  V30 42 H -0.236399 4.253210 -2.224589 0
M  V30 43 H -2.084010 2.359659 -2.377593 0
M  V30 44 H -3.016468 2.504138 -1.128124 0
M  V30 45 H 0.851031 -2.947130 0.680892 0
M  V30 46 H 0.194018 -3.620906 2.179386 0
M  V30 47 H -0.368929 -5.648698 1.166940 0
M  V30 48 H 1.173921 -5.240722 0.382524 0
M  V30 49 H 0.161015 -4.524653 -1.610835 0
M  V30 50 H -0.652046 -6.103596 -1.116092 0
M  V30 51 H -2.595108 -4.616567 -0.269197 0
M  V30 52 H -2.426232 -5.273449 -2.815005 0
M  V30 53 H -3.272583 -3.712951 -2.470855 0
M  V30 54 H -1.456279 -3.840514 -4.202412 0
M  V30 55 H -1.409860 -2.528995 -3.152563 0
M  V30 56 H -0.621481 -2.515028 -1.162169 0
M  V30 57 H -2.422960 -2.238280 -0.802839 0
M  V30 END ATOM
M  V30 BEGIN BOND
M  V30 1 1 1 2
M  V30 2 1 2 3
M  V30 3 2 3 4
M  V30 4 1 4 5
M  V30 5 1 5 6
M  V30 6 1 6 7
M  V30 7 2 7 8
M  V30 8 1 7 9
M  V30 9 2 9 10
M  V30 10 1 10 11
M  V30 11 1 11 12
M  V30 12 2 12 13
M  V30 13 1 13 14
M  V30 14 2 14 15
M  V30 15 1 15 16
M  V30 16 2 16 17
M  V30 17 1 17 18
M  V30 18 2 11 19
M  V30 19 1 19 20
M  V30 20 2 20 21
M  V30 21 1 21 22
M  V30 22 2 5 23
M  V30 23 1 23 24
M  V30 24 1 24 25
M  V30 25 1 25 26
M  V30 26 1 26 27
M  V30 27 1 27 28
M  V30 28 1 28 29
M  V30 29 1 29 30
M  V30 30 1 28 31
M  V30 31 1 23 2
M  V30 32 1 31 24
M  V30 33 1 21 9
M  V30 34 1 17 12
M  V30 35 1 1 32
M  V30 36 1 1 33
M  V30 37 1 1 34
M  V30 38 1 4 35
M  V30 39 1 6 36
M  V30 40 1 13 37
M  V30 41 1 14 38
M  V30 42 1 15 39
M  V30 43 1 16 40
M  V30 44 1 19 41
M  V30 45 1 20 42
M  V30 46 1 22 43
M  V30 47 1 22 44
M  V30 48 1 25 45
M  V30 49 1 25 46
M  V30 50 1 26 47
M  V30 51 1 26 48
M  V30 52 1 27 49
M  V30 53 1 27 50
M  V30 54 1 28 51 CFG=1
M  V30 55 1 29 52
M  V30 56 1 29 53
M  V30 57 1 30 54
M  V30 58 1 30 55
M  V30 59 1 31 56
M  V30 60 1 31 57
M  V30 END BOND
M  V30 END CTAB
M  END
>  <Dataset>  (411) 
ChEMBL_Kinases

>  <Ligand_Instance>  (411) 
nan

>  <PDB_ID>  (411) 
nan

>  <Standardized_SMILES>  (411) 
Cn1ncc(NC(=O)c2nc(-c3ccccc3F)ccc2N)c1N1CCC[C@H](CN)C1

>  <Name>  (411) 
nan

>  <Pocket>  (411) 
nan

>  <ATP_Site>  (411) 
nan

>  <Peripheral>  (411) 
nan

>  <Num_H_Atoms_ProtBoundConf>  (411) 
nan

>  <Num_Resolved_Atoms>  (411) 
nan

>  <Num_Not_Resolved_Atoms>  (411) 
nan

$$$$
CHEMBL3651968
     RDKit          3D

  0  0  0  0  0  0  0  0  0  0999 V3000
M  V30 BEGIN CTAB
M  V30 COUNTS 55 58 0 0 0
M  V30 BEGIN ATOM
M  V30 1 C 2.153692 1.207164 3.333760 0
M  V30 2 C 2.507035 0.731572 1.962502 0 CFG=1
M  V30 3 C 2.551225 -0.798609 1.856285 0
M  V30 4 C 3.100180 -1.142567 0.504292 0 CFG=1
M  V30 5 N 3.225319 -2.583792 0.425742 0
M  V30 6 C 2.279609 -0.608481 -0.648951 0
M  V30 7 C 1.950855 0.827699 -0.384760 0 CFG=1
M  V30 8 C 1.344922 1.550009 -1.502634 0
M  V30 9 C 2.120408 2.483519 -2.227072 0
M  V30 10 C 1.743987 3.290026 -3.295088 0
M  V30 11 N 0.464599 3.165563 -3.695470 0
M  V30 12 C -0.330176 2.294622 -3.050793 0
M  V30 13 C 0.059031 1.502775 -1.994766 0
M  V30 14 N -0.825865 0.596363 -1.368976 0
M  V30 15 C -2.203774 0.363531 -1.591022 0
M  V30 16 O -2.822659 1.022927 -2.464545 0
M  V30 17 C -3.013056 -0.612969 -0.870863 0
M  V30 18 C -4.351830 -0.799804 -1.126485 0
M  V30 19 C -5.095700 -1.731986 -0.429478 0
M  V30 20 C -4.499125 -2.502710 0.549409 0
M  V30 21 F -5.261300 -3.407509 1.212596 0
M  V30 22 C -3.153467 -2.305911 0.797226 0
M  V30 23 C -2.543756 -3.130437 1.834976 0
M  V30 24 C -1.945504 -4.347425 1.719886 0
M  V30 25 F -1.925288 -4.842681 0.454375 0
M  V30 26 C -1.417087 -4.989470 2.820810 0
M  V30 27 C -1.498391 -4.378100 4.075415 0
M  V30 28 C -2.101285 -3.144040 4.212590 0
M  V30 29 C -2.628592 -2.513217 3.086545 0
M  V30 30 F -3.202851 -1.293061 3.341411 0
M  V30 31 N -2.456966 -1.386133 0.097043 0
M  V30 32 C 1.373014 1.110495 0.971400 0
M  V30 33 H 1.612420 0.413170 3.920834 0
M  V30 34 H 3.016042 1.486678 3.951404 0
M  V30 35 H 1.485219 2.099033 3.272319 0
M  V30 36 H 3.487748 1.094744 1.592954 0
M  V30 37 H 1.539412 -1.227562 1.990392 0
M  V30 38 H 3.254228 -1.211662 2.601249 0
M  V30 39 H 4.139412 -0.735685 0.435402 0
M  V30 40 H 2.248645 -2.957170 0.273508 0
M  V30 41 H 3.742241 -2.881855 -0.445294 0
M  V30 42 H 2.992867 -0.601560 -1.524422 0
M  V30 43 H 1.460248 -1.275518 -0.872165 0
M  V30 44 H 3.012095 1.299917 -0.288407 0
M  V30 45 H 3.180058 2.648364 -1.966179 0
M  V30 46 H 2.423593 3.970996 -3.775354 0
M  V30 47 H -1.318544 2.301058 -3.478331 0
M  V30 48 H -0.536349 -0.062625 -0.626713 0
M  V30 49 H -4.804803 -0.183832 -1.900911 0
M  V30 50 H -6.135895 -1.799735 -0.706504 0
M  V30 51 H -0.953845 -5.960254 2.652683 0
M  V30 52 H -1.072751 -4.917230 4.901204 0
M  V30 53 H -2.142703 -2.707699 5.198660 0
M  V30 54 H 1.164292 2.180522 1.037223 0
M  V30 55 H 0.554246 0.459606 1.258337 0
M  V30 END ATOM
M  V30 BEGIN BOND
M  V30 1 1 1 2
M  V30 2 1 2 3
M  V30 3 1 3 4
M  V30 4 1 4 5
M  V30 5 1 4 6
M  V30 6 1 6 7
M  V30 7 1 7 8
M  V30 8 2 8 9
M  V30 9 1 9 10
M  V30 10 2 10 11
M  V30 11 1 11 12
M  V30 12 2 12 13
M  V30 13 1 13 14
M  V30 14 1 14 15
M  V30 15 2 15 16
M  V30 16 1 15 17
M  V30 17 2 17 18
M  V30 18 1 18 19
M  V30 19 2 19 20
M  V30 20 1 20 21
M  V30 21 1 20 22
M  V30 22 1 22 23
M  V30 23 2 23 24
M  V30 24 1 24 25
M  V30 25 1 24 26
M  V30 26 2 26 27
M  V30 27 1 27 28
M  V30 28 2 28 29
M  V30 29 1 29 30
M  V30 30 2 22 31
M  V30 31 1 7 32
M  V30 32 1 32 2
M  V30 33 1 13 8
M  V30 34 1 31 17
M  V30 35 1 29 23
M  V30 36 1 1 33
M  V30 37 1 1 34
M  V30 38 1 1 35
M  V30 39 1 2 36 CFG=3
M  V30 40 1 3 37
M  V30 41 1 3 38
M  V30 42 1 4 39 CFG=1
M  V30 43 1 5 40
M  V30 44 1 5 41
M  V30 45 1 6 42
M  V30 46 1 6 43
M  V30 47 1 7 44 CFG=1
M  V30 48 1 9 45
M  V30 49 1 10 46
M  V30 50 1 12 47
M  V30 51 1 14 48
M  V30 52 1 18 49
M  V30 53 1 19 50
M  V30 54 1 26 51
M  V30 55 1 27 52
M  V30 56 1 28 53
M  V30 57 1 32 54
M  V30 58 1 32 55
M  V30 END BOND
M  V30 END CTAB
M  END
>  <Dataset>  (412) 
ChEMBL_Kinases

>  <Ligand_Instance>  (412) 
nan

>  <PDB_ID>  (412) 
nan

>  <Standardized_SMILES>  (412) 
C[C@H]1C[C@@H](N)C[C@@H](c2ccncc2NC(=O)c2ccc(F)c(-c3c(F)cccc3F)n2)C1

>  <Name>  (412) 
nan

>  <Pocket>  (412) 
nan

>  <ATP_Site>  (412) 
nan

>  <Peripheral>  (412) 
nan

>  <Num_H_Atoms_ProtBoundConf>  (412) 
nan

>  <Num_Resolved_Atoms>  (412) 
nan

>  <Num_Not_Resolved_Atoms>  (412) 
nan

$$$$
CHEMBL3651969
     RDKit          3D

  0  0  0  0  0  0  0  0  0  0999 V3000
M  V30 BEGIN CTAB
M  V30 COUNTS 59 62 0 0 0
M  V30 BEGIN ATOM
M  V30 1 C 6.716482 -3.884256 1.358128 0
M  V30 2 C 5.495203 -3.125842 1.672479 0
M  V30 3 C 4.928665 -3.196130 2.913325 0
M  V30 4 C 3.792675 -2.470864 3.154828 0
M  V30 5 C 3.226746 -1.683880 2.170609 0
M  V30 6 F 2.088997 -1.007199 2.542310 0
M  V30 7 C 3.764304 -1.583370 0.905314 0
M  V30 8 C 3.089572 -0.731356 -0.049071 0
M  V30 9 N 1.975872 -0.093430 0.354511 0
M  V30 10 C 1.263554 0.724597 -0.440803 0
M  V30 11 C 0.056158 1.388253 0.068442 0
M  V30 12 O -0.625178 2.172086 -0.684560 0
M  V30 13 N -0.558529 1.312265 1.381142 0
M  V30 14 C -1.686364 2.188371 1.215839 0
M  V30 15 C -1.396617 3.501624 1.520070 0
M  V30 16 N -2.374824 4.413780 1.382149 0
M  V30 17 C -3.570146 4.036406 0.965269 0
M  V30 18 C -3.823055 2.713583 0.670763 0
M  V30 19 C -2.883332 1.671589 0.776211 0
M  V30 20 C -3.185743 0.292232 0.477541 0 CFG=1
M  V30 21 C -2.806177 -0.327322 -0.802905 0
M  V30 22 C -3.582152 -1.623084 -0.978274 0 CFG=1
M  V30 23 N -2.958723 -2.303204 -2.128600 0
M  V30 24 C -3.526465 -2.545768 0.180204 0 CFG=1
M  V30 25 O -3.263115 -3.864742 -0.210048 0
M  V30 26 C -2.502279 -2.049578 1.173707 0 CFG=1
M  V30 27 C -1.133784 -2.325987 0.699725 0
M  V30 28 C -2.857164 -0.671294 1.590594 0
M  V30 29 C 1.605838 0.985351 -1.738982 0
M  V30 30 C 2.737607 0.360603 -2.210229 0
M  V30 31 C 3.425495 -0.464834 -1.350766 0
M  V30 32 F 4.529578 -1.058188 -1.852179 0
M  V30 33 C 4.898399 -2.330038 0.723134 0
M  V30 34 H 6.735097 -4.780268 2.009474 0
M  V30 35 H 7.586026 -3.221289 1.579747 0
M  V30 36 H 6.736198 -4.243973 0.308989 0
M  V30 37 H 5.374546 -3.809285 3.672758 0
M  V30 38 H 3.350226 -2.532261 4.140573 0
M  V30 39 H -0.000925 0.667654 2.009698 0
M  V30 40 H -0.428773 3.839447 1.863189 0
M  V30 41 H -4.356482 4.768595 0.853134 0
M  V30 42 H -4.845562 2.478635 0.328758 0
M  V30 43 H -4.334448 0.247638 0.433613 0
M  V30 44 H -3.248331 0.275447 -1.663548 0
M  V30 45 H -1.770213 -0.586461 -0.984157 0
M  V30 46 H -4.632408 -1.439709 -1.343902 0
M  V30 47 H -3.005802 -1.725092 -2.998617 0
M  V30 48 H -3.401715 -3.235093 -2.285188 0
M  V30 49 H -4.556183 -2.563501 0.637938 0
M  V30 50 H -4.102313 -4.267780 -0.547732 0
M  V30 51 H -2.689911 -2.692546 2.096439 0
M  V30 52 H -1.119079 -2.774313 -0.321317 0
M  V30 53 H -0.664742 -3.138899 1.336704 0
M  V30 54 H -0.400732 -1.518908 0.713766 0
M  V30 55 H -3.774194 -0.800728 2.261294 0
M  V30 56 H -2.156971 -0.231130 2.338498 0
M  V30 57 H 1.068146 1.634910 -2.419926 0
M  V30 58 H 3.072891 0.513478 -3.218577 0
M  V30 59 H 5.373027 -2.299877 -0.241937 0
M  V30 END ATOM
M  V30 BEGIN BOND
M  V30 1 1 1 2
M  V30 2 2 2 3
M  V30 3 1 3 4
M  V30 4 2 4 5
M  V30 5 1 5 6
M  V30 6 1 5 7
M  V30 7 1 7 8
M  V30 8 2 8 9
M  V30 9 1 9 10
M  V30 10 1 10 11
M  V30 11 2 11 12
M  V30 12 1 11 13
M  V30 13 1 13 14
M  V30 14 2 14 15
M  V30 15 1 15 16
M  V30 16 2 16 17
M  V30 17 1 17 18
M  V30 18 2 18 19
M  V30 19 1 19 20
M  V30 20 1 20 21
M  V30 21 1 21 22
M  V30 22 1 22 23
M  V30 23 1 22 24
M  V30 24 1 24 25
M  V30 25 1 24 26
M  V30 26 1 26 27
M  V30 27 1 26 28
M  V30 28 2 10 29
M  V30 29 1 29 30
M  V30 30 2 30 31
M  V30 31 1 31 32
M  V30 32 2 7 33
M  V30 33 1 33 2
M  V30 34 1 31 8
M  V30 35 1 19 14
M  V30 36 1 28 20
M  V30 37 1 1 34
M  V30 38 1 1 35
M  V30 39 1 1 36
M  V30 40 1 3 37
M  V30 41 1 4 38
M  V30 42 1 13 39
M  V30 43 1 15 40
M  V30 44 1 17 41
M  V30 45 1 18 42
M  V30 46 1 20 43 CFG=3
M  V30 47 1 21 44
M  V30 48 1 21 45
M  V30 49 1 22 46 CFG=3
M  V30 50 1 23 47
M  V30 51 1 23 48
M  V30 52 1 24 49 CFG=1
M  V30 53 1 25 50
M  V30 54 1 26 51 CFG=1
M  V30 55 1 27 52
M  V30 56 1 27 53
M  V30 57 1 27 54
M  V30 58 1 28 55
M  V30 59 1 28 56
M  V30 60 1 29 57
M  V30 61 1 30 58
M  V30 62 1 33 59
M  V30 END BOND
M  V30 END CTAB
M  END
>  <Dataset>  (413) 
ChEMBL_Kinases

>  <Ligand_Instance>  (413) 
nan

>  <PDB_ID>  (413) 
nan

>  <Standardized_SMILES>  (413) 
Cc1ccc(F)c(-c2nc(C(=O)Nc3cnccc3[C@H]3C[C@@H](N)[C@@H](O)[C@@H](C)C3)ccc2F)c1

>  <Name>  (413) 
nan

>  <Pocket>  (413) 
nan

>  <ATP_Site>  (413) 
nan

>  <Peripheral>  (413) 
nan

>  <Num_H_Atoms_ProtBoundConf>  (413) 
nan

>  <Num_Resolved_Atoms>  (413) 
nan

>  <Num_Not_Resolved_Atoms>  (413) 
nan

$$$$
CHEMBL3651970
     RDKit          3D

  0  0  0  0  0  0  0  0  0  0999 V3000
M  V30 BEGIN CTAB
M  V30 COUNTS 59 62 0 0 0
M  V30 BEGIN ATOM
M  V30 1 C -0.430055 -2.330979 5.611523 0
M  V30 2 C 0.900265 -1.689704 5.451551 0
M  V30 3 C 1.867525 -1.980116 6.387200 0
M  V30 4 C 3.096962 -1.380004 6.229513 0
M  V30 5 C 3.307897 -0.533485 5.169155 0
M  V30 6 F 4.525329 0.007853 5.085965 0
M  V30 7 C 2.366861 -0.222163 4.218791 0
M  V30 8 C 2.529435 0.660836 3.080482 0
M  V30 9 C 3.632569 1.372184 2.699120 0
M  V30 10 C 3.703007 2.191133 1.598538 0
M  V30 11 C 2.596375 2.334915 0.788365 0
M  V30 12 C 1.486678 1.615292 1.177569 0
M  V30 13 C 0.280986 1.724278 0.361789 0
M  V30 14 O 0.233700 2.445749 -0.670314 0
M  V30 15 N -0.920062 1.027376 0.672460 0
M  V30 16 C -1.935140 1.318991 -0.292868 0
M  V30 17 C -2.785092 2.390018 -0.085148 0
M  V30 18 N -3.734366 2.658223 -0.993466 0
M  V30 19 C -3.843129 1.884062 -2.086585 0
M  V30 20 C -2.999895 0.797120 -2.322597 0
M  V30 21 C -2.013134 0.496803 -1.404817 0
M  V30 22 C -1.118522 -0.658008 -1.654771 0 CFG=1
M  V30 23 C -1.627420 -1.952839 -1.112575 0
M  V30 24 C -0.798393 -3.143197 -1.394600 0 CFG=1
M  V30 25 N -1.522800 -4.308698 -1.824721 0
M  V30 26 C 0.279390 -2.917895 -2.429087 0 CFG=1
M  V30 27 O 0.747715 -4.151809 -2.852169 0
M  V30 28 C -0.262339 -2.109226 -3.544129 0 CFG=1
M  V30 29 C -1.425091 -2.739139 -4.264010 0
M  V30 30 C -0.613797 -0.753890 -3.052551 0
M  V30 31 N 1.470742 0.825824 2.267064 0
M  V30 32 C 1.151584 -0.833752 4.400286 0
M  V30 33 H -0.613148 -3.152161 4.900086 0
M  V30 34 H -0.572588 -2.662679 6.675095 0
M  V30 35 H -1.198775 -1.514649 5.492965 0
M  V30 36 H 1.711463 -2.644928 7.224898 0
M  V30 37 H 3.864022 -1.595401 6.951071 0
M  V30 38 H 4.512273 1.296647 3.289315 0
M  V30 39 H 4.600016 2.720422 1.356427 0
M  V30 40 H 2.550466 2.951358 -0.094825 0
M  V30 41 H -0.927697 0.417872 1.517992 0
M  V30 42 H -2.684650 3.013816 0.811841 0
M  V30 43 H -4.631881 2.159687 -2.776307 0
M  V30 44 H -3.185778 0.263059 -3.219696 0
M  V30 45 H -0.213392 -0.407297 -1.027294 0
M  V30 46 H -2.682928 -2.173892 -1.417298 0
M  V30 47 H -1.711358 -1.845334 -0.008989 0
M  V30 48 H -0.247835 -3.465801 -0.485143 0
M  V30 49 H -2.071824 -4.737374 -1.045657 0
M  V30 50 H -0.872546 -5.008869 -2.210733 0
M  V30 51 H 1.079828 -2.355063 -1.945161 0
M  V30 52 H 1.134788 -4.657342 -2.093448 0
M  V30 53 H 0.545315 -2.008251 -4.306919 0
M  V30 54 H -2.378745 -2.699053 -3.737368 0
M  V30 55 H -1.576158 -2.109316 -5.187560 0
M  V30 56 H -1.202352 -3.743499 -4.644696 0
M  V30 57 H -1.324485 -0.324396 -3.788811 0
M  V30 58 H 0.301234 -0.101241 -3.159066 0
M  V30 59 H 0.317818 -0.677005 3.723864 0
M  V30 END ATOM
M  V30 BEGIN BOND
M  V30 1 1 1 2
M  V30 2 2 2 3
M  V30 3 1 3 4
M  V30 4 2 4 5
M  V30 5 1 5 6
M  V30 6 1 5 7
M  V30 7 1 7 8
M  V30 8 2 8 9
M  V30 9 1 9 10
M  V30 10 2 10 11
M  V30 11 1 11 12
M  V30 12 1 12 13
M  V30 13 2 13 14
M  V30 14 1 13 15
M  V30 15 1 15 16
M  V30 16 2 16 17
M  V30 17 1 17 18
M  V30 18 2 18 19
M  V30 19 1 19 20
M  V30 20 2 20 21
M  V30 21 1 21 22
M  V30 22 1 22 23
M  V30 23 1 23 24
M  V30 24 1 24 25
M  V30 25 1 24 26
M  V30 26 1 26 27
M  V30 27 1 26 28
M  V30 28 1 28 29
M  V30 29 1 28 30
M  V30 30 2 12 31
M  V30 31 2 7 32
M  V30 32 1 32 2
M  V30 33 1 31 8
M  V30 34 1 21 16
M  V30 35 1 30 22
M  V30 36 1 1 33
M  V30 37 1 1 34
M  V30 38 1 1 35
M  V30 39 1 3 36
M  V30 40 1 4 37
M  V30 41 1 9 38
M  V30 42 1 10 39
M  V30 43 1 11 40
M  V30 44 1 15 41
M  V30 45 1 17 42
M  V30 46 1 19 43
M  V30 47 1 20 44
M  V30 48 1 22 45 CFG=1
M  V30 49 1 23 46
M  V30 50 1 23 47
M  V30 51 1 24 48 CFG=1
M  V30 52 1 25 49
M  V30 53 1 25 50
M  V30 54 1 26 51 CFG=1
M  V30 55 1 27 52
M  V30 56 1 28 53 CFG=3
M  V30 57 1 29 54
M  V30 58 1 29 55
M  V30 59 1 29 56
M  V30 60 1 30 57
M  V30 61 1 30 58
M  V30 62 1 32 59
M  V30 END BOND
M  V30 END CTAB
M  END
>  <Dataset>  (414) 
ChEMBL_Kinases

>  <Ligand_Instance>  (414) 
nan

>  <PDB_ID>  (414) 
nan

>  <Standardized_SMILES>  (414) 
Cc1ccc(F)c(-c2cccc(C(=O)Nc3cnccc3[C@H]3C[C@@H](N)[C@@H](O)[C@@H](C)C3)n2)c1

>  <Name>  (414) 
nan

>  <Pocket>  (414) 
nan

>  <ATP_Site>  (414) 
nan

>  <Peripheral>  (414) 
nan

>  <Num_H_Atoms_ProtBoundConf>  (414) 
nan

>  <Num_Resolved_Atoms>  (414) 
nan

>  <Num_Not_Resolved_Atoms>  (414) 
nan

$$$$
CHEMBL3651971
     RDKit          3D

  0  0  0  0  0  0  0  0  0  0999 V3000
M  V30 BEGIN CTAB
M  V30 COUNTS 56 59 0 0 0
M  V30 BEGIN ATOM
M  V30 1 C 0.951732 -2.591940 -2.031965 0
M  V30 2 C 2.112015 -2.983661 -1.102896 0 CFG=1
M  V30 3 C 3.007073 -1.831692 -0.819361 0
M  V30 4 C 2.801609 -1.165399 0.525514 0 CFG=1
M  V30 5 C 3.095242 0.274614 0.477042 0
M  V30 6 C 4.443527 0.644128 0.610294 0
M  V30 7 C 4.953194 1.920821 0.563658 0
M  V30 8 N 4.105021 2.943854 0.372567 0
M  V30 9 C 2.798169 2.662705 0.237344 0
M  V30 10 C 2.298484 1.381581 0.286295 0
M  V30 11 N 0.902293 1.121513 0.128974 0
M  V30 12 C 0.318878 1.369111 1.431725 0
M  V30 13 O 1.190343 1.730934 2.263142 0
M  V30 14 C -1.098839 1.221721 1.751418 0
M  V30 15 C -1.461861 1.553065 3.038380 0
M  V30 16 C -2.802167 1.440625 3.403049 0
M  V30 17 C -3.666763 0.996172 2.417799 0
M  V30 18 F -4.972657 0.892849 2.792617 0
M  V30 19 C -3.255981 0.674559 1.137496 0
M  V30 20 C -4.301034 0.203677 0.238856 0
M  V30 21 C -5.481879 0.779237 -0.160570 0
M  V30 22 C -6.309441 0.108775 -1.037343 0
M  V30 23 C -5.962795 -1.142076 -1.521175 0
M  V30 24 C -4.768968 -1.752777 -1.133460 0
M  V30 25 C -3.948141 -1.051052 -0.243428 0
M  V30 26 F -2.822756 -1.773035 0.042603 0
M  V30 27 N -1.945787 0.792260 0.804583 0
M  V30 28 C 1.520504 -1.559544 1.173730 0
M  V30 29 C 1.573668 -3.067374 1.361754 0 CFG=1
M  V30 30 N 0.425635 -3.444951 2.161819 0
M  V30 31 C 1.663275 -3.793484 0.051743 0 CFG=1
M  V30 32 O 0.351153 -4.239626 -0.230043 0
M  V30 33 H 1.366823 -1.841607 -2.739602 0
M  V30 34 H 0.666905 -3.459492 -2.659684 0
M  V30 35 H 0.056006 -2.282374 -1.500496 0
M  V30 36 H 2.716903 -3.673941 -1.770674 0
M  V30 37 H 4.085227 -2.086212 -0.937864 0
M  V30 38 H 2.834986 -1.092483 -1.658543 0
M  V30 39 H 3.593892 -1.632320 1.192255 0
M  V30 40 H 5.201149 -0.139796 0.769640 0
M  V30 41 H 6.000839 2.116685 0.673615 0
M  V30 42 H 2.082905 3.459160 0.083464 0
M  V30 43 H 0.226090 0.816466 -0.632899 0
M  V30 44 H -0.768232 1.894613 3.781457 0
M  V30 45 H -3.102671 1.691230 4.393340 0
M  V30 46 H -5.623466 1.743400 0.287659 0
M  V30 47 H -7.216146 0.639609 -1.294837 0
M  V30 48 H -6.645293 -1.633723 -2.208357 0
M  V30 49 H -4.569456 -2.718678 -1.546647 0
M  V30 50 H 0.599944 -1.328875 0.627690 0
M  V30 51 H 1.463946 -1.133322 2.177609 0
M  V30 52 H 2.482608 -3.290357 1.955359 0
M  V30 53 H 0.664677 -3.287081 3.153709 0
M  V30 54 H 0.208384 -4.441255 1.938298 0
M  V30 55 H 2.260245 -4.719408 0.145240 0
M  V30 56 H 0.324492 -4.721691 -1.099050 0
M  V30 END ATOM
M  V30 BEGIN BOND
M  V30 1 1 1 2
M  V30 2 1 2 3
M  V30 3 1 3 4
M  V30 4 1 4 5
M  V30 5 2 5 6
M  V30 6 1 6 7
M  V30 7 2 7 8
M  V30 8 1 8 9
M  V30 9 2 9 10
M  V30 10 1 10 11
M  V30 11 1 11 12
M  V30 12 2 12 13
M  V30 13 1 12 14
M  V30 14 2 14 15
M  V30 15 1 15 16
M  V30 16 2 16 17
M  V30 17 1 17 18
M  V30 18 1 17 19
M  V30 19 1 19 20
M  V30 20 2 20 21
M  V30 21 1 21 22
M  V30 22 2 22 23
M  V30 23 1 23 24
M  V30 24 2 24 25
M  V30 25 1 25 26
M  V30 26 2 19 27
M  V30 27 1 4 28
M  V30 28 1 28 29
M  V30 29 1 29 30
M  V30 30 1 29 31
M  V30 31 1 31 32
M  V30 32 1 31 2
M  V30 33 1 10 5
M  V30 34 1 27 14
M  V30 35 1 25 20
M  V30 36 1 1 33
M  V30 37 1 1 34
M  V30 38 1 1 35
M  V30 39 1 2 36 CFG=3
M  V30 40 1 3 37
M  V30 41 1 3 38
M  V30 42 1 4 39 CFG=1
M  V30 43 1 6 40
M  V30 44 1 7 41
M  V30 45 1 9 42
M  V30 46 1 11 43
M  V30 47 1 15 44
M  V30 48 1 16 45
M  V30 49 1 21 46
M  V30 50 1 22 47
M  V30 51 1 23 48
M  V30 52 1 24 49
M  V30 53 1 28 50
M  V30 54 1 28 51
M  V30 55 1 29 52 CFG=1
M  V30 56 1 30 53
M  V30 57 1 30 54
M  V30 58 1 31 55 CFG=1
M  V30 59 1 32 56
M  V30 END BOND
M  V30 END CTAB
M  END
>  <Dataset>  (415) 
ChEMBL_Kinases

>  <Ligand_Instance>  (415) 
nan

>  <PDB_ID>  (415) 
nan

>  <Standardized_SMILES>  (415) 
C[C@H]1C[C@@H](c2ccncc2NC(=O)c2ccc(F)c(-c3ccccc3F)n2)C[C@@H](N)[C@H]1O

>  <Name>  (415) 
nan

>  <Pocket>  (415) 
nan

>  <ATP_Site>  (415) 
nan

>  <Peripheral>  (415) 
nan

>  <Num_H_Atoms_ProtBoundConf>  (415) 
nan

>  <Num_Resolved_Atoms>  (415) 
nan

>  <Num_Not_Resolved_Atoms>  (415) 
nan

$$$$
CHEMBL3651972
     RDKit          3D

  0  0  0  0  0  0  0  0  0  0999 V3000
M  V30 BEGIN CTAB
M  V30 COUNTS 56 59 0 0 0
M  V30 BEGIN ATOM
M  V30 1 C 0.368607 -3.213711 -1.121198 0
M  V30 2 C 1.863296 -3.224262 -0.876299 0 CFG=1
M  V30 3 C 2.463896 -1.844988 -1.012232 0
M  V30 4 C 2.742660 -1.230645 0.351980 0 CFG=1
M  V30 5 C 3.110969 0.174938 0.278728 0
M  V30 6 C 4.455510 0.542161 0.102014 0
M  V30 7 C 4.953656 1.822823 -0.003388 0
M  V30 8 N 4.090743 2.851500 0.065898 0
M  V30 9 C 2.783654 2.587398 0.234821 0
M  V30 10 C 2.317253 1.295370 0.337108 0
M  V30 11 N 0.916033 1.161239 0.505820 0
M  V30 12 C 0.297914 1.237815 1.811185 0
M  V30 13 O 0.982295 1.428326 2.857659 0
M  V30 14 C -1.161206 1.086805 1.889722 0
M  V30 15 C -1.767418 1.156390 3.127062 0
M  V30 16 C -3.145278 1.023385 3.291986 0
M  V30 17 C -3.864069 0.818352 2.144205 0
M  V30 18 C -3.232785 0.750488 0.897306 0
M  V30 19 C -4.141814 0.530231 -0.197991 0
M  V30 20 C -4.809863 1.451293 -0.977386 0
M  V30 21 F -4.562981 2.735446 -0.651732 0
M  V30 22 C -5.645296 1.028542 -1.988707 0
M  V30 23 C -5.869570 -0.297825 -2.288477 0
M  V30 24 C -5.187578 -1.221493 -1.492457 0
M  V30 25 C -4.340797 -0.818304 -0.467981 0
M  V30 26 F -3.747794 -1.840287 0.219183 0
M  V30 27 N -1.897553 0.886747 0.804638 0
M  V30 28 C 1.725463 -1.633560 1.358933 0
M  V30 29 C 1.961964 -3.105606 1.652468 0 CFG=1
M  V30 30 N 0.838056 -3.608870 2.410550 0
M  V30 31 C 2.221547 -3.904733 0.418484 0 CFG=1
M  V30 32 O 1.408158 -5.048838 0.485919 0
M  V30 33 H 0.060239 -2.177886 -1.381758 0
M  V30 34 H 0.083057 -3.824510 -2.002869 0
M  V30 35 H -0.210364 -3.649130 -0.277177 0
M  V30 36 H 2.307135 -3.858042 -1.672755 0
M  V30 37 H 3.416533 -1.900003 -1.581069 0
M  V30 38 H 1.769717 -1.239530 -1.627612 0
M  V30 39 H 3.684244 -1.774234 0.683308 0
M  V30 40 H 5.202313 -0.267558 0.039091 0
M  V30 41 H 6.010124 1.980392 -0.137459 0
M  V30 42 H 2.121918 3.434179 0.285861 0
M  V30 43 H 0.275590 0.999836 -0.323649 0
M  V30 44 H -1.149181 1.320967 4.007015 0
M  V30 45 H -3.562703 1.086998 4.285807 0
M  V30 46 H -4.933630 0.715744 2.279869 0
M  V30 47 H -6.153957 1.805110 -2.580430 0
M  V30 48 H -6.527102 -0.595324 -3.083446 0
M  V30 49 H -5.377083 -2.260589 -1.743981 0
M  V30 50 H 0.679500 -1.462884 1.044074 0
M  V30 51 H 1.908884 -1.096856 2.303272 0
M  V30 52 H 2.855332 -3.159749 2.308102 0
M  V30 53 H 0.984893 -3.489074 3.436862 0
M  V30 54 H 0.005549 -3.026716 2.139236 0
M  V30 55 H 3.262283 -4.288983 0.367734 0
M  V30 56 H 1.782547 -5.654151 1.186994 0
M  V30 END ATOM
M  V30 BEGIN BOND
M  V30 1 1 1 2
M  V30 2 1 2 3
M  V30 3 1 3 4
M  V30 4 1 4 5
M  V30 5 2 5 6
M  V30 6 1 6 7
M  V30 7 2 7 8
M  V30 8 1 8 9
M  V30 9 2 9 10
M  V30 10 1 10 11
M  V30 11 1 11 12
M  V30 12 2 12 13
M  V30 13 1 12 14
M  V30 14 2 14 15
M  V30 15 1 15 16
M  V30 16 2 16 17
M  V30 17 1 17 18
M  V30 18 1 18 19
M  V30 19 2 19 20
M  V30 20 1 20 21
M  V30 21 1 20 22
M  V30 22 2 22 23
M  V30 23 1 23 24
M  V30 24 2 24 25
M  V30 25 1 25 26
M  V30 26 2 18 27
M  V30 27 1 4 28
M  V30 28 1 28 29
M  V30 29 1 29 30
M  V30 30 1 29 31
M  V30 31 1 31 32
M  V30 32 1 31 2
M  V30 33 1 10 5
M  V30 34 1 27 14
M  V30 35 1 25 19
M  V30 36 1 1 33
M  V30 37 1 1 34
M  V30 38 1 1 35
M  V30 39 1 2 36 CFG=3
M  V30 40 1 3 37
M  V30 41 1 3 38
M  V30 42 1 4 39 CFG=1
M  V30 43 1 6 40
M  V30 44 1 7 41
M  V30 45 1 9 42
M  V30 46 1 11 43
M  V30 47 1 15 44
M  V30 48 1 16 45
M  V30 49 1 17 46
M  V30 50 1 22 47
M  V30 51 1 23 48
M  V30 52 1 24 49
M  V30 53 1 28 50
M  V30 54 1 28 51
M  V30 55 1 29 52 CFG=1
M  V30 56 1 30 53
M  V30 57 1 30 54
M  V30 58 1 31 55 CFG=3
M  V30 59 1 32 56
M  V30 END BOND
M  V30 END CTAB
M  END
>  <Dataset>  (416) 
ChEMBL_Kinases

>  <Ligand_Instance>  (416) 
nan

>  <PDB_ID>  (416) 
nan

>  <Standardized_SMILES>  (416) 
C[C@H]1C[C@@H](c2ccncc2NC(=O)c2cccc(-c3c(F)cccc3F)n2)C[C@@H](N)[C@H]1O

>  <Name>  (416) 
nan

>  <Pocket>  (416) 
nan

>  <ATP_Site>  (416) 
nan

>  <Peripheral>  (416) 
nan

>  <Num_H_Atoms_ProtBoundConf>  (416) 
nan

>  <Num_Resolved_Atoms>  (416) 
nan

>  <Num_Not_Resolved_Atoms>  (416) 
nan

$$$$
CHEMBL3651973
     RDKit          3D

  0  0  0  0  0  0  0  0  0  0999 V3000
M  V30 BEGIN CTAB
M  V30 COUNTS 55 58 0 0 0
M  V30 BEGIN ATOM
M  V30 1 C 2.297964 -2.566535 -0.370026 0
M  V30 2 C 2.889395 -1.215393 -0.061097 0 CFG=2
M  V30 3 C 3.491051 -1.244291 1.307094 0
M  V30 4 C 3.724154 0.080366 1.950539 0 CFG=2
M  V30 5 N 4.221737 -0.107194 3.297241 0
M  V30 6 C 2.407886 0.825581 1.953904 0
M  V30 7 C 2.147643 1.103490 0.482353 0 CFG=2
M  V30 8 C 1.269411 2.209329 0.212443 0
M  V30 9 C 1.828715 3.494270 0.142374 0
M  V30 10 C 1.212367 4.720253 -0.074522 0
M  V30 11 N -0.140794 4.620508 -0.239939 0
M  V30 12 C -0.796376 3.450979 -0.195942 0
M  V30 13 C -0.087481 2.295838 0.024408 0
M  V30 14 N -0.875104 1.116272 0.063365 0
M  V30 15 C -1.171124 0.640606 -1.258913 0
M  V30 16 O -0.755181 1.238690 -2.271909 0
M  V30 17 C -1.987703 -0.585867 -1.384301 0
M  V30 18 C -2.309662 -1.058795 -2.640988 0
M  V30 19 C -3.086067 -2.205427 -2.717559 0
M  V30 20 C -3.544621 -2.885076 -1.582754 0
M  V30 21 F -4.299859 -4.000837 -1.633700 0
M  V30 22 C -3.181611 -2.351767 -0.344255 0
M  V30 23 C -3.626053 -3.016281 0.898603 0
M  V30 24 C -4.953371 -3.269147 1.142603 0
M  V30 25 C -5.274169 -3.901970 2.348568 0
M  V30 26 C -4.333608 -4.285395 3.305165 0
M  V30 27 F -4.790076 -4.896336 4.440839 0
M  V30 28 C -3.008744 -4.010298 3.016110 0
M  V30 29 C -2.669648 -3.384704 1.827665 0
M  V30 30 F -1.352631 -3.152928 1.626755 0
M  V30 31 N -2.419346 -1.226322 -0.257004 0
M  V30 32 C 1.819330 -0.172643 -0.236758 0
M  V30 33 H 1.264862 -2.634666 -0.024085 0
M  V30 34 H 2.953915 -3.399938 -0.047918 0
M  V30 35 H 2.252529 -2.645007 -1.497517 0
M  V30 36 H 3.701236 -1.038769 -0.788365 0
M  V30 37 H 2.880551 -1.855605 2.007801 0
M  V30 38 H 4.492280 -1.754948 1.290130 0
M  V30 39 H 4.484860 0.619257 1.335354 0
M  V30 40 H 4.537333 0.852747 3.607876 0
M  V30 41 H 4.996443 -0.777989 3.359510 0
M  V30 42 H 2.501502 1.774591 2.472123 0
M  V30 43 H 1.665427 0.125867 2.384937 0
M  V30 44 H 3.164513 1.401753 0.078417 0
M  V30 45 H 2.916385 3.584649 0.272128 0
M  V30 46 H 1.774595 5.639150 -0.104458 0
M  V30 47 H -1.864770 3.456831 -0.334778 0
M  V30 48 H -1.244987 0.580540 0.885014 0
M  V30 49 H -1.977796 -0.564408 -3.558084 0
M  V30 50 H -3.360660 -2.608285 -3.695527 0
M  V30 51 H -5.715149 -2.991518 0.439023 0
M  V30 52 H -6.336076 -4.110186 2.558545 0
M  V30 53 H -2.296151 -4.322032 3.780277 0
M  V30 54 H 0.877775 -0.550306 0.212424 0
M  V30 55 H 1.630039 0.018357 -1.295940 0
M  V30 END ATOM
M  V30 BEGIN BOND
M  V30 1 1 1 2
M  V30 2 1 2 3
M  V30 3 1 3 4
M  V30 4 1 4 5
M  V30 5 1 4 6
M  V30 6 1 6 7
M  V30 7 1 7 8
M  V30 8 2 8 9
M  V30 9 1 9 10
M  V30 10 2 10 11
M  V30 11 1 11 12
M  V30 12 2 12 13
M  V30 13 1 13 14
M  V30 14 1 14 15
M  V30 15 2 15 16
M  V30 16 1 15 17
M  V30 17 2 17 18
M  V30 18 1 18 19
M  V30 19 2 19 20
M  V30 20 1 20 21
M  V30 21 1 20 22
M  V30 22 1 22 23
M  V30 23 2 23 24
M  V30 24 1 24 25
M  V30 25 2 25 26
M  V30 26 1 26 27
M  V30 27 1 26 28
M  V30 28 2 28 29
M  V30 29 1 29 30
M  V30 30 2 22 31
M  V30 31 1 7 32
M  V30 32 1 32 2
M  V30 33 1 13 8
M  V30 34 1 31 17
M  V30 35 1 29 23
M  V30 36 1 1 33
M  V30 37 1 1 34
M  V30 38 1 1 35
M  V30 39 1 2 36 CFG=3
M  V30 40 1 3 37
M  V30 41 1 3 38
M  V30 42 1 4 39 CFG=3
M  V30 43 1 5 40
M  V30 44 1 5 41
M  V30 45 1 6 42
M  V30 46 1 6 43
M  V30 47 1 7 44 CFG=3
M  V30 48 1 9 45
M  V30 49 1 10 46
M  V30 50 1 12 47
M  V30 51 1 14 48
M  V30 52 1 18 49
M  V30 53 1 19 50
M  V30 54 1 24 51
M  V30 55 1 25 52
M  V30 56 1 28 53
M  V30 57 1 32 54
M  V30 58 1 32 55
M  V30 END BOND
M  V30 END CTAB
M  END
>  <Dataset>  (417) 
ChEMBL_Kinases

>  <Ligand_Instance>  (417) 
nan

>  <PDB_ID>  (417) 
nan

>  <Standardized_SMILES>  (417) 
C[C@@H]1C[C@H](N)C[C@H](c2ccncc2NC(=O)c2ccc(F)c(-c3ccc(F)cc3F)n2)C1

>  <Name>  (417) 
nan

>  <Pocket>  (417) 
nan

>  <ATP_Site>  (417) 
nan

>  <Peripheral>  (417) 
nan

>  <Num_H_Atoms_ProtBoundConf>  (417) 
nan

>  <Num_Resolved_Atoms>  (417) 
nan

>  <Num_Not_Resolved_Atoms>  (417) 
nan

$$$$
CHEMBL3651974
     RDKit          3D

  0  0  0  0  0  0  0  0  0  0999 V3000
M  V30 BEGIN CTAB
M  V30 COUNTS 53 56 0 0 0
M  V30 BEGIN ATOM
M  V30 1 N -0.428522 -2.089023 2.044260 0
M  V30 2 C 0.316397 -3.032732 1.189232 0 CFG=2
M  V30 3 C 1.746294 -2.721998 1.265605 0
M  V30 4 C 2.432727 -2.149509 0.076384 0 CFG=2
M  V30 5 C 3.505593 -1.165753 0.441521 0
M  V30 6 C 4.878377 -1.480099 0.418816 0
M  V30 7 C 5.918737 -0.628470 0.719560 0
M  V30 8 N 5.545460 0.618710 1.064649 0
M  V30 9 C 4.243437 0.956171 1.098129 0
M  V30 10 C 3.188787 0.127714 0.803886 0
M  V30 11 N 1.828715 0.513771 0.859726 0
M  V30 12 C 1.240987 1.767943 1.166081 0
M  V30 13 O 1.991114 2.729939 1.439802 0
M  V30 14 C -0.201952 1.984199 1.175635 0
M  V30 15 C -0.716319 3.225527 1.481206 0
M  V30 16 C -2.051999 3.477133 1.503425 0
M  V30 17 C -2.898940 2.407339 1.198464 0
M  V30 18 C -2.382210 1.164012 0.892446 0
M  V30 19 C -3.389103 0.165631 0.600849 0
M  V30 20 C -3.948035 -0.645522 1.581152 0
M  V30 21 F -3.497808 -0.456178 2.854527 0
M  V30 22 C -4.908322 -1.602802 1.325640 0
M  V30 23 C -5.344657 -1.771078 0.023978 0
M  V30 24 C -4.824530 -0.993215 -0.990659 0
M  V30 25 C -3.856939 -0.039919 -0.683111 0
M  V30 26 F -3.378929 0.698612 -1.720659 0
M  V30 27 N -1.036701 0.968259 0.885044 0
M  V30 28 C 1.677596 -1.865057 -1.142907 0
M  V30 29 C 0.237287 -2.214480 -1.205133 0
M  V30 30 C -0.307212 -3.119348 -0.167923 0 CFG=2
M  V30 31 O -1.681601 -2.920174 0.006761 0
M  V30 32 H 0.092224 -1.956768 2.939139 0
M  V30 33 H -1.367287 -2.422940 2.300127 0
M  V30 34 H 0.123864 -4.007705 1.716564 0
M  V30 35 H 1.909698 -1.950075 2.090909 0
M  V30 36 H 2.288213 -3.612634 1.724819 0
M  V30 37 H 3.085695 -3.042504 -0.227198 0
M  V30 38 H 5.169653 -2.499485 0.136212 0
M  V30 39 H 6.925372 -0.956417 0.674494 0
M  V30 40 H 4.111024 1.971605 1.388313 0
M  V30 41 H 1.095648 -0.196841 0.661568 0
M  V30 42 H -0.032678 4.017363 1.708784 0
M  V30 43 H -2.428657 4.471756 1.749425 0
M  V30 44 H -3.973285 2.640713 1.224389 0
M  V30 45 H -5.320734 -2.215893 2.113802 0
M  V30 46 H -6.104984 -2.518132 -0.226834 0
M  V30 47 H -5.172860 -1.130753 -2.015561 0
M  V30 48 H 2.107192 -2.370988 -2.074447 0
M  V30 49 H 1.902895 -0.800993 -1.467392 0
M  V30 50 H -0.110952 -2.566559 -2.199656 0
M  V30 51 H -0.310792 -1.236938 -1.104340 0
M  V30 52 H -0.247401 -4.172864 -0.522246 0
M  V30 53 H -2.053511 -2.366532 -0.729654 0
M  V30 END ATOM
M  V30 BEGIN BOND
M  V30 1 1 1 2
M  V30 2 1 2 3
M  V30 3 1 3 4
M  V30 4 1 4 5
M  V30 5 2 5 6
M  V30 6 1 6 7
M  V30 7 2 7 8
M  V30 8 1 8 9
M  V30 9 2 9 10
M  V30 10 1 10 11
M  V30 11 1 11 12
M  V30 12 2 12 13
M  V30 13 1 12 14
M  V30 14 2 14 15
M  V30 15 1 15 16
M  V30 16 2 16 17
M  V30 17 1 17 18
M  V30 18 1 18 19
M  V30 19 2 19 20
M  V30 20 1 20 21
M  V30 21 1 20 22
M  V30 22 2 22 23
M  V30 23 1 23 24
M  V30 24 2 24 25
M  V30 25 1 25 26
M  V30 26 2 18 27
M  V30 27 1 4 28
M  V30 28 1 28 29
M  V30 29 1 29 30
M  V30 30 1 30 31
M  V30 31 1 30 2
M  V30 32 1 10 5
M  V30 33 1 27 14
M  V30 34 1 25 19
M  V30 35 1 1 32
M  V30 36 1 1 33
M  V30 37 1 2 34 CFG=1
M  V30 38 1 3 35
M  V30 39 1 3 36
M  V30 40 1 4 37 CFG=3
M  V30 41 1 6 38
M  V30 42 1 7 39
M  V30 43 1 9 40
M  V30 44 1 11 41
M  V30 45 1 15 42
M  V30 46 1 16 43
M  V30 47 1 17 44
M  V30 48 1 22 45
M  V30 49 1 23 46
M  V30 50 1 24 47
M  V30 51 1 28 48
M  V30 52 1 28 49
M  V30 53 1 29 50
M  V30 54 1 29 51
M  V30 55 1 30 52 CFG=3
M  V30 56 1 31 53
M  V30 END BOND
M  V30 END CTAB
M  END
>  <Dataset>  (418) 
ChEMBL_Kinases

>  <Ligand_Instance>  (418) 
nan

>  <PDB_ID>  (418) 
nan

>  <Standardized_SMILES>  (418) 
N[C@@H]1C[C@H](c2ccncc2NC(=O)c2cccc(-c3c(F)cccc3F)n2)CC[C@@H]1O

>  <Name>  (418) 
nan

>  <Pocket>  (418) 
nan

>  <ATP_Site>  (418) 
nan

>  <Peripheral>  (418) 
nan

>  <Num_H_Atoms_ProtBoundConf>  (418) 
nan

>  <Num_Resolved_Atoms>  (418) 
nan

>  <Num_Not_Resolved_Atoms>  (418) 
nan

$$$$
CHEMBL3651946
     RDKit          3D

  0  0  0  0  0  0  0  0  0  0999 V3000
M  V30 BEGIN CTAB
M  V30 COUNTS 56 59 0 0 0
M  V30 BEGIN ATOM
M  V30 1 C 2.798033 -3.748399 -0.803088 0
M  V30 2 C 1.468511 -3.086300 -0.800704 0 CFG=1
M  V30 3 C 1.361252 -1.931087 0.170949 0
M  V30 4 C 1.867119 -0.628348 -0.394474 0 CFG=1
M  V30 5 C 2.575198 0.078932 0.682821 0
M  V30 6 C 3.915740 -0.026884 0.982081 0
M  V30 7 C 4.458915 0.694447 2.023802 0
M  V30 8 N 3.720909 1.525205 2.789507 0
M  V30 9 C 2.415442 1.664838 2.542144 0
M  V30 10 C 1.843556 0.949866 1.498945 0
M  V30 11 N 0.469946 1.113622 1.258949 0
M  V30 12 C -0.350862 1.966935 0.473638 0
M  V30 13 O 0.160497 2.856994 -0.245085 0
M  V30 14 C -1.782830 1.712055 0.585071 0
M  V30 15 C -2.597667 2.530321 -0.169991 0
M  V30 16 C -3.961710 2.351250 -0.117961 0
M  V30 17 C -4.518086 1.378001 0.668136 0
M  V30 18 F -5.829076 1.069113 0.834363 0
M  V30 19 C -3.674526 0.571433 1.415364 0
M  V30 20 C -4.014036 -0.533475 2.329240 0
M  V30 21 C -4.249061 -0.322206 3.681662 0
M  V30 22 F -4.162389 0.938733 4.170197 0
M  V30 23 C -4.566954 -1.393225 4.510418 0
M  V30 24 C -4.645389 -2.673765 3.965476 0
M  V30 25 C -4.408131 -2.863834 2.617321 0
M  V30 26 C -4.086605 -1.808165 1.758747 0
M  V30 27 F -3.856407 -2.010937 0.437168 0
M  V30 28 N -2.348092 0.756064 1.355851 0
M  V30 29 C 2.752080 -0.838915 -1.605093 0
M  V30 30 C 1.962319 -1.521661 -2.690259 0 CFG=1
M  V30 31 N 2.840577 -2.231836 -3.621318 0
M  V30 32 C 1.010046 -2.562738 -2.144142 0 CFG=2
M  V30 33 O -0.202513 -1.884868 -1.898531 0
M  V30 34 H 3.417388 -3.296778 0.023757 0
M  V30 35 H 3.350481 -3.717753 -1.757298 0
M  V30 36 H 2.736120 -4.831600 -0.515650 0
M  V30 37 H 0.707427 -3.837329 -0.485305 0
M  V30 38 H 0.252647 -1.785958 0.332945 0
M  V30 39 H 1.834195 -2.236870 1.111775 0
M  V30 40 H 1.041620 0.030291 -0.745068 0
M  V30 41 H 4.503956 -0.691905 0.368321 0
M  V30 42 H 5.499964 0.608136 2.251223 0
M  V30 43 H 1.781053 2.327517 3.138381 0
M  V30 44 H 0.085078 0.348132 1.881118 0
M  V30 45 H -2.209936 3.315872 -0.808987 0
M  V30 46 H -4.689927 2.935372 -0.667718 0
M  V30 47 H -4.752529 -1.253688 5.558180 0
M  V30 48 H -4.886805 -3.557110 4.543219 0
M  V30 49 H -4.455671 -3.840901 2.138855 0
M  V30 50 H 3.697390 -1.364353 -1.381194 0
M  V30 51 H 3.021711 0.169351 -1.983367 0
M  V30 52 H 1.411156 -0.772377 -3.298722 0
M  V30 53 H 2.458976 -3.142192 -3.917853 0
M  V30 54 H 3.129591 -1.620398 -4.417665 0
M  V30 55 H 0.794539 -3.363506 -2.864542 0
M  V30 56 H -0.470724 -1.318984 -2.642765 0
M  V30 END ATOM
M  V30 BEGIN BOND
M  V30 1 1 1 2
M  V30 2 1 2 3
M  V30 3 1 3 4
M  V30 4 1 4 5
M  V30 5 2 5 6
M  V30 6 1 6 7
M  V30 7 2 7 8
M  V30 8 1 8 9
M  V30 9 2 9 10
M  V30 10 1 10 11
M  V30 11 1 11 12
M  V30 12 2 12 13
M  V30 13 1 12 14
M  V30 14 2 14 15
M  V30 15 1 15 16
M  V30 16 2 16 17
M  V30 17 1 17 18
M  V30 18 1 17 19
M  V30 19 1 19 20
M  V30 20 2 20 21
M  V30 21 1 21 22
M  V30 22 1 21 23
M  V30 23 2 23 24
M  V30 24 1 24 25
M  V30 25 2 25 26
M  V30 26 1 26 27
M  V30 27 2 19 28
M  V30 28 1 4 29
M  V30 29 1 29 30
M  V30 30 1 30 31
M  V30 31 1 30 32
M  V30 32 1 32 33
M  V30 33 1 32 2
M  V30 34 1 10 5
M  V30 35 1 28 14
M  V30 36 1 26 20
M  V30 37 1 1 34
M  V30 38 1 1 35
M  V30 39 1 1 36
M  V30 40 1 2 37 CFG=1
M  V30 41 1 3 38
M  V30 42 1 3 39
M  V30 43 1 4 40 CFG=3
M  V30 44 1 6 41
M  V30 45 1 7 42
M  V30 46 1 9 43
M  V30 47 1 11 44
M  V30 48 1 15 45
M  V30 49 1 16 46
M  V30 50 1 23 47
M  V30 51 1 24 48
M  V30 52 1 25 49
M  V30 53 1 29 50
M  V30 54 1 29 51
M  V30 55 1 30 52 CFG=3
M  V30 56 1 31 53
M  V30 57 1 31 54
M  V30 58 1 32 55 CFG=3
M  V30 59 1 33 56
M  V30 END BOND
M  V30 END CTAB
M  END
>  <Dataset>  (419) 
ChEMBL_Kinases

>  <Ligand_Instance>  (419) 
nan

>  <PDB_ID>  (419) 
nan

>  <Standardized_SMILES>  (419) 
C[C@H]1C[C@@H](c2ccncc2NC(=O)c2ccc(F)c(-c3c(F)cccc3F)n2)C[C@@H](N)[C@@H]1O

>  <Name>  (419) 
nan

>  <Pocket>  (419) 
nan

>  <ATP_Site>  (419) 
nan

>  <Peripheral>  (419) 
nan

>  <Num_H_Atoms_ProtBoundConf>  (419) 
nan

>  <Num_Resolved_Atoms>  (419) 
nan

>  <Num_Not_Resolved_Atoms>  (419) 
nan

$$$$
CHEMBL3651976
     RDKit          3D

  0  0  0  0  0  0  0  0  0  0999 V3000
M  V30 BEGIN CTAB
M  V30 COUNTS 52 55 0 0 0
M  V30 BEGIN ATOM
M  V30 1 N 2.525729 0.122201 4.549004 0
M  V30 2 C 3.356411 -0.476163 3.537729 0 CFG=1
M  V30 3 C 2.789859 -1.890579 3.343378 0
M  V30 4 C 1.294638 -1.725281 3.292803 0
M  V30 5 C 0.822498 -0.496458 2.599784 0
M  V30 6 C 1.821878 0.217417 1.748245 0 CFG=1
M  V30 7 C 1.348878 1.621442 1.485988 0
M  V30 8 C 1.685436 2.684417 2.294653 0
M  V30 9 C 1.271508 3.980979 2.083671 0
M  V30 10 N 0.487422 4.240563 1.022994 0
M  V30 11 C 0.116231 3.254660 0.187167 0
M  V30 12 C 0.531155 1.956657 0.399183 0
M  V30 13 N 0.136099 0.934538 -0.482165 0
M  V30 14 C 0.648849 0.355437 -1.676101 0
M  V30 15 O 1.711745 0.785836 -2.150451 0
M  V30 16 C -0.151568 -0.723971 -2.245424 0
M  V30 17 N -1.311107 -1.180411 -1.711686 0
M  V30 18 C -2.011750 -2.181395 -2.278888 0
M  V30 19 C -3.231935 -2.534460 -1.561134 0
M  V30 20 C -4.501314 -2.017792 -1.730947 0
M  V30 21 F -4.587781 -1.061576 -2.697457 0
M  V30 22 C -5.546436 -2.470302 -0.960528 0
M  V30 23 C -5.313377 -3.454191 -0.007582 0
M  V30 24 C -4.052907 -3.980369 0.174658 0
M  V30 25 C -3.004618 -3.509427 -0.615783 0
M  V30 26 F -1.812178 -4.104229 -0.342782 0
M  V30 27 C -1.545476 -2.767054 -3.437232 0
M  V30 28 C -0.359336 -2.326009 -4.014951 0
M  V30 29 C 0.346725 -1.285125 -3.403906 0
M  V30 30 F 1.500392 -0.876479 -3.990741 0
M  V30 31 C 3.233237 0.148859 2.177020 0
M  V30 32 H 3.051189 0.913636 4.985864 0
M  V30 33 H 2.230753 -0.524447 5.287611 0
M  V30 34 H 4.410083 -0.561381 3.870457 0
M  V30 35 H 3.053345 -2.555733 4.176060 0
M  V30 36 H 3.176525 -2.289116 2.385762 0
M  V30 37 H 0.937148 -1.788051 4.343782 0
M  V30 38 H 0.907833 -2.647519 2.801121 0
M  V30 39 H 0.462017 0.214765 3.373753 0
M  V30 40 H -0.080491 -0.757580 2.005813 0
M  V30 41 H 1.760047 -0.242000 0.736763 0
M  V30 42 H 2.312650 2.531524 3.158192 0
M  V30 43 H 1.547626 4.801695 2.731700 0
M  V30 44 H -0.522025 3.481239 -0.671663 0
M  V30 45 H -0.767415 0.614676 -0.022545 0
M  V30 46 H -6.529449 -2.021061 -1.142987 0
M  V30 47 H -6.166144 -3.795150 0.591725 0
M  V30 48 H -3.943597 -4.751916 0.943118 0
M  V30 49 H -2.169165 -3.563103 -3.825588 0
M  V30 50 H -0.043297 -2.820936 -4.920269 0
M  V30 51 H 3.733072 1.129271 2.099678 0
M  V30 52 H 3.804725 -0.507092 1.486824 0
M  V30 END ATOM
M  V30 BEGIN BOND
M  V30 1 1 1 2
M  V30 2 1 2 3
M  V30 3 1 3 4
M  V30 4 1 4 5
M  V30 5 1 5 6
M  V30 6 1 6 7
M  V30 7 2 7 8
M  V30 8 1 8 9
M  V30 9 2 9 10
M  V30 10 1 10 11
M  V30 11 2 11 12
M  V30 12 1 12 13
M  V30 13 1 13 14
M  V30 14 2 14 15
M  V30 15 1 14 16
M  V30 16 2 16 17
M  V30 17 1 17 18
M  V30 18 1 18 19
M  V30 19 2 19 20
M  V30 20 1 20 21
M  V30 21 1 20 22
M  V30 22 2 22 23
M  V30 23 1 23 24
M  V30 24 2 24 25
M  V30 25 1 25 26
M  V30 26 2 18 27
M  V30 27 1 27 28
M  V30 28 2 28 29
M  V30 29 1 29 30
M  V30 30 1 6 31
M  V30 31 1 31 2
M  V30 32 1 12 7
M  V30 33 1 29 16
M  V30 34 1 25 19
M  V30 35 1 1 32
M  V30 36 1 1 33
M  V30 37 1 2 34 CFG=1
M  V30 38 1 3 35
M  V30 39 1 3 36
M  V30 40 1 4 37
M  V30 41 1 4 38
M  V30 42 1 5 39
M  V30 43 1 5 40
M  V30 44 1 6 41 CFG=3
M  V30 45 1 8 42
M  V30 46 1 9 43
M  V30 47 1 11 44
M  V30 48 1 13 45
M  V30 49 1 22 46
M  V30 50 1 23 47
M  V30 51 1 24 48
M  V30 52 1 27 49
M  V30 53 1 28 50
M  V30 54 1 31 51
M  V30 55 1 31 52
M  V30 END BOND
M  V30 END CTAB
M  END
>  <Dataset>  (420) 
ChEMBL_Kinases

>  <Ligand_Instance>  (420) 
nan

>  <PDB_ID>  (420) 
nan

>  <Standardized_SMILES>  (420) 
N[C@H]1CCC[C@@H](c2ccncc2NC(=O)c2nc(-c3c(F)cccc3F)ccc2F)C1

>  <Name>  (420) 
nan

>  <Pocket>  (420) 
nan

>  <ATP_Site>  (420) 
nan

>  <Peripheral>  (420) 
nan

>  <Num_H_Atoms_ProtBoundConf>  (420) 
nan

>  <Num_Resolved_Atoms>  (420) 
nan

>  <Num_Not_Resolved_Atoms>  (420) 
nan

$$$$
CHEMBL3651977
     RDKit          3D

  0  0  0  0  0  0  0  0  0  0999 V3000
M  V30 BEGIN CTAB
M  V30 COUNTS 52 55 0 0 0
M  V30 BEGIN ATOM
M  V30 1 N 4.257874 -2.574790 2.204731 0
M  V30 2 C 3.209039 -1.627633 2.440508 0 CFG=1
M  V30 3 C 3.185345 -1.095424 3.872741 0
M  V30 4 C 1.920540 -0.355443 4.093605 0
M  V30 5 C 1.391473 0.463510 2.982340 0
M  V30 6 C 1.951693 0.259136 1.628780 0 CFG=1
M  V30 7 C 1.890482 1.497924 0.816867 0
M  V30 8 C 2.977299 2.348586 0.901162 0
M  V30 9 C 2.998726 3.533436 0.170368 0
M  V30 10 N 1.984727 3.883701 -0.625604 0
M  V30 11 C 0.917049 3.071077 -0.722885 0
M  V30 12 C 0.865402 1.899935 -0.017844 0
M  V30 13 N -0.246315 1.018086 -0.098723 0
M  V30 14 C -1.411830 1.034060 0.714450 0
M  V30 15 O -1.395692 1.944717 1.572231 0
M  V30 16 C -2.498813 0.083602 0.551766 0
M  V30 17 C -3.567409 0.234304 1.424492 0
M  V30 18 C -4.598777 -0.668492 1.268538 0
M  V30 19 C -4.487482 -1.622696 0.283849 0
M  V30 20 F -5.525404 -2.464363 0.190685 0
M  V30 21 C -3.434903 -1.767301 -0.572156 0
M  V30 22 C -3.278245 -2.755049 -1.619678 0
M  V30 23 C -4.134667 -3.750036 -1.983505 0
M  V30 24 C -3.919296 -4.657063 -2.994383 0
M  V30 25 F -4.831045 -5.614459 -3.284782 0
M  V30 26 C -2.753002 -4.584996 -3.721088 0
M  V30 27 C -1.845121 -3.598761 -3.400743 0
M  V30 28 C -2.120968 -2.715395 -2.371125 0
M  V30 29 F -1.151089 -1.804842 -2.165180 0
M  V30 30 N -2.446842 -0.873374 -0.395141 0
M  V30 31 C 3.346907 -0.353105 1.605276 0
M  V30 32 H 4.748391 -2.421850 1.291439 0
M  V30 33 H 3.890418 -3.570928 2.130298 0
M  V30 34 H 2.191707 -2.053689 2.288296 0
M  V30 35 H 4.039219 -0.371002 3.924881 0
M  V30 36 H 3.281543 -1.907944 4.603401 0
M  V30 37 H 2.102358 0.324448 4.974208 0
M  V30 38 H 1.176722 -1.098577 4.506217 0
M  V30 39 H 1.419915 1.566398 3.224922 0
M  V30 40 H 0.287796 0.254090 2.934693 0
M  V30 41 H 1.322194 -0.495523 1.086607 0
M  V30 42 H 3.869219 2.221479 1.487897 0
M  V30 43 H 3.814604 4.244847 0.188057 0
M  V30 44 H 0.060730 3.318768 -1.364804 0
M  V30 45 H -0.129007 0.310160 -0.854924 0
M  V30 46 H -3.617663 0.998281 2.186363 0
M  V30 47 H -5.445049 -0.594521 1.916440 0
M  V30 48 H -5.048427 -3.854248 -1.459611 0
M  V30 49 H -2.567265 -5.288274 -4.517578 0
M  V30 50 H -0.957395 -3.573735 -3.982060 0
M  V30 51 H 4.090279 0.293600 2.112208 0
M  V30 52 H 3.584393 -0.587178 0.557188 0
M  V30 END ATOM
M  V30 BEGIN BOND
M  V30 1 1 1 2
M  V30 2 1 2 3
M  V30 3 1 3 4
M  V30 4 1 4 5
M  V30 5 1 5 6
M  V30 6 1 6 7
M  V30 7 2 7 8
M  V30 8 1 8 9
M  V30 9 2 9 10
M  V30 10 1 10 11
M  V30 11 2 11 12
M  V30 12 1 12 13
M  V30 13 1 13 14
M  V30 14 2 14 15
M  V30 15 1 14 16
M  V30 16 2 16 17
M  V30 17 1 17 18
M  V30 18 2 18 19
M  V30 19 1 19 20
M  V30 20 1 19 21
M  V30 21 1 21 22
M  V30 22 2 22 23
M  V30 23 1 23 24
M  V30 24 1 24 25
M  V30 25 2 24 26
M  V30 26 1 26 27
M  V30 27 2 27 28
M  V30 28 1 28 29
M  V30 29 2 21 30
M  V30 30 1 6 31
M  V30 31 1 31 2
M  V30 32 1 12 7
M  V30 33 1 30 16
M  V30 34 1 28 22
M  V30 35 1 1 32
M  V30 36 1 1 33
M  V30 37 1 2 34 CFG=3
M  V30 38 1 3 35
M  V30 39 1 3 36
M  V30 40 1 4 37
M  V30 41 1 4 38
M  V30 42 1 5 39
M  V30 43 1 5 40
M  V30 44 1 6 41 CFG=3
M  V30 45 1 8 42
M  V30 46 1 9 43
M  V30 47 1 11 44
M  V30 48 1 13 45
M  V30 49 1 17 46
M  V30 50 1 18 47
M  V30 51 1 23 48
M  V30 52 1 26 49
M  V30 53 1 27 50
M  V30 54 1 31 51
M  V30 55 1 31 52
M  V30 END BOND
M  V30 END CTAB
M  END
>  <Dataset>  (421) 
ChEMBL_Kinases

>  <Ligand_Instance>  (421) 
nan

>  <PDB_ID>  (421) 
nan

>  <Standardized_SMILES>  (421) 
N[C@H]1CCC[C@@H](c2ccncc2NC(=O)c2ccc(F)c(-c3cc(F)ccc3F)n2)C1

>  <Name>  (421) 
nan

>  <Pocket>  (421) 
nan

>  <ATP_Site>  (421) 
nan

>  <Peripheral>  (421) 
nan

>  <Num_H_Atoms_ProtBoundConf>  (421) 
nan

>  <Num_Resolved_Atoms>  (421) 
nan

>  <Num_Not_Resolved_Atoms>  (421) 
nan

$$$$
CHEMBL3651978
     RDKit          3D

  0  0  0  0  0  0  0  0  0  0999 V3000
M  V30 BEGIN CTAB
M  V30 COUNTS 52 55 0 0 0
M  V30 BEGIN ATOM
M  V30 1 N 4.425298 -2.241900 0.954089 0
M  V30 2 C 3.336683 -1.451732 1.431594 0 CFG=1
M  V30 3 C 3.266961 -1.428362 2.941346 0
M  V30 4 C 2.113388 -0.630694 3.440774 0
M  V30 5 C 1.957525 0.734292 2.805828 0
M  V30 6 C 2.017941 0.562452 1.327147 0 CFG=1
M  V30 7 C 1.689718 1.728495 0.519508 0
M  V30 8 C 2.667263 2.645693 0.149550 0
M  V30 9 C 2.428216 3.772750 -0.613475 0
M  V30 10 N 1.164020 3.993499 -1.023772 0
M  V30 11 C 0.207624 3.129082 -0.682914 0
M  V30 12 C 0.404251 1.980861 0.084541 0
M  V30 13 N -0.679105 1.114307 0.396837 0
M  V30 14 C -1.640301 1.009786 1.432476 0
M  V30 15 O -1.661661 1.825559 2.389949 0
M  V30 16 C -2.575317 -0.096240 1.291082 0
M  V30 17 C -3.528837 -0.221929 2.259032 0
M  V30 18 C -4.445691 -1.236827 2.186679 0
M  V30 19 C -4.463054 -2.169816 1.160471 0
M  V30 20 F -5.310260 -3.195943 0.994847 0
M  V30 21 C -3.468190 -1.995788 0.199365 0
M  V30 22 C -3.273765 -2.843536 -0.970562 0
M  V30 23 C -4.202910 -3.163447 -1.936962 0
M  V30 24 C -3.848699 -3.990734 -2.999046 0
M  V30 25 C -2.566175 -4.507892 -3.109661 0
M  V30 26 F -2.268649 -5.319302 -4.178114 0
M  V30 27 C -1.611643 -4.194433 -2.139635 0
M  V30 28 C -1.982095 -3.364608 -1.082405 0
M  V30 29 F -0.988787 -3.115756 -0.189468 0
M  V30 30 N -2.568630 -0.998878 0.271197 0
M  V30 31 C 3.409609 0.008501 1.005336 0
M  V30 32 H 5.170535 -1.648475 0.532163 0
M  V30 33 H 4.107490 -2.905094 0.201890 0
M  V30 34 H 2.331029 -1.817430 1.069203 0
M  V30 35 H 4.229387 -0.998468 3.292927 0
M  V30 36 H 3.106968 -2.480718 3.250145 0
M  V30 37 H 2.269938 -0.488715 4.539286 0
M  V30 38 H 1.155516 -1.161635 3.286695 0
M  V30 39 H 0.913649 1.072295 3.071393 0
M  V30 40 H 2.667841 1.474954 3.214851 0
M  V30 41 H 1.263865 -0.245904 1.092029 0
M  V30 42 H 3.665028 2.430632 0.499330 0
M  V30 43 H 3.227817 4.457703 -0.874621 0
M  V30 44 H -0.776045 3.394508 -1.061418 0
M  V30 45 H -0.601525 0.465728 -0.437117 0
M  V30 46 H -3.590246 0.472172 3.108552 0
M  V30 47 H -5.212805 -1.363918 2.936193 0
M  V30 48 H -5.163914 -2.716555 -1.765057 0
M  V30 49 H -4.619510 -4.205573 -3.724507 0
M  V30 50 H -0.602474 -4.598988 -2.222506 0
M  V30 51 H 4.131747 0.489803 1.715708 0
M  V30 52 H 3.685322 0.139669 -0.057086 0
M  V30 END ATOM
M  V30 BEGIN BOND
M  V30 1 1 1 2
M  V30 2 1 2 3
M  V30 3 1 3 4
M  V30 4 1 4 5
M  V30 5 1 5 6
M  V30 6 1 6 7
M  V30 7 2 7 8
M  V30 8 1 8 9
M  V30 9 2 9 10
M  V30 10 1 10 11
M  V30 11 2 11 12
M  V30 12 1 12 13
M  V30 13 1 13 14
M  V30 14 2 14 15
M  V30 15 1 14 16
M  V30 16 2 16 17
M  V30 17 1 17 18
M  V30 18 2 18 19
M  V30 19 1 19 20
M  V30 20 1 19 21
M  V30 21 1 21 22
M  V30 22 2 22 23
M  V30 23 1 23 24
M  V30 24 2 24 25
M  V30 25 1 25 26
M  V30 26 1 25 27
M  V30 27 2 27 28
M  V30 28 1 28 29
M  V30 29 2 21 30
M  V30 30 1 6 31
M  V30 31 1 31 2
M  V30 32 1 12 7
M  V30 33 1 30 16
M  V30 34 1 28 22
M  V30 35 1 1 32
M  V30 36 1 1 33
M  V30 37 1 2 34 CFG=3
M  V30 38 1 3 35
M  V30 39 1 3 36
M  V30 40 1 4 37
M  V30 41 1 4 38
M  V30 42 1 5 39
M  V30 43 1 5 40
M  V30 44 1 6 41 CFG=3
M  V30 45 1 8 42
M  V30 46 1 9 43
M  V30 47 1 11 44
M  V30 48 1 13 45
M  V30 49 1 17 46
M  V30 50 1 18 47
M  V30 51 1 23 48
M  V30 52 1 24 49
M  V30 53 1 27 50
M  V30 54 1 31 51
M  V30 55 1 31 52
M  V30 END BOND
M  V30 END CTAB
M  END
>  <Dataset>  (422) 
ChEMBL_Kinases

>  <Ligand_Instance>  (422) 
nan

>  <PDB_ID>  (422) 
nan

>  <Standardized_SMILES>  (422) 
N[C@H]1CCC[C@@H](c2ccncc2NC(=O)c2ccc(F)c(-c3ccc(F)cc3F)n2)C1

>  <Name>  (422) 
nan

>  <Pocket>  (422) 
nan

>  <ATP_Site>  (422) 
nan

>  <Peripheral>  (422) 
nan

>  <Num_H_Atoms_ProtBoundConf>  (422) 
nan

>  <Num_Resolved_Atoms>  (422) 
nan

>  <Num_Not_Resolved_Atoms>  (422) 
nan

$$$$
CHEMBL3652635
     RDKit          3D

  0  0  0  0  0  0  0  0  0  0999 V3000
M  V30 BEGIN CTAB
M  V30 COUNTS 51 54 0 0 0
M  V30 BEGIN ATOM
M  V30 1 C 1.459895 0.503575 4.333787 0
M  V30 2 N 0.286829 0.420868 3.490371 0
M  V30 3 N -0.977907 0.708232 3.793459 0
M  V30 4 C -1.772349 0.496441 2.721024 0
M  V30 5 C -0.999199 0.046364 1.652319 0
M  V30 6 N -1.387056 -0.302339 0.338063 0
M  V30 7 C -1.794394 -1.558282 -0.188480 0
M  V30 8 O -1.847096 -2.570734 0.558378 0
M  V30 9 C -2.155830 -1.692047 -1.595898 0
M  V30 10 N -2.100517 -0.612324 -2.392559 0
M  V30 11 C -2.413035 -0.633575 -3.698871 0
M  V30 12 C -2.308747 0.608846 -4.442353 0
M  V30 13 C -1.895238 1.731503 -3.756113 0
M  V30 14 C -1.764434 2.959476 -4.373222 0
M  V30 15 C -2.041379 3.126400 -5.711070 0
M  V30 16 C -2.456053 2.017598 -6.415618 0
M  V30 17 C -2.575652 0.812492 -5.772629 0
M  V30 18 F -2.981610 -0.215279 -6.517942 0
M  V30 19 C -2.797217 -1.870422 -4.148156 0
M  V30 20 C -2.870958 -3.006432 -3.376000 0
M  V30 21 C -2.540581 -2.937406 -2.039509 0
M  V30 22 N -2.617662 -4.102695 -1.253864 0
M  V30 23 C 0.284782 0.017209 2.189892 0
M  V30 24 N 1.415162 -0.391330 1.430137 0
M  V30 25 C 1.997254 -1.725583 1.265618 0
M  V30 26 C 3.302816 -1.443843 0.562381 0
M  V30 27 C 3.078187 -0.150144 -0.194440 0 CFG=1
M  V30 28 N 2.405854 -0.372419 -1.448589 0
M  V30 29 C 2.133366 0.633745 0.687869 0
M  V30 30 H 2.120910 -0.380110 4.268635 0
M  V30 31 H 1.146569 0.595105 5.390812 0
M  V30 32 H 2.072016 1.402245 4.112661 0
M  V30 33 H -2.854617 0.641468 2.655767 0
M  V30 34 H -1.330237 0.567379 -0.254773 0
M  V30 35 H -1.647051 1.717177 -2.686139 0
M  V30 36 H -1.438308 3.822557 -3.810515 0
M  V30 37 H -1.938474 4.087269 -6.191740 0
M  V30 38 H -2.677886 2.127550 -7.464626 0
M  V30 39 H -3.063528 -1.970168 -5.183218 0
M  V30 40 H -3.185956 -3.940669 -3.820682 0
M  V30 41 H -1.730804 -4.672238 -1.391216 0
M  V30 42 H -3.568128 -3.984829 -0.793018 0
M  V30 43 H 2.269118 -2.188213 2.236145 0
M  V30 44 H 1.328251 -2.407179 0.719163 0
M  V30 45 H 3.583911 -2.276981 -0.079585 0
M  V30 46 H 4.135212 -1.312767 1.301136 0
M  V30 47 H 4.027882 0.404021 -0.328665 0
M  V30 48 H 2.856454 0.097800 -2.242764 0
M  V30 49 H 2.170792 -1.376896 -1.617020 0
M  V30 50 H 1.431454 1.266542 0.090661 0
M  V30 51 H 2.772595 1.255449 1.356758 0
M  V30 END ATOM
M  V30 BEGIN BOND
M  V30 1 1 1 2
M  V30 2 1 2 3
M  V30 3 2 3 4
M  V30 4 1 4 5
M  V30 5 1 5 6
M  V30 6 1 6 7
M  V30 7 2 7 8
M  V30 8 1 7 9
M  V30 9 2 9 10
M  V30 10 1 10 11
M  V30 11 1 11 12
M  V30 12 2 12 13
M  V30 13 1 13 14
M  V30 14 2 14 15
M  V30 15 1 15 16
M  V30 16 2 16 17
M  V30 17 1 17 18
M  V30 18 2 11 19
M  V30 19 1 19 20
M  V30 20 2 20 21
M  V30 21 1 21 22
M  V30 22 2 5 23
M  V30 23 1 23 24
M  V30 24 1 24 25
M  V30 25 1 25 26
M  V30 26 1 26 27
M  V30 27 1 27 28
M  V30 28 1 27 29
M  V30 29 1 23 2
M  V30 30 1 29 24
M  V30 31 1 21 9
M  V30 32 1 17 12
M  V30 33 1 1 30
M  V30 34 1 1 31
M  V30 35 1 1 32
M  V30 36 1 4 33
M  V30 37 1 6 34
M  V30 38 1 13 35
M  V30 39 1 14 36
M  V30 40 1 15 37
M  V30 41 1 16 38
M  V30 42 1 19 39
M  V30 43 1 20 40
M  V30 44 1 22 41
M  V30 45 1 22 42
M  V30 46 1 25 43
M  V30 47 1 25 44
M  V30 48 1 26 45
M  V30 49 1 26 46
M  V30 50 1 27 47 CFG=3
M  V30 51 1 28 48
M  V30 52 1 28 49
M  V30 53 1 29 50
M  V30 54 1 29 51
M  V30 END BOND
M  V30 END CTAB
M  END
>  <Dataset>  (423) 
ChEMBL_Kinases

>  <Ligand_Instance>  (423) 
nan

>  <PDB_ID>  (423) 
nan

>  <Standardized_SMILES>  (423) 
Cn1ncc(NC(=O)c2nc(-c3ccccc3F)ccc2N)c1N1CC[C@@H](N)C1

>  <Name>  (423) 
nan

>  <Pocket>  (423) 
nan

>  <ATP_Site>  (423) 
nan

>  <Peripheral>  (423) 
nan

>  <Num_H_Atoms_ProtBoundConf>  (423) 
nan

>  <Num_Resolved_Atoms>  (423) 
nan

>  <Num_Not_Resolved_Atoms>  (423) 
nan

$$$$
CHEMBL3651979
     RDKit          3D

  0  0  0  0  0  0  0  0  0  0999 V3000
M  V30 BEGIN CTAB
M  V30 COUNTS 53 56 0 0 0
M  V30 BEGIN ATOM
M  V30 1 N 1.650207 -3.143960 3.670435 0
M  V30 2 C 1.592894 -3.370462 2.211861 0 CFG=2
M  V30 3 C 2.685217 -2.618223 1.578157 0
M  V30 4 C 2.556294 -2.288452 0.122457 0 CFG=2
M  V30 5 C 3.291047 -1.051184 -0.266247 0
M  V30 6 C 4.589003 -0.962758 -0.731920 0
M  V30 7 C 5.197263 0.223846 -1.078682 0
M  V30 8 N 4.517610 1.383965 -0.970184 0
M  V30 9 C 3.231836 1.339154 -0.513510 0
M  V30 10 C 2.623678 0.144535 -0.165769 0
M  V30 11 N 1.299161 0.385435 0.271858 0
M  V30 12 C 0.814148 0.687744 1.598145 0
M  V30 13 O 1.602986 0.775633 2.588449 0
M  V30 14 C -0.623266 0.894661 1.787240 0
M  V30 15 C -1.086680 1.185077 3.053088 0
M  V30 16 C -2.432651 1.386916 3.274164 0
M  V30 17 C -3.275209 1.284894 2.182835 0
M  V30 18 C -2.791016 0.993616 0.926063 0
M  V30 19 C -3.687271 0.887144 -0.217165 0
M  V30 20 C -5.053893 1.057130 -0.181329 0
M  V30 21 C -5.902346 0.957742 -1.249019 0
M  V30 22 C -5.355046 0.658757 -2.491627 0
M  V30 23 C -3.976510 0.471358 -2.612373 0
M  V30 24 C -3.184561 0.591458 -1.469851 0
M  V30 25 F -1.858188 0.389891 -1.696813 0
M  V30 26 N -1.468856 0.802829 0.748943 0
M  V30 27 C 1.279342 -2.553359 -0.549182 0
M  V30 28 C 0.060212 -2.760382 0.288713 0
M  V30 29 C 0.213825 -3.156097 1.685460 0 CFG=2
M  V30 30 O -0.401909 -2.276651 2.595161 0
M  V30 31 H 2.443531 -3.633137 4.116680 0
M  V30 32 H 0.730926 -3.343973 4.115597 0
M  V30 33 H 1.830759 -4.461732 2.157281 0
M  V30 34 H 2.775993 -1.636772 2.107559 0
M  V30 35 H 3.654531 -3.121156 1.851698 0
M  V30 36 H 3.267927 -3.067119 -0.325314 0
M  V30 37 H 5.115738 -1.926801 -0.808502 0
M  V30 38 H 6.198822 0.142212 -1.421626 0
M  V30 39 H 2.812524 2.342910 -0.478562 0
M  V30 40 H 0.594355 0.338121 -0.471081 0
M  V30 41 H -0.395583 1.260507 3.902772 0
M  V30 42 H -2.800780 1.615645 4.268405 0
M  V30 43 H -4.310039 1.447210 2.392523 0
M  V30 44 H -5.510572 1.290106 0.767120 0
M  V30 45 H -6.980992 1.110205 -1.117752 0
M  V30 46 H -6.040297 0.584095 -3.321833 0
M  V30 47 H -3.567109 0.238757 -3.586919 0
M  V30 48 H 1.304339 -3.484587 -1.205855 0
M  V30 49 H 1.119263 -1.805794 -1.359680 0
M  V30 50 H -0.473436 -1.766626 0.292037 0
M  V30 51 H -0.697975 -3.400929 -0.232849 0
M  V30 52 H -0.374725 -4.094959 1.879187 0
M  V30 53 H -1.218455 -1.960420 2.157361 0
M  V30 END ATOM
M  V30 BEGIN BOND
M  V30 1 1 1 2
M  V30 2 1 2 3
M  V30 3 1 3 4
M  V30 4 1 4 5
M  V30 5 2 5 6
M  V30 6 1 6 7
M  V30 7 2 7 8
M  V30 8 1 8 9
M  V30 9 2 9 10
M  V30 10 1 10 11
M  V30 11 1 11 12
M  V30 12 2 12 13
M  V30 13 1 12 14
M  V30 14 2 14 15
M  V30 15 1 15 16
M  V30 16 2 16 17
M  V30 17 1 17 18
M  V30 18 1 18 19
M  V30 19 2 19 20
M  V30 20 1 20 21
M  V30 21 2 21 22
M  V30 22 1 22 23
M  V30 23 2 23 24
M  V30 24 1 24 25
M  V30 25 2 18 26
M  V30 26 1 4 27
M  V30 27 1 27 28
M  V30 28 1 28 29
M  V30 29 1 29 30
M  V30 30 1 29 2
M  V30 31 1 10 5
M  V30 32 1 26 14
M  V30 33 1 24 19
M  V30 34 1 1 31
M  V30 35 1 1 32
M  V30 36 1 2 33 CFG=1
M  V30 37 1 3 34
M  V30 38 1 3 35
M  V30 39 1 4 36 CFG=3
M  V30 40 1 6 37
M  V30 41 1 7 38
M  V30 42 1 9 39
M  V30 43 1 11 40
M  V30 44 1 15 41
M  V30 45 1 16 42
M  V30 46 1 17 43
M  V30 47 1 20 44
M  V30 48 1 21 45
M  V30 49 1 22 46
M  V30 50 1 23 47
M  V30 51 1 27 48
M  V30 52 1 27 49
M  V30 53 1 28 50
M  V30 54 1 28 51
M  V30 55 1 29 52 CFG=3
M  V30 56 1 30 53
M  V30 END BOND
M  V30 END CTAB
M  END
>  <Dataset>  (424) 
ChEMBL_Kinases

>  <Ligand_Instance>  (424) 
nan

>  <PDB_ID>  (424) 
nan

>  <Standardized_SMILES>  (424) 
N[C@@H]1C[C@H](c2ccncc2NC(=O)c2cccc(-c3ccccc3F)n2)CC[C@@H]1O

>  <Name>  (424) 
nan

>  <Pocket>  (424) 
nan

>  <ATP_Site>  (424) 
nan

>  <Peripheral>  (424) 
nan

>  <Num_H_Atoms_ProtBoundConf>  (424) 
nan

>  <Num_Resolved_Atoms>  (424) 
nan

>  <Num_Not_Resolved_Atoms>  (424) 
nan

$$$$
CHEMBL3651980
     RDKit          3D

  0  0  0  0  0  0  0  0  0  0999 V3000
M  V30 BEGIN CTAB
M  V30 COUNTS 63 66 0 0 0
M  V30 BEGIN ATOM
M  V30 1 C 3.083491 -2.214303 1.320990 0
M  V30 2 C 2.674203 -0.994287 2.135321 0
M  V30 3 C 3.670053 0.116209 2.048225 0
M  V30 4 O 3.364195 1.277552 2.756011 0
M  V30 5 C 2.307259 2.106812 2.552656 0
M  V30 6 C 2.347988 3.144049 3.486503 0
M  V30 7 C 1.366606 4.145048 3.494739 0
M  V30 8 C 0.377450 4.040615 2.539517 0
M  V30 9 F -0.559958 5.005857 2.557945 0
M  V30 10 C 0.282523 3.048636 1.597141 0
M  V30 11 C -0.733205 2.887662 0.579798 0
M  V30 12 C -1.793427 3.705519 0.309417 0
M  V30 13 C -2.742484 3.515141 -0.673386 0
M  V30 14 C -2.619845 2.393705 -1.466842 0
M  V30 15 C -1.554128 1.565102 -1.200433 0
M  V30 16 C -1.445209 0.386237 -2.045292 0
M  V30 17 O -2.256755 0.104315 -2.971721 0
M  V30 18 N -0.376581 -0.505224 -1.831170 0
M  V30 19 C 0.191438 -1.713534 -2.299198 0
M  V30 20 C 1.120566 -1.568289 -3.310206 0
M  V30 21 N 1.720513 -2.674132 -3.837433 0
M  V30 22 C 1.402016 -3.906685 -3.366917 0
M  V30 23 C 0.471261 -3.991692 -2.360182 0
M  V30 24 C -0.197618 -2.917608 -1.755632 0
M  V30 25 C -1.167544 -3.105104 -0.682744 0 CFG=2
M  V30 26 C -2.607285 -3.190758 -1.122396 0
M  V30 27 C -3.368853 -3.811869 0.027771 0
M  V30 28 C -2.555584 -4.021478 1.264785 0 CFG=2
M  V30 29 O -3.494713 -4.196911 2.310437 0
M  V30 30 C -1.693615 -2.868965 1.664008 0 CFG=2
M  V30 31 N -2.502024 -1.948910 2.443848 0
M  V30 32 C -1.071557 -2.165750 0.471674 0
M  V30 33 N -0.686310 1.821412 -0.236021 0
M  V30 34 C 1.277796 2.103017 1.647796 0
M  V30 35 H 4.169796 -2.306915 1.364540 0
M  V30 36 H 2.659341 -2.200741 0.294546 0
M  V30 37 H 2.644728 -3.118249 1.805167 0
M  V30 38 H 1.629470 -0.724796 2.000010 0
M  V30 39 H 2.740611 -1.365810 3.206747 0
M  V30 40 H 3.739031 0.372126 0.944485 0
M  V30 41 H 4.708913 -0.241608 2.277637 0
M  V30 42 H 3.100145 3.300339 4.280509 0
M  V30 43 H 1.370312 4.969076 4.210851 0
M  V30 44 H -1.918119 4.584157 0.904515 0
M  V30 45 H -3.548958 4.220656 -0.811927 0
M  V30 46 H -3.322385 2.173137 -2.259800 0
M  V30 47 H 0.312555 -0.277478 -1.060846 0
M  V30 48 H 1.413606 -0.624139 -3.721864 0
M  V30 49 H 1.850676 -4.798033 -3.752899 0
M  V30 50 H 0.229795 -5.002297 -1.995305 0
M  V30 51 H -0.946869 -4.135643 -0.252996 0
M  V30 52 H -2.999548 -2.162003 -1.228806 0
M  V30 53 H -2.718544 -3.762229 -2.074463 0
M  V30 54 H -4.287290 -3.238707 0.300604 0
M  V30 55 H -3.733863 -4.813020 -0.333566 0
M  V30 56 H -1.993986 -5.001201 1.265152 0
M  V30 57 H -2.951340 -4.469067 3.106229 0
M  V30 58 H -0.903638 -3.241834 2.348626 0
M  V30 59 H -2.072650 -1.713154 3.346411 0
M  V30 60 H -2.593671 -1.068534 1.883329 0
M  V30 61 H -1.734497 -1.293777 0.272912 0
M  V30 62 H -0.038910 -1.854369 0.705617 0
M  V30 63 H 1.309161 1.290157 0.945867 0
M  V30 END ATOM
M  V30 BEGIN BOND
M  V30 1 1 1 2
M  V30 2 1 2 3
M  V30 3 1 3 4
M  V30 4 1 4 5
M  V30 5 2 5 6
M  V30 6 1 6 7
M  V30 7 2 7 8
M  V30 8 1 8 9
M  V30 9 1 8 10
M  V30 10 1 10 11
M  V30 11 2 11 12
M  V30 12 1 12 13
M  V30 13 2 13 14
M  V30 14 1 14 15
M  V30 15 1 15 16
M  V30 16 2 16 17
M  V30 17 1 16 18
M  V30 18 1 18 19
M  V30 19 2 19 20
M  V30 20 1 20 21
M  V30 21 2 21 22
M  V30 22 1 22 23
M  V30 23 2 23 24
M  V30 24 1 24 25
M  V30 25 1 25 26
M  V30 26 1 26 27
M  V30 27 1 27 28
M  V30 28 1 28 29
M  V30 29 1 28 30
M  V30 30 1 30 31
M  V30 31 1 30 32
M  V30 32 2 15 33
M  V30 33 2 10 34
M  V30 34 1 34 5
M  V30 35 1 33 11
M  V30 36 1 24 19
M  V30 37 1 32 25
M  V30 38 1 1 35
M  V30 39 1 1 36
M  V30 40 1 1 37
M  V30 41 1 2 38
M  V30 42 1 2 39
M  V30 43 1 3 40
M  V30 44 1 3 41
M  V30 45 1 6 42
M  V30 46 1 7 43
M  V30 47 1 12 44
M  V30 48 1 13 45
M  V30 49 1 14 46
M  V30 50 1 18 47
M  V30 51 1 20 48
M  V30 52 1 22 49
M  V30 53 1 23 50
M  V30 54 1 25 51 CFG=1
M  V30 55 1 26 52
M  V30 56 1 26 53
M  V30 57 1 27 54
M  V30 58 1 27 55
M  V30 59 1 28 56 CFG=3
M  V30 60 1 29 57
M  V30 61 1 30 58 CFG=1
M  V30 62 1 31 59
M  V30 63 1 31 60
M  V30 64 1 32 61
M  V30 65 1 32 62
M  V30 66 1 34 63
M  V30 END BOND
M  V30 END CTAB
M  END
>  <Dataset>  (425) 
ChEMBL_Kinases

>  <Ligand_Instance>  (425) 
nan

>  <PDB_ID>  (425) 
nan

>  <Standardized_SMILES>  (425) 
CCCOc1ccc(F)c(-c2cccc(C(=O)Nc3cnccc3[C@@H]3CC[C@H](O)[C@H](N)C3)n2)c1

>  <Name>  (425) 
nan

>  <Pocket>  (425) 
nan

>  <ATP_Site>  (425) 
nan

>  <Peripheral>  (425) 
nan

>  <Num_H_Atoms_ProtBoundConf>  (425) 
nan

>  <Num_Resolved_Atoms>  (425) 
nan

>  <Num_Not_Resolved_Atoms>  (425) 
nan

$$$$
CHEMBL3651981
     RDKit          3D

  0  0  0  0  0  0  0  0  0  0999 V3000
M  V30 BEGIN CTAB
M  V30 COUNTS 56 59 0 0 0
M  V30 BEGIN ATOM
M  V30 1 C 2.848976 -3.882177 -0.751382 0
M  V30 2 C 1.653508 -3.029158 -0.410350 0 CFG=1
M  V30 3 C 2.001453 -1.915736 0.529428 0
M  V30 4 C 2.032936 -0.567760 -0.157742 0 CFG=1
M  V30 5 C 2.657658 0.392405 0.769554 0
M  V30 6 C 4.017580 0.628975 0.796424 0
M  V30 7 C 4.650148 1.524194 1.652621 0
M  V30 8 N 3.837760 2.184949 2.498423 0
M  V30 9 C 2.519213 2.000266 2.520390 0
M  V30 10 C 1.874879 1.115367 1.677248 0
M  V30 11 N 0.477566 0.862609 1.639233 0
M  V30 12 C -0.232056 1.725425 0.726819 0
M  V30 13 O 0.401697 2.594540 0.064243 0
M  V30 14 C -1.688361 1.546637 0.610925 0
M  V30 15 C -2.372474 2.372821 -0.263607 0
M  V30 16 C -3.751642 2.229491 -0.396769 0
M  V30 17 C -4.412544 1.285936 0.327705 0
M  V30 18 F -5.748253 1.027267 0.306739 0
M  V30 19 C -3.708048 0.471770 1.195285 0
M  V30 20 C -4.213927 -0.591412 2.057039 0
M  V30 21 C -4.656550 -0.448134 3.368806 0
M  V30 22 F -4.602668 0.808761 3.871209 0
M  V30 23 C -5.110561 -1.549766 4.065587 0
M  V30 24 C -5.154513 -2.819464 3.528746 0
M  V30 25 C -4.702407 -2.915927 2.214793 0
M  V30 26 C -4.239517 -1.852600 1.473292 0
M  V30 27 F -3.831670 -2.099510 0.204888 0
M  V30 28 N -2.365272 0.615300 1.321346 0
M  V30 29 C 2.700630 -0.645583 -1.504928 0
M  V30 30 C 1.832292 -1.485684 -2.400231 0 CFG=1
M  V30 31 N 2.619137 -2.183359 -3.404611 0
M  V30 32 C 0.963297 -2.444662 -1.620883 0 CFG=1
M  V30 33 O 0.482035 -3.456459 -2.440991 0
M  V30 34 H 2.894343 -4.752311 -0.032333 0
M  V30 35 H 3.773906 -3.311535 -0.526033 0
M  V30 36 H 2.825359 -4.327960 -1.750134 0
M  V30 37 H 0.894476 -3.706957 0.052146 0
M  V30 38 H 1.194900 -1.845435 1.288225 0
M  V30 39 H 2.958538 -2.110530 1.048819 0
M  V30 40 H 0.996214 -0.218472 -0.342792 0
M  V30 41 H 4.640446 0.081077 0.103564 0
M  V30 42 H 5.725668 1.660945 1.619783 0
M  V30 43 H 1.862167 2.531930 3.201518 0
M  V30 44 H -0.072373 0.144561 2.181634 0
M  V30 45 H -1.903257 3.126998 -0.853900 0
M  V30 46 H -4.376943 2.827461 -1.054485 0
M  V30 47 H -5.441840 -1.380784 5.079464 0
M  V30 48 H -5.509976 -3.669336 4.080847 0
M  V30 49 H -4.725053 -3.915167 1.758940 0
M  V30 50 H 3.745399 -0.968747 -1.461253 0
M  V30 51 H 2.735844 0.414759 -1.879064 0
M  V30 52 H 1.163185 -0.788797 -2.959841 0
M  V30 53 H 2.137621 -3.046043 -3.694800 0
M  V30 54 H 2.728314 -1.574260 -4.246491 0
M  V30 55 H 0.098927 -1.872519 -1.225111 0
M  V30 56 H -0.502661 -3.604062 -2.335108 0
M  V30 END ATOM
M  V30 BEGIN BOND
M  V30 1 1 1 2
M  V30 2 1 2 3
M  V30 3 1 3 4
M  V30 4 1 4 5
M  V30 5 2 5 6
M  V30 6 1 6 7
M  V30 7 2 7 8
M  V30 8 1 8 9
M  V30 9 2 9 10
M  V30 10 1 10 11
M  V30 11 1 11 12
M  V30 12 2 12 13
M  V30 13 1 12 14
M  V30 14 2 14 15
M  V30 15 1 15 16
M  V30 16 2 16 17
M  V30 17 1 17 18
M  V30 18 1 17 19
M  V30 19 1 19 20
M  V30 20 2 20 21
M  V30 21 1 21 22
M  V30 22 1 21 23
M  V30 23 2 23 24
M  V30 24 1 24 25
M  V30 25 2 25 26
M  V30 26 1 26 27
M  V30 27 2 19 28
M  V30 28 1 4 29
M  V30 29 1 29 30
M  V30 30 1 30 31
M  V30 31 1 30 32
M  V30 32 1 32 33
M  V30 33 1 32 2
M  V30 34 1 10 5
M  V30 35 1 28 14
M  V30 36 1 26 20
M  V30 37 1 1 34
M  V30 38 1 1 35
M  V30 39 1 1 36
M  V30 40 1 2 37 CFG=1
M  V30 41 1 3 38
M  V30 42 1 3 39
M  V30 43 1 4 40 CFG=3
M  V30 44 1 6 41
M  V30 45 1 7 42
M  V30 46 1 9 43
M  V30 47 1 11 44
M  V30 48 1 15 45
M  V30 49 1 16 46
M  V30 50 1 23 47
M  V30 51 1 24 48
M  V30 52 1 25 49
M  V30 53 1 29 50
M  V30 54 1 29 51
M  V30 55 1 30 52 CFG=3
M  V30 56 1 31 53
M  V30 57 1 31 54
M  V30 58 1 32 55 CFG=1
M  V30 59 1 33 56
M  V30 END BOND
M  V30 END CTAB
M  END
>  <Dataset>  (426) 
ChEMBL_Kinases

>  <Ligand_Instance>  (426) 
nan

>  <PDB_ID>  (426) 
nan

>  <Standardized_SMILES>  (426) 
C[C@H]1C[C@@H](c2ccncc2NC(=O)c2ccc(F)c(-c3c(F)cccc3F)n2)C[C@@H](N)[C@H]1O

>  <Name>  (426) 
nan

>  <Pocket>  (426) 
nan

>  <ATP_Site>  (426) 
nan

>  <Peripheral>  (426) 
nan

>  <Num_H_Atoms_ProtBoundConf>  (426) 
nan

>  <Num_Resolved_Atoms>  (426) 
nan

>  <Num_Not_Resolved_Atoms>  (426) 
nan

$$$$
CHEMBL3651982
     RDKit          3D

  0  0  0  0  0  0  0  0  0  0999 V3000
M  V30 BEGIN CTAB
M  V30 COUNTS 56 59 0 0 0
M  V30 BEGIN ATOM
M  V30 1 C 0.982451 -3.200123 2.462900 0
M  V30 2 C 1.526157 -3.009820 1.054114 0 CFG=2
M  V30 3 C 2.247662 -1.728715 1.006292 0
M  V30 4 C 2.407987 -1.074618 -0.349511 0 CFG=2
M  V30 5 C 3.052020 0.228424 -0.225796 0
M  V30 6 C 4.432411 0.409427 -0.477617 0
M  V30 7 C 5.165925 1.575140 -0.417438 0
M  V30 8 N 4.492784 2.685227 -0.077335 0
M  V30 9 C 3.178893 2.575254 0.174142 0
M  V30 10 C 2.449573 1.420653 0.115473 0
M  V30 11 N 1.061982 1.404457 0.407630 0
M  V30 12 C 0.153177 2.442963 0.745618 0
M  V30 13 O 0.586623 3.618408 0.817061 0
M  V30 14 C -1.261118 2.218583 1.015282 0
M  V30 15 C -2.083573 3.274471 1.331573 0
M  V30 16 C -3.422594 3.062484 1.584927 0
M  V30 17 C -3.972617 1.801686 1.530056 0
M  V30 18 F -5.266864 1.493125 1.761072 0
M  V30 19 C -3.073067 0.790807 1.203651 0
M  V30 20 C -3.478772 -0.620333 1.098026 0
M  V30 21 C -3.487042 -1.556207 2.098660 0
M  V30 22 F -3.074974 -1.117887 3.316342 0
M  V30 23 C -3.893931 -2.842679 1.841829 0
M  V30 24 C -4.299755 -3.191553 0.553290 0
M  V30 25 C -4.300490 -2.267843 -0.470992 0
M  V30 26 C -3.881027 -0.973742 -0.170960 0
M  V30 27 F -3.919533 -0.136588 -1.255239 0
M  V30 28 N -1.778281 0.979019 0.956416 0
M  V30 29 C 1.394265 -1.361651 -1.350152 0
M  V30 30 C 1.162909 -2.888885 -1.326116 0 CFG=2
M  V30 31 N 0.217373 -3.163300 -2.392745 0
M  V30 32 C 0.499339 -3.256837 0.005856 0 CFG=2
M  V30 33 O -0.697740 -2.617916 0.204534 0
M  V30 34 H 0.178718 -2.501202 2.715465 0
M  V30 35 H 0.557764 -4.234293 2.556824 0
M  V30 36 H 1.854984 -3.169166 3.128264 0
M  V30 37 H 2.274916 -3.852013 0.949033 0
M  V30 38 H 3.262055 -1.907267 1.484605 0
M  V30 39 H 1.756692 -1.024734 1.720790 0
M  V30 40 H 3.282198 -1.732312 -0.744423 0
M  V30 41 H 5.044246 -0.466277 -0.762041 0
M  V30 42 H 6.220783 1.587636 -0.632616 0
M  V30 43 H 2.779804 3.552862 0.434831 0
M  V30 44 H 0.534901 0.501393 0.403133 0
M  V30 45 H -1.646334 4.271567 1.374542 0
M  V30 46 H -4.071932 3.879218 1.832301 0
M  V30 47 H -3.892905 -3.567276 2.645547 0
M  V30 48 H -4.625731 -4.220080 0.344435 0
M  V30 49 H -4.625961 -2.575962 -1.473770 0
M  V30 50 H 0.406514 -0.970355 -1.354439 0
M  V30 51 H 1.750354 -1.222273 -2.419481 0
M  V30 52 H 2.082664 -3.456244 -1.430577 0
M  V30 53 H -0.475624 -3.899498 -2.121257 0
M  V30 54 H -0.335360 -2.304952 -2.648991 0
M  V30 55 H 0.259349 -4.343172 -0.108152 0
M  V30 56 H -1.068745 -2.122893 -0.542023 0
M  V30 END ATOM
M  V30 BEGIN BOND
M  V30 1 1 1 2
M  V30 2 1 2 3
M  V30 3 1 3 4
M  V30 4 1 4 5
M  V30 5 2 5 6
M  V30 6 1 6 7
M  V30 7 2 7 8
M  V30 8 1 8 9
M  V30 9 2 9 10
M  V30 10 1 10 11
M  V30 11 1 11 12
M  V30 12 2 12 13
M  V30 13 1 12 14
M  V30 14 2 14 15
M  V30 15 1 15 16
M  V30 16 2 16 17
M  V30 17 1 17 18
M  V30 18 1 17 19
M  V30 19 1 19 20
M  V30 20 2 20 21
M  V30 21 1 21 22
M  V30 22 1 21 23
M  V30 23 2 23 24
M  V30 24 1 24 25
M  V30 25 2 25 26
M  V30 26 1 26 27
M  V30 27 2 19 28
M  V30 28 1 4 29
M  V30 29 1 29 30
M  V30 30 1 30 31
M  V30 31 1 30 32
M  V30 32 1 32 33
M  V30 33 1 32 2
M  V30 34 1 10 5
M  V30 35 1 28 14
M  V30 36 1 26 20
M  V30 37 1 1 34
M  V30 38 1 1 35
M  V30 39 1 1 36
M  V30 40 1 2 37 CFG=3
M  V30 41 1 3 38
M  V30 42 1 3 39
M  V30 43 1 4 40 CFG=3
M  V30 44 1 6 41
M  V30 45 1 7 42
M  V30 46 1 9 43
M  V30 47 1 11 44
M  V30 48 1 15 45
M  V30 49 1 16 46
M  V30 50 1 23 47
M  V30 51 1 24 48
M  V30 52 1 25 49
M  V30 53 1 29 50
M  V30 54 1 29 51
M  V30 55 1 30 52 CFG=3
M  V30 56 1 31 53
M  V30 57 1 31 54
M  V30 58 1 32 55 CFG=3
M  V30 59 1 33 56
M  V30 END BOND
M  V30 END CTAB
M  END
>  <Dataset>  (427) 
ChEMBL_Kinases

>  <Ligand_Instance>  (427) 
nan

>  <PDB_ID>  (427) 
nan

>  <Standardized_SMILES>  (427) 
C[C@@H]1C[C@H](c2ccncc2NC(=O)c2ccc(F)c(-c3c(F)cccc3F)n2)C[C@H](N)[C@@H]1O

>  <Name>  (427) 
nan

>  <Pocket>  (427) 
nan

>  <ATP_Site>  (427) 
nan

>  <Peripheral>  (427) 
nan

>  <Num_H_Atoms_ProtBoundConf>  (427) 
nan

>  <Num_Resolved_Atoms>  (427) 
nan

>  <Num_Not_Resolved_Atoms>  (427) 
nan

$$$$
CHEMBL3651983
     RDKit          3D

  0  0  0  0  0  0  0  0  0  0999 V3000
M  V30 BEGIN CTAB
M  V30 COUNTS 53 56 0 0 0
M  V30 BEGIN ATOM
M  V30 1 N -0.651537 -3.707953 1.319720 0
M  V30 2 C 0.545091 -3.760765 0.459244 0 CFG=2
M  V30 3 C 1.579252 -2.806826 0.948037 0
M  V30 4 C 2.247191 -1.998403 -0.109844 0 CFG=2
M  V30 5 C 3.214396 -1.025741 0.380683 0
M  V30 6 C 4.600369 -1.310047 0.330279 0
M  V30 7 C 5.688823 -0.519074 0.716444 0
M  V30 8 N 5.327214 0.702765 1.211453 0
M  V30 9 C 4.011747 1.034678 1.286246 0
M  V30 10 C 2.966913 0.246512 0.904016 0
M  V30 11 N 1.657295 0.676440 1.022175 0
M  V30 12 C 1.132016 1.947333 1.374776 0
M  V30 13 O 1.954084 2.863746 1.619160 0
M  V30 14 C -0.293595 2.327271 1.490456 0
M  V30 15 C -0.610429 3.634988 1.792997 0
M  V30 16 C -1.919284 4.037043 1.902323 0
M  V30 17 C -2.847925 3.044244 1.688686 0
M  V30 18 F -4.131487 3.438371 1.796771 0
M  V30 19 C -2.566243 1.737591 1.387248 0
M  V30 20 C -3.513565 0.680499 1.174578 0
M  V30 21 C -4.888521 0.726106 1.181654 0
M  V30 22 C -5.736873 -0.318806 0.968726 0
M  V30 23 C -5.218049 -1.553427 0.719512 0
M  V30 24 C -3.846969 -1.690945 0.693838 0
M  V30 25 C -3.041785 -0.594158 0.917200 0
M  V30 26 F -1.712322 -0.833518 0.874908 0
M  V30 27 N -1.261643 1.439697 1.301324 0
M  V30 28 C 1.407881 -1.641798 -1.284803 0
M  V30 29 C 0.933415 -2.938931 -1.913918 0
M  V30 30 C 0.083064 -3.658771 -0.938810 0 CFG=2
M  V30 31 O -1.240983 -3.150960 -1.006512 0
M  V30 32 H -0.444052 -3.380136 2.273469 0
M  V30 33 H -1.228767 -4.560420 1.242476 0
M  V30 34 H 0.889633 -4.827785 0.615395 0
M  V30 35 H 1.114653 -2.133075 1.690280 0
M  V30 36 H 2.327262 -3.378231 1.541120 0
M  V30 37 H 2.932274 -2.798334 -0.607082 0
M  V30 38 H 4.941618 -2.271955 -0.055216 0
M  V30 39 H 6.694129 -0.851563 0.626801 0
M  V30 40 H 3.974802 2.016095 1.701321 0
M  V30 41 H 0.831800 0.060618 0.862763 0
M  V30 42 H 0.164620 4.392697 1.955354 0
M  V30 43 H -2.175427 5.052051 2.137058 0
M  V30 44 H -5.352084 1.676374 1.372512 0
M  V30 45 H -6.809840 -0.189012 0.993349 0
M  V30 46 H -5.877409 -2.389726 0.549090 0
M  V30 47 H -3.482150 -2.683979 0.494614 0
M  V30 48 H 2.043925 -1.179879 -2.070966 0
M  V30 49 H 0.551423 -1.003786 -1.154129 0
M  V30 50 H 1.748640 -3.562696 -2.274003 0
M  V30 51 H 0.273910 -2.649073 -2.773476 0
M  V30 52 H -0.060140 -4.697335 -1.392884 0
M  V30 53 H -1.340296 -2.681993 -1.868810 0
M  V30 END ATOM
M  V30 BEGIN BOND
M  V30 1 1 1 2
M  V30 2 1 2 3
M  V30 3 1 3 4
M  V30 4 1 4 5
M  V30 5 2 5 6
M  V30 6 1 6 7
M  V30 7 2 7 8
M  V30 8 1 8 9
M  V30 9 2 9 10
M  V30 10 1 10 11
M  V30 11 1 11 12
M  V30 12 2 12 13
M  V30 13 1 12 14
M  V30 14 2 14 15
M  V30 15 1 15 16
M  V30 16 2 16 17
M  V30 17 1 17 18
M  V30 18 1 17 19
M  V30 19 1 19 20
M  V30 20 2 20 21
M  V30 21 1 21 22
M  V30 22 2 22 23
M  V30 23 1 23 24
M  V30 24 2 24 25
M  V30 25 1 25 26
M  V30 26 2 19 27
M  V30 27 1 4 28
M  V30 28 1 28 29
M  V30 29 1 29 30
M  V30 30 1 30 31
M  V30 31 1 30 2
M  V30 32 1 10 5
M  V30 33 1 27 14
M  V30 34 1 25 20
M  V30 35 1 1 32
M  V30 36 1 1 33
M  V30 37 1 2 34 CFG=3
M  V30 38 1 3 35
M  V30 39 1 3 36
M  V30 40 1 4 37 CFG=3
M  V30 41 1 6 38
M  V30 42 1 7 39
M  V30 43 1 9 40
M  V30 44 1 11 41
M  V30 45 1 15 42
M  V30 46 1 16 43
M  V30 47 1 21 44
M  V30 48 1 22 45
M  V30 49 1 23 46
M  V30 50 1 24 47
M  V30 51 1 28 48
M  V30 52 1 28 49
M  V30 53 1 29 50
M  V30 54 1 29 51
M  V30 55 1 30 52 CFG=3
M  V30 56 1 31 53
M  V30 END BOND
M  V30 END CTAB
M  END
>  <Dataset>  (428) 
ChEMBL_Kinases

>  <Ligand_Instance>  (428) 
nan

>  <PDB_ID>  (428) 
nan

>  <Standardized_SMILES>  (428) 
N[C@@H]1C[C@H](c2ccncc2NC(=O)c2ccc(F)c(-c3ccccc3F)n2)CC[C@@H]1O

>  <Name>  (428) 
nan

>  <Pocket>  (428) 
nan

>  <ATP_Site>  (428) 
nan

>  <Peripheral>  (428) 
nan

>  <Num_H_Atoms_ProtBoundConf>  (428) 
nan

>  <Num_Resolved_Atoms>  (428) 
nan

>  <Num_Not_Resolved_Atoms>  (428) 
nan

$$$$
CHEMBL3651975
     RDKit          3D

  0  0  0  0  0  0  0  0  0  0999 V3000
M  V30 BEGIN CTAB
M  V30 COUNTS 52 55 0 0 0
M  V30 BEGIN ATOM
M  V30 1 N 4.239401 -2.398871 1.216144 0
M  V30 2 C 3.113566 -1.591131 1.638084 0 CFG=1
M  V30 3 C 2.872047 -1.625228 3.109383 0
M  V30 4 C 2.724024 -0.261637 3.721265 0
M  V30 5 C 1.708150 0.593989 2.987851 0
M  V30 6 C 1.894543 0.490904 1.488618 0 CFG=1
M  V30 7 C 1.637965 1.723511 0.753566 0
M  V30 8 C 2.716343 2.613486 0.704587 0
M  V30 9 C 2.595001 3.824748 0.039400 0
M  V30 10 N 1.430890 4.173143 -0.578125 0
M  V30 11 C 0.411962 3.312941 -0.521942 0
M  V30 12 C 0.473333 2.102675 0.120784 0
M  V30 13 N -0.590961 1.181191 0.177016 0
M  V30 14 C -1.654883 1.081213 1.090624 0
M  V30 15 O -1.711240 1.913653 2.005699 0
M  V30 16 C -2.641813 0.009084 0.923696 0
M  V30 17 C -3.716555 -0.080910 1.800362 0
M  V30 18 C -4.634905 -1.091623 1.622925 0
M  V30 19 C -4.540246 -2.024472 0.612888 0
M  V30 20 F -5.451030 -3.017419 0.443928 0
M  V30 21 C -3.456376 -1.881373 -0.218292 0
M  V30 22 C -3.237295 -2.809027 -1.317798 0
M  V30 23 C -4.083978 -3.175562 -2.349795 0
M  V30 24 C -3.610245 -4.080272 -3.250644 0
M  V30 25 C -2.373755 -4.659272 -3.226916 0
M  V30 26 C -1.501726 -4.298256 -2.185595 0
M  V30 27 F -0.301572 -4.886092 -2.197344 0
M  V30 28 C -1.976504 -3.386381 -1.275963 0
M  V30 29 F -1.034342 -3.123456 -0.325291 0
M  V30 30 N -2.564940 -0.895439 -0.042255 0
M  V30 31 C 3.244610 -0.150057 1.197479 0
M  V30 32 H 5.004099 -1.850266 0.768121 0
M  V30 33 H 3.927995 -3.142815 0.523248 0
M  V30 34 H 2.176130 -1.998942 1.150996 0
M  V30 35 H 3.762100 -2.091588 3.596583 0
M  V30 36 H 2.024828 -2.301468 3.377888 0
M  V30 37 H 3.699149 0.246428 3.859602 0
M  V30 38 H 2.334045 -0.406525 4.756029 0
M  V30 39 H 1.863370 1.635254 3.289558 0
M  V30 40 H 0.696450 0.282148 3.319656 0
M  V30 41 H 1.146530 -0.267448 1.143301 0
M  V30 42 H 3.672694 2.448317 1.149880 0
M  V30 43 H 3.433124 4.538081 -0.011446 0
M  V30 44 H -0.539381 3.547457 -0.999566 0
M  V30 45 H -0.536012 0.481248 -0.610580 0
M  V30 46 H -3.804862 0.653240 2.604917 0
M  V30 47 H -5.470544 -1.140687 2.323547 0
M  V30 48 H -5.042058 -2.678342 -2.305816 0
M  V30 49 H -4.310746 -4.344759 -4.055513 0
M  V30 50 H -2.117566 -5.377696 -4.020065 0
M  V30 51 H 3.987411 0.363227 1.845544 0
M  V30 52 H 3.478114 -0.075467 0.113464 0
M  V30 END ATOM
M  V30 BEGIN BOND
M  V30 1 1 1 2
M  V30 2 1 2 3
M  V30 3 1 3 4
M  V30 4 1 4 5
M  V30 5 1 5 6
M  V30 6 1 6 7
M  V30 7 2 7 8
M  V30 8 1 8 9
M  V30 9 2 9 10
M  V30 10 1 10 11
M  V30 11 2 11 12
M  V30 12 1 12 13
M  V30 13 1 13 14
M  V30 14 2 14 15
M  V30 15 1 14 16
M  V30 16 2 16 17
M  V30 17 1 17 18
M  V30 18 2 18 19
M  V30 19 1 19 20
M  V30 20 1 19 21
M  V30 21 1 21 22
M  V30 22 2 22 23
M  V30 23 1 23 24
M  V30 24 2 24 25
M  V30 25 1 25 26
M  V30 26 1 26 27
M  V30 27 2 26 28
M  V30 28 1 28 29
M  V30 29 2 21 30
M  V30 30 1 6 31
M  V30 31 1 31 2
M  V30 32 1 12 7
M  V30 33 1 30 16
M  V30 34 1 28 22
M  V30 35 1 1 32
M  V30 36 1 1 33
M  V30 37 1 2 34 CFG=3
M  V30 38 1 3 35
M  V30 39 1 3 36
M  V30 40 1 4 37
M  V30 41 1 4 38
M  V30 42 1 5 39
M  V30 43 1 5 40
M  V30 44 1 6 41 CFG=3
M  V30 45 1 8 42
M  V30 46 1 9 43
M  V30 47 1 11 44
M  V30 48 1 13 45
M  V30 49 1 17 46
M  V30 50 1 18 47
M  V30 51 1 23 48
M  V30 52 1 24 49
M  V30 53 1 25 50
M  V30 54 1 31 51
M  V30 55 1 31 52
M  V30 END BOND
M  V30 END CTAB
M  END
>  <Dataset>  (429) 
ChEMBL_Kinases

>  <Ligand_Instance>  (429) 
nan

>  <PDB_ID>  (429) 
nan

>  <Standardized_SMILES>  (429) 
N[C@H]1CCC[C@@H](c2ccncc2NC(=O)c2ccc(F)c(-c3cccc(F)c3F)n2)C1

>  <Name>  (429) 
nan

>  <Pocket>  (429) 
nan

>  <ATP_Site>  (429) 
nan

>  <Peripheral>  (429) 
nan

>  <Num_H_Atoms_ProtBoundConf>  (429) 
nan

>  <Num_Resolved_Atoms>  (429) 
nan

>  <Num_Not_Resolved_Atoms>  (429) 
nan

$$$$
CHEMBL3651947
     RDKit          3D

  0  0  0  0  0  0  0  0  0  0999 V3000
M  V30 BEGIN CTAB
M  V30 COUNTS 57 60 0 0 0
M  V30 BEGIN ATOM
M  V30 1 C 3.192429 -1.287079 1.058117 0
M  V30 2 C 2.931607 -0.152999 0.110839 0 CFG=2
M  V30 3 C 2.701517 1.099641 0.937369 0
M  V30 4 C 2.300865 2.290103 0.095006 0 CFG=2
M  V30 5 N 1.808583 3.307296 1.007168 0
M  V30 6 C 1.164695 1.952889 -0.845091 0
M  V30 7 C 1.452827 0.698151 -1.602391 0 CFG=2
M  V30 8 C 0.528269 0.466367 -2.703972 0
M  V30 9 C 0.837381 0.976952 -3.972527 0
M  V30 10 C 0.045893 0.819209 -5.092954 0
M  V30 11 N -1.111232 0.129935 -4.987831 0
M  V30 12 C -1.460084 -0.386095 -3.784414 0
M  V30 13 C -0.664976 -0.224897 -2.668875 0
M  V30 14 N -1.072576 -0.781437 -1.449174 0
M  V30 15 C -1.914664 -0.041909 -0.539093 0
M  V30 16 O -2.377016 1.117076 -0.682523 0
M  V30 17 C -2.291665 -0.697051 0.710915 0
M  V30 18 N -1.887199 -1.929818 1.025118 0
M  V30 19 C -2.239610 -2.541627 2.193861 0
M  V30 20 C -1.794866 -3.897178 2.539327 0
M  V30 21 C -0.584154 -3.887796 3.235040 0
M  V30 22 F 0.109138 -2.775961 3.560291 0
M  V30 23 C -0.074236 -5.136236 3.610864 0
M  V30 24 C -0.741030 -6.303570 3.304516 0
M  V30 25 C -1.939095 -6.289899 2.614576 0
M  V30 26 C -2.454084 -5.071175 2.237819 0
M  V30 27 F -3.621089 -4.943909 1.558290 0
M  V30 28 C -3.047231 -1.923200 3.143455 0
M  V30 29 F -3.387340 -2.544385 4.297731 0
M  V30 30 C -3.468914 -0.648811 2.825098 0
M  V30 31 C -3.094900 -0.043303 1.622217 0
M  V30 32 N -3.572549 1.265374 1.376896 0
M  V30 33 C 1.601963 -0.418682 -0.614379 0
M  V30 34 H 4.268977 -1.245250 1.372778 0
M  V30 35 H 2.513161 -1.180631 1.914694 0
M  V30 36 H 3.044745 -2.287035 0.583581 0
M  V30 37 H 3.754190 -0.002929 -0.609423 0
M  V30 38 H 3.605785 1.369828 1.497167 0
M  V30 39 H 1.870106 0.876586 1.633112 0
M  V30 40 H 3.191695 2.657808 -0.423632 0
M  V30 41 H 2.538968 3.544805 1.725013 0
M  V30 42 H 1.636708 4.198050 0.476548 0
M  V30 43 H 0.228764 1.886438 -0.292966 0
M  V30 44 H 1.086736 2.788502 -1.572514 0
M  V30 45 H 2.488837 0.840635 -2.041413 0
M  V30 46 H 1.775370 1.541237 -4.078635 0
M  V30 47 H 0.349067 1.241610 -6.039668 0
M  V30 48 H -2.386902 -0.941024 -3.689413 0
M  V30 49 H -0.774633 -1.743556 -1.174424 0
M  V30 50 H 0.862616 -5.167912 4.151808 0
M  V30 51 H -0.283609 -7.213920 3.627779 0
M  V30 52 H -2.466794 -7.202943 2.371460 0
M  V30 53 H -4.106805 -0.096888 3.520807 0
M  V30 54 H -4.378936 1.086671 0.739210 0
M  V30 55 H -3.117745 2.094375 1.804657 0
M  V30 56 H 1.628626 -1.386809 -1.132551 0
M  V30 57 H 0.856429 -0.367375 0.205826 0
M  V30 END ATOM
M  V30 BEGIN BOND
M  V30 1 1 1 2
M  V30 2 1 2 3
M  V30 3 1 3 4
M  V30 4 1 4 5
M  V30 5 1 4 6
M  V30 6 1 6 7
M  V30 7 1 7 8
M  V30 8 2 8 9
M  V30 9 1 9 10
M  V30 10 2 10 11
M  V30 11 1 11 12
M  V30 12 2 12 13
M  V30 13 1 13 14
M  V30 14 1 14 15
M  V30 15 2 15 16
M  V30 16 1 15 17
M  V30 17 2 17 18
M  V30 18 1 18 19
M  V30 19 1 19 20
M  V30 20 2 20 21
M  V30 21 1 21 22
M  V30 22 1 21 23
M  V30 23 2 23 24
M  V30 24 1 24 25
M  V30 25 2 25 26
M  V30 26 1 26 27
M  V30 27 2 19 28
M  V30 28 1 28 29
M  V30 29 1 28 30
M  V30 30 2 30 31
M  V30 31 1 31 32
M  V30 32 1 7 33
M  V30 33 1 33 2
M  V30 34 1 13 8
M  V30 35 1 31 17
M  V30 36 1 26 20
M  V30 37 1 1 34
M  V30 38 1 1 35
M  V30 39 1 1 36
M  V30 40 1 2 37 CFG=3
M  V30 41 1 3 38
M  V30 42 1 3 39
M  V30 43 1 4 40 CFG=3
M  V30 44 1 5 41
M  V30 45 1 5 42
M  V30 46 1 6 43
M  V30 47 1 6 44
M  V30 48 1 7 45 CFG=3
M  V30 49 1 9 46
M  V30 50 1 10 47
M  V30 51 1 12 48
M  V30 52 1 14 49
M  V30 53 1 23 50
M  V30 54 1 24 51
M  V30 55 1 25 52
M  V30 56 1 30 53
M  V30 57 1 32 54
M  V30 58 1 32 55
M  V30 59 1 33 56
M  V30 60 1 33 57
M  V30 END BOND
M  V30 END CTAB
M  END
>  <Dataset>  (430) 
ChEMBL_Kinases

>  <Ligand_Instance>  (430) 
nan

>  <PDB_ID>  (430) 
nan

>  <Standardized_SMILES>  (430) 
C[C@@H]1C[C@H](N)C[C@H](c2ccncc2NC(=O)c2nc(-c3c(F)cccc3F)c(F)cc2N)C1

>  <Name>  (430) 
nan

>  <Pocket>  (430) 
nan

>  <ATP_Site>  (430) 
nan

>  <Peripheral>  (430) 
nan

>  <Num_H_Atoms_ProtBoundConf>  (430) 
nan

>  <Num_Resolved_Atoms>  (430) 
nan

>  <Num_Not_Resolved_Atoms>  (430) 
nan

$$$$
CHEMBL3651948
     RDKit          3D

  0  0  0  0  0  0  0  0  0  0999 V3000
M  V30 BEGIN CTAB
M  V30 COUNTS 56 59 0 0 0
M  V30 BEGIN ATOM
M  V30 1 C 1.510042 -1.724056 4.045513 0
M  V30 2 C 1.586815 -2.786997 2.957628 0 CFG=1
M  V30 3 C 0.893599 -2.325273 1.694929 0
M  V30 4 C 1.702872 -1.571329 0.740005 0 CFG=1
M  V30 5 C 2.222478 -0.249575 1.073788 0
M  V30 6 C 3.490234 0.074773 1.513575 0
M  V30 7 C 3.894405 1.363706 1.791785 0
M  V30 8 N 3.036070 2.416089 1.642066 0
M  V30 9 C 1.791978 2.130261 1.214044 0
M  V30 10 C 1.389494 0.839788 0.936790 0
M  V30 11 N 0.036973 0.793512 0.496906 0
M  V30 12 C -1.159546 0.664177 1.260608 0
M  V30 13 O -0.978006 0.579782 2.513788 0
M  V30 14 C -2.458529 0.637323 0.603111 0
M  V30 15 C -3.554688 0.525964 1.444401 0
M  V30 16 C -4.854466 0.493729 0.962752 0
M  V30 17 C -5.110076 0.571370 -0.389335 0
M  V30 18 C -3.964422 0.682189 -1.186954 0
M  V30 19 C -4.046898 0.773924 -2.636913 0
M  V30 20 C -4.116847 1.996540 -3.291315 0
M  V30 21 F -4.099969 3.131763 -2.537563 0
M  V30 22 C -4.198135 2.078085 -4.682896 0
M  V30 23 C -4.209067 0.923934 -5.429169 0
M  V30 24 C -4.141322 -0.319198 -4.837702 0
M  V30 25 C -4.063991 -0.344282 -3.459924 0
M  V30 26 F -3.993840 -1.528683 -2.780008 0
M  V30 27 N -2.703975 0.713617 -0.713366 0
M  V30 28 C 2.803713 -2.505633 0.290671 0
M  V30 29 C 3.107848 -3.611814 1.241252 0 CFG=1
M  V30 30 N 4.416580 -4.199294 1.009467 0
M  V30 31 C 2.990684 -3.260478 2.703744 0 CFG=2
M  V30 32 O 3.151910 -4.489659 3.394744 0
M  V30 33 H 2.336729 -1.019569 4.002421 0
M  V30 34 H 0.495806 -1.295909 3.960622 0
M  V30 35 H 1.524549 -2.187055 5.073387 0
M  V30 36 H 1.039707 -3.666968 3.410437 0
M  V30 37 H 0.660224 -3.297924 1.149721 0
M  V30 38 H -0.126214 -1.955087 1.889387 0
M  V30 39 H 1.047602 -1.414054 -0.170712 0
M  V30 40 H 4.191183 -0.712476 1.635932 0
M  V30 41 H 4.906318 1.552028 2.134873 0
M  V30 42 H 1.179075 3.027635 1.125027 0
M  V30 43 H 0.024949 0.874233 -0.561787 0
M  V30 44 H -3.447463 0.457845 2.530068 0
M  V30 45 H -5.718036 0.404901 1.633261 0
M  V30 46 H -6.091186 0.554290 -0.847934 0
M  V30 47 H -4.252175 3.022955 -5.181126 0
M  V30 48 H -4.269368 0.886894 -6.526238 0
M  V30 49 H -4.142966 -1.276631 -5.341563 0
M  V30 50 H 2.437894 -2.987531 -0.660869 0
M  V30 51 H 3.706817 -1.951592 -0.046815 0
M  V30 52 H 2.383107 -4.464014 1.086398 0
M  V30 53 H 5.187237 -3.693402 1.489054 0
M  V30 54 H 4.480211 -5.187861 1.344061 0
M  V30 55 H 3.755698 -2.538665 3.057151 0
M  V30 56 H 2.941888 -4.412164 4.351664 0
M  V30 END ATOM
M  V30 BEGIN BOND
M  V30 1 1 1 2
M  V30 2 1 2 3
M  V30 3 1 3 4
M  V30 4 1 4 5
M  V30 5 2 5 6
M  V30 6 1 6 7
M  V30 7 2 7 8
M  V30 8 1 8 9
M  V30 9 2 9 10
M  V30 10 1 10 11
M  V30 11 1 11 12
M  V30 12 2 12 13
M  V30 13 1 12 14
M  V30 14 2 14 15
M  V30 15 1 15 16
M  V30 16 2 16 17
M  V30 17 1 17 18
M  V30 18 1 18 19
M  V30 19 2 19 20
M  V30 20 1 20 21
M  V30 21 1 20 22
M  V30 22 2 22 23
M  V30 23 1 23 24
M  V30 24 2 24 25
M  V30 25 1 25 26
M  V30 26 2 18 27
M  V30 27 1 4 28
M  V30 28 1 28 29
M  V30 29 1 29 30
M  V30 30 1 29 31
M  V30 31 1 31 32
M  V30 32 1 31 2
M  V30 33 1 10 5
M  V30 34 1 27 14
M  V30 35 1 25 19
M  V30 36 1 1 33
M  V30 37 1 1 34
M  V30 38 1 1 35
M  V30 39 1 2 36 CFG=1
M  V30 40 1 3 37
M  V30 41 1 3 38
M  V30 42 1 4 39 CFG=3
M  V30 43 1 6 40
M  V30 44 1 7 41
M  V30 45 1 9 42
M  V30 46 1 11 43
M  V30 47 1 15 44
M  V30 48 1 16 45
M  V30 49 1 17 46
M  V30 50 1 22 47
M  V30 51 1 23 48
M  V30 52 1 24 49
M  V30 53 1 28 50
M  V30 54 1 28 51
M  V30 55 1 29 52 CFG=3
M  V30 56 1 30 53
M  V30 57 1 30 54
M  V30 58 1 31 55 CFG=1
M  V30 59 1 32 56
M  V30 END BOND
M  V30 END CTAB
M  END
>  <Dataset>  (431) 
ChEMBL_Kinases

>  <Ligand_Instance>  (431) 
nan

>  <PDB_ID>  (431) 
nan

>  <Standardized_SMILES>  (431) 
C[C@H]1C[C@@H](c2ccncc2NC(=O)c2cccc(-c3c(F)cccc3F)n2)C[C@@H](N)[C@@H]1O

>  <Name>  (431) 
nan

>  <Pocket>  (431) 
nan

>  <ATP_Site>  (431) 
nan

>  <Peripheral>  (431) 
nan

>  <Num_H_Atoms_ProtBoundConf>  (431) 
nan

>  <Num_Resolved_Atoms>  (431) 
nan

>  <Num_Not_Resolved_Atoms>  (431) 
nan

$$$$
CHEMBL3651949
     RDKit          3D

  0  0  0  0  0  0  0  0  0  0999 V3000
M  V30 BEGIN CTAB
M  V30 COUNTS 59 62 0 0 0
M  V30 BEGIN ATOM
M  V30 1 N 5.996733 -1.552488 1.012557 0
M  V30 2 C 4.829007 -1.866805 1.822313 0 CFG=1
M  V30 3 C 4.869056 -1.214596 3.161719 0
M  V30 4 C 3.530984 -1.212312 3.852897 0
M  V30 5 C 2.450850 -0.584797 3.038708 0
M  V30 6 C 2.698293 -0.481652 1.575236 0 CFG=1
M  V30 7 C 2.962543 0.889519 1.078589 0
M  V30 8 C 4.160081 1.555631 0.946216 0
M  V30 9 C 4.300706 2.838626 0.471018 0
M  V30 10 N 3.213458 3.533741 0.095204 0
M  V30 11 C 1.986902 2.990742 0.177639 0
M  V30 12 C 1.894055 1.702715 0.659665 0
M  V30 13 N 0.578241 1.166113 0.729358 0
M  V30 14 C -0.393592 1.175736 1.735730 0
M  V30 15 O -0.096219 1.756204 2.798288 0
M  V30 16 C -1.682331 0.525751 1.514040 0
M  V30 17 C -2.589444 0.568234 2.551986 0
M  V30 18 C -3.799903 -0.044676 2.344428 0
M  V30 19 C -4.002584 -0.647012 1.121031 0
M  V30 20 F -5.213665 -1.235609 0.982904 0
M  V30 21 C -3.129148 -0.708133 0.072553 0
M  V30 22 C -3.333718 -1.338687 -1.220722 0 CFG=1
M  V30 23 C -2.971551 -2.754669 -1.356654 0
M  V30 24 C -4.095988 -3.610480 -1.911097 0
M  V30 25 C -4.494537 -3.072736 -3.267790 0 CFG=1
M  V30 26 O -5.743288 -3.631647 -3.630385 0
M  V30 27 C -4.729654 -1.579120 -3.240282 0
M  V30 28 C -4.748979 -1.150377 -1.769517 0
M  V30 29 N -1.946295 -0.080045 0.345000 0
M  V30 30 C 3.600451 -1.540867 1.075375 0
M  V30 31 H 5.706948 -1.792367 0.024625 0
M  V30 32 H 6.839278 -2.063997 1.305628 0
M  V30 33 H 4.881007 -3.002322 1.930443 0
M  V30 34 H 5.374945 -0.241491 3.215453 0
M  V30 35 H 5.515295 -1.889100 3.808241 0
M  V30 36 H 3.665865 -0.638193 4.792589 0
M  V30 37 H 3.261496 -2.263613 4.126669 0
M  V30 38 H 1.512206 -1.174037 3.283011 0
M  V30 39 H 2.201557 0.424097 3.497249 0
M  V30 40 H 1.674617 -0.739268 1.104254 0
M  V30 41 H 5.045527 1.018832 1.241741 0
M  V30 42 H 5.297991 3.255888 0.413569 0
M  V30 43 H 1.107689 3.541063 -0.121796 0
M  V30 44 H 0.393668 0.698099 -0.184119 0
M  V30 45 H -2.377088 1.055353 3.491871 0
M  V30 46 H -4.533484 -0.034999 3.124956 0
M  V30 47 H -2.711168 -0.725845 -1.949282 0
M  V30 48 H -2.512367 -3.216392 -0.456081 0
M  V30 49 H -2.168017 -2.861232 -2.127767 0
M  V30 50 H -3.657783 -4.623811 -2.056360 0
M  V30 51 H -5.001406 -3.627036 -1.288299 0
M  V30 52 H -3.737141 -3.362527 -4.028628 0
M  V30 53 H -5.997672 -3.229349 -4.517584 0
M  V30 54 H -3.877449 -1.032272 -3.696970 0
M  V30 55 H -5.676178 -1.270518 -3.720811 0
M  V30 56 H -5.004860 -0.068274 -1.771309 0
M  V30 57 H -5.516949 -1.674623 -1.208794 0
M  V30 58 H 2.978141 -2.487834 1.015996 0
M  V30 59 H 3.883733 -1.385474 -0.004954 0
M  V30 END ATOM
M  V30 BEGIN BOND
M  V30 1 1 1 2
M  V30 2 1 2 3
M  V30 3 1 3 4
M  V30 4 1 4 5
M  V30 5 1 5 6
M  V30 6 1 6 7
M  V30 7 2 7 8
M  V30 8 1 8 9
M  V30 9 2 9 10
M  V30 10 1 10 11
M  V30 11 2 11 12
M  V30 12 1 12 13
M  V30 13 1 13 14
M  V30 14 2 14 15
M  V30 15 1 14 16
M  V30 16 2 16 17
M  V30 17 1 17 18
M  V30 18 2 18 19
M  V30 19 1 19 20
M  V30 20 1 19 21
M  V30 21 1 21 22
M  V30 22 1 22 23
M  V30 23 1 23 24
M  V30 24 1 24 25
M  V30 25 1 25 26
M  V30 26 1 25 27
M  V30 27 1 27 28
M  V30 28 2 21 29
M  V30 29 1 6 30
M  V30 30 1 30 2
M  V30 31 1 12 7
M  V30 32 1 29 16
M  V30 33 1 28 22
M  V30 34 1 1 31
M  V30 35 1 1 32
M  V30 36 1 2 33 CFG=1
M  V30 37 1 3 34
M  V30 38 1 3 35
M  V30 39 1 4 36
M  V30 40 1 4 37
M  V30 41 1 5 38
M  V30 42 1 5 39
M  V30 43 1 6 40 CFG=3
M  V30 44 1 8 41
M  V30 45 1 9 42
M  V30 46 1 11 43
M  V30 47 1 13 44
M  V30 48 1 17 45
M  V30 49 1 18 46
M  V30 50 1 22 47 CFG=3
M  V30 51 1 23 48
M  V30 52 1 23 49
M  V30 53 1 24 50
M  V30 54 1 24 51
M  V30 55 1 25 52 CFG=3
M  V30 56 1 26 53
M  V30 57 1 27 54
M  V30 58 1 27 55
M  V30 59 1 28 56
M  V30 60 1 28 57
M  V30 61 1 30 58
M  V30 62 1 30 59
M  V30 END BOND
M  V30 END CTAB
M  END
>  <Dataset>  (432) 
ChEMBL_Kinases

>  <Ligand_Instance>  (432) 
nan

>  <PDB_ID>  (432) 
nan

>  <Standardized_SMILES>  (432) 
N[C@H]1CCC[C@@H](c2ccncc2NC(=O)c2ccc(F)c([C@H]3CC[C@@H](O)CC3)n2)C1

>  <Name>  (432) 
nan

>  <Pocket>  (432) 
nan

>  <ATP_Site>  (432) 
nan

>  <Peripheral>  (432) 
nan

>  <Num_H_Atoms_ProtBoundConf>  (432) 
nan

>  <Num_Resolved_Atoms>  (432) 
nan

>  <Num_Not_Resolved_Atoms>  (432) 
nan

$$$$
CHEMBL3651950
     RDKit          3D

  0  0  0  0  0  0  0  0  0  0999 V3000
M  V30 BEGIN CTAB
M  V30 COUNTS 62 65 0 0 0
M  V30 BEGIN ATOM
M  V30 1 C 2.123258 -1.971358 1.891050 0
M  V30 2 C 2.822306 -0.640395 1.821439 0 CFG=2
M  V30 3 C 3.026639 -0.020646 3.185211 0
M  V30 4 C 1.842979 0.790363 3.658299 0 CFG=2
M  V30 5 N 0.661202 -0.010084 3.557936 0
M  V30 6 C 1.627266 2.047752 2.809139 0
M  V30 7 C 2.148004 1.741203 1.457953 0 CFG=2
M  V30 8 C 1.870718 2.661995 0.367234 0
M  V30 9 C 2.747278 3.714559 0.050760 0
M  V30 10 C 2.568408 4.619993 -0.944952 0
M  V30 11 N 1.483527 4.553192 -1.723056 0
M  V30 12 C 0.604582 3.593134 -1.496021 0
M  V30 13 C 0.782113 2.669591 -0.484289 0
M  V30 14 N -0.207608 1.665659 -0.296058 0
M  V30 15 C -1.371692 1.673297 0.536236 0
M  V30 16 O -1.641495 2.680101 1.245918 0
M  V30 17 C -2.198149 0.469508 0.505304 0
M  V30 18 C -3.329282 0.463963 1.306903 0
M  V30 19 C -4.137117 -0.654645 1.306237 0
M  V30 20 C -3.837961 -1.751794 0.529339 0
M  V30 21 F -4.609571 -2.865289 0.505513 0
M  V30 22 C -2.704830 -1.713746 -0.256964 0
M  V30 23 C -2.269836 -2.831634 -1.140953 0 CFG=1
M  V30 24 C -1.350464 -3.777218 -0.375353 0
M  V30 25 C -0.798129 -4.765676 -1.375684 0
M  V30 26 C -1.887286 -5.512909 -2.099819 0 CFG=1
M  V30 27 O -2.603426 -6.246446 -1.172846 0
M  V30 28 C -2.781549 -4.494645 -2.811671 0
M  V30 29 C -3.389863 -3.658933 -1.677235 0
M  V30 30 N -1.913359 -0.607099 -0.250810 0
M  V30 31 C 1.942162 0.305806 1.031905 0
M  V30 32 H 1.297686 -2.068761 1.157290 0
M  V30 33 H 1.659471 -2.088182 2.900007 0
M  V30 34 H 2.798643 -2.832643 1.710445 0
M  V30 35 H 3.795131 -0.783402 1.308033 0
M  V30 36 H 3.974643 0.524452 3.158413 0
M  V30 37 H 3.119139 -0.850978 3.911471 0
M  V30 38 H 2.084098 1.081630 4.705165 0
M  V30 39 H 0.587898 -0.591618 4.445036 0
M  V30 40 H -0.164327 0.626903 3.507462 0
M  V30 41 H 2.227546 2.843998 3.295606 0
M  V30 42 H 0.576508 2.302503 2.908646 0
M  V30 43 H 3.275630 1.779873 1.609464 0
M  V30 44 H 3.663761 3.831702 0.650567 0
M  V30 45 H 3.292700 5.403653 -1.125046 0
M  V30 46 H -0.283208 3.525218 -2.120286 0
M  V30 47 H 0.117942 0.899852 -0.928241 0
M  V30 48 H -3.634606 1.281487 1.944462 0
M  V30 49 H -5.031206 -0.730921 1.902891 0
M  V30 50 H -1.665019 -2.439578 -1.979818 0
M  V30 51 H -0.488014 -3.216730 0.038651 0
M  V30 52 H -1.890122 -4.324014 0.425460 0
M  V30 53 H -0.105035 -4.237127 -2.064395 0
M  V30 54 H -0.188816 -5.497611 -0.789863 0
M  V30 55 H -1.400761 -6.163753 -2.843451 0
M  V30 56 H -2.159164 -7.116566 -1.008424 0
M  V30 57 H -2.086783 -3.817213 -3.347702 0
M  V30 58 H -3.530511 -4.969492 -3.444579 0
M  V30 59 H -3.739393 -4.424529 -0.936395 0
M  V30 60 H -4.254366 -3.097149 -2.054514 0
M  V30 61 H 0.895454 -0.031471 1.120334 0
M  V30 62 H 2.235075 0.230626 -0.033645 0
M  V30 END ATOM
M  V30 BEGIN BOND
M  V30 1 1 1 2
M  V30 2 1 2 3
M  V30 3 1 3 4
M  V30 4 1 4 5
M  V30 5 1 4 6
M  V30 6 1 6 7
M  V30 7 1 7 8
M  V30 8 2 8 9
M  V30 9 1 9 10
M  V30 10 2 10 11
M  V30 11 1 11 12
M  V30 12 2 12 13
M  V30 13 1 13 14
M  V30 14 1 14 15
M  V30 15 2 15 16
M  V30 16 1 15 17
M  V30 17 2 17 18
M  V30 18 1 18 19
M  V30 19 2 19 20
M  V30 20 1 20 21
M  V30 21 1 20 22
M  V30 22 1 22 23
M  V30 23 1 23 24
M  V30 24 1 24 25
M  V30 25 1 25 26
M  V30 26 1 26 27
M  V30 27 1 26 28
M  V30 28 1 28 29
M  V30 29 2 22 30
M  V30 30 1 7 31
M  V30 31 1 31 2
M  V30 32 1 13 8
M  V30 33 1 30 17
M  V30 34 1 29 23
M  V30 35 1 1 32
M  V30 36 1 1 33
M  V30 37 1 1 34
M  V30 38 1 2 35 CFG=3
M  V30 39 1 3 36
M  V30 40 1 3 37
M  V30 41 1 4 38 CFG=1
M  V30 42 1 5 39
M  V30 43 1 5 40
M  V30 44 1 6 41
M  V30 45 1 6 42
M  V30 46 1 7 43 CFG=1
M  V30 47 1 9 44
M  V30 48 1 10 45
M  V30 49 1 12 46
M  V30 50 1 14 47
M  V30 51 1 18 48
M  V30 52 1 19 49
M  V30 53 1 23 50 CFG=3
M  V30 54 1 24 51
M  V30 55 1 24 52
M  V30 56 1 25 53
M  V30 57 1 25 54
M  V30 58 1 26 55 CFG=3
M  V30 59 1 27 56
M  V30 60 1 28 57
M  V30 61 1 28 58
M  V30 62 1 29 59
M  V30 63 1 29 60
M  V30 64 1 31 61
M  V30 65 1 31 62
M  V30 END BOND
M  V30 END CTAB
M  END
>  <Dataset>  (433) 
ChEMBL_Kinases

>  <Ligand_Instance>  (433) 
nan

>  <PDB_ID>  (433) 
nan

>  <Standardized_SMILES>  (433) 
C[C@@H]1C[C@H](N)C[C@H](c2ccncc2NC(=O)c2ccc(F)c([C@H]3CC[C@@H](O)CC3)n2)C1

>  <Name>  (433) 
nan

>  <Pocket>  (433) 
nan

>  <ATP_Site>  (433) 
nan

>  <Peripheral>  (433) 
nan

>  <Num_H_Atoms_ProtBoundConf>  (433) 
nan

>  <Num_Resolved_Atoms>  (433) 
nan

>  <Num_Not_Resolved_Atoms>  (433) 
nan

$$$$
CHEMBL3651951
     RDKit          3D

  0  0  0  0  0  0  0  0  0  0999 V3000
M  V30 BEGIN CTAB
M  V30 COUNTS 62 65 0 0 0
M  V30 BEGIN ATOM
M  V30 1 C 2.096014 -1.863982 2.402252 0
M  V30 2 C 2.786828 -0.622948 1.869890 0 CFG=2
M  V30 3 C 3.288015 0.170198 3.041280 0
M  V30 4 C 2.283538 1.086730 3.658851 0 CFG=2
M  V30 5 N 1.317130 0.332953 4.420928 0
M  V30 6 C 1.608827 2.012959 2.675021 0
M  V30 7 C 2.134338 1.634045 1.305961 0 CFG=2
M  V30 8 C 1.657833 2.617270 0.338233 0
M  V30 9 C 2.437397 3.754729 0.076589 0
M  V30 10 C 2.095292 4.744846 -0.820497 0
M  V30 11 N 0.934509 4.649568 -1.516820 0
M  V30 12 C 0.145965 3.581297 -1.307658 0
M  V30 13 C 0.498392 2.597713 -0.408144 0
M  V30 14 N -0.390341 1.509340 -0.257537 0
M  V30 15 C -1.517190 1.450850 0.646529 0
M  V30 16 O -1.874445 2.380710 1.441451 0
M  V30 17 C -2.308045 0.221567 0.644017 0
M  V30 18 C -3.402044 0.072503 1.468786 0
M  V30 19 C -4.171745 -1.071547 1.494329 0
M  V30 20 C -3.798952 -2.088452 0.643310 0
M  V30 21 F -4.477678 -3.252967 0.582875 0
M  V30 22 C -2.713761 -1.982505 -0.197213 0
M  V30 23 C -2.204475 -2.993291 -1.156645 0 CFG=1
M  V30 24 C -1.189628 -3.939260 -0.602340 0
M  V30 25 C -1.340697 -5.255499 -1.339604 0
M  V30 26 C -1.706385 -5.092939 -2.788856 0 CFG=2
M  V30 27 O -0.675388 -4.593560 -3.556565 0
M  V30 28 C -2.965824 -4.306526 -3.024357 0
M  V30 29 C -3.390067 -3.800088 -1.646201 0
M  V30 30 N -2.029827 -0.806406 -0.134758 0
M  V30 31 C 1.801290 0.207107 1.050161 0
M  V30 32 H 2.388214 -2.076002 3.454775 0
M  V30 33 H 0.992489 -1.781300 2.385116 0
M  V30 34 H 2.348378 -2.776974 1.823686 0
M  V30 35 H 3.677958 -0.892862 1.263121 0
M  V30 36 H 3.576445 -0.562373 3.844112 0
M  V30 37 H 4.238076 0.690635 2.790817 0
M  V30 38 H 2.848623 1.739573 4.365420 0
M  V30 39 H 0.473929 0.881397 4.666018 0
M  V30 40 H 1.724777 -0.021637 5.315768 0
M  V30 41 H 0.517340 1.886394 2.657487 0
M  V30 42 H 1.883084 3.085153 2.835629 0
M  V30 43 H 3.270191 1.700537 1.315019 0
M  V30 44 H 3.381692 3.844925 0.634480 0
M  V30 45 H 2.767054 5.582645 -0.949127 0
M  V30 46 H -0.779889 3.508461 -1.865328 0
M  V30 47 H -0.203968 0.679183 -0.864240 0
M  V30 48 H -3.687294 0.885676 2.138779 0
M  V30 49 H -5.029543 -1.206198 2.131428 0
M  V30 50 H -1.739135 -2.467044 -2.016671 0
M  V30 51 H -1.250481 -4.116133 0.474276 0
M  V30 52 H -0.165823 -3.569513 -0.818231 0
M  V30 53 H -2.016985 -5.952551 -0.841844 0
M  V30 54 H -0.334414 -5.754440 -1.342040 0
M  V30 55 H -1.912718 -6.118961 -3.168038 0
M  V30 56 H 0.153518 -5.073881 -3.275620 0
M  V30 57 H -2.852567 -3.424120 -3.657492 0
M  V30 58 H -3.818105 -4.894214 -3.393301 0
M  V30 59 H -3.591475 -4.663669 -0.977765 0
M  V30 60 H -4.295352 -3.202063 -1.738571 0
M  V30 61 H 0.818214 -0.017417 1.508649 0
M  V30 62 H 1.887708 -0.089881 -0.015871 0
M  V30 END ATOM
M  V30 BEGIN BOND
M  V30 1 1 1 2
M  V30 2 1 2 3
M  V30 3 1 3 4
M  V30 4 1 4 5
M  V30 5 1 4 6
M  V30 6 1 6 7
M  V30 7 1 7 8
M  V30 8 2 8 9
M  V30 9 1 9 10
M  V30 10 2 10 11
M  V30 11 1 11 12
M  V30 12 2 12 13
M  V30 13 1 13 14
M  V30 14 1 14 15
M  V30 15 2 15 16
M  V30 16 1 15 17
M  V30 17 2 17 18
M  V30 18 1 18 19
M  V30 19 2 19 20
M  V30 20 1 20 21
M  V30 21 1 20 22
M  V30 22 1 22 23
M  V30 23 1 23 24
M  V30 24 1 24 25
M  V30 25 1 25 26
M  V30 26 1 26 27
M  V30 27 1 26 28
M  V30 28 1 28 29
M  V30 29 2 22 30
M  V30 30 1 7 31
M  V30 31 1 31 2
M  V30 32 1 13 8
M  V30 33 1 30 17
M  V30 34 1 29 23
M  V30 35 1 1 32
M  V30 36 1 1 33
M  V30 37 1 1 34
M  V30 38 1 2 35 CFG=3
M  V30 39 1 3 36
M  V30 40 1 3 37
M  V30 41 1 4 38 CFG=1
M  V30 42 1 5 39
M  V30 43 1 5 40
M  V30 44 1 6 41
M  V30 45 1 6 42
M  V30 46 1 7 43 CFG=1
M  V30 47 1 9 44
M  V30 48 1 10 45
M  V30 49 1 12 46
M  V30 50 1 14 47
M  V30 51 1 18 48
M  V30 52 1 19 49
M  V30 53 1 23 50 CFG=3
M  V30 54 1 24 51
M  V30 55 1 24 52
M  V30 56 1 25 53
M  V30 57 1 25 54
M  V30 58 1 26 55 CFG=3
M  V30 59 1 27 56
M  V30 60 1 28 57
M  V30 61 1 28 58
M  V30 62 1 29 59
M  V30 63 1 29 60
M  V30 64 1 31 61
M  V30 65 1 31 62
M  V30 END BOND
M  V30 END CTAB
M  END
>  <Dataset>  (434) 
ChEMBL_Kinases

>  <Ligand_Instance>  (434) 
nan

>  <PDB_ID>  (434) 
nan

>  <Standardized_SMILES>  (434) 
C[C@@H]1C[C@H](N)C[C@H](c2ccncc2NC(=O)c2ccc(F)c([C@H]3CC[C@H](O)CC3)n2)C1

>  <Name>  (434) 
nan

>  <Pocket>  (434) 
nan

>  <ATP_Site>  (434) 
nan

>  <Peripheral>  (434) 
nan

>  <Num_H_Atoms_ProtBoundConf>  (434) 
nan

>  <Num_Resolved_Atoms>  (434) 
nan

>  <Num_Not_Resolved_Atoms>  (434) 
nan

$$$$
CHEMBL3651952
     RDKit          3D

  0  0  0  0  0  0  0  0  0  0999 V3000
M  V30 BEGIN CTAB
M  V30 COUNTS 59 62 0 0 0
M  V30 BEGIN ATOM
M  V30 1 N 5.569950 -0.173063 -0.505735 0
M  V30 2 C 4.878606 -0.611203 0.731008 0 CFG=1
M  V30 3 C 5.071069 0.347956 1.831447 0
M  V30 4 C 4.031885 0.491251 2.855575 0
M  V30 5 C 2.669157 0.004182 2.494154 0
M  V30 6 C 2.416788 -0.150142 1.032737 0 CFG=1
M  V30 7 C 1.995738 1.107791 0.374716 0
M  V30 8 C 2.747229 2.081761 -0.236469 0
M  V30 9 C 2.243147 3.219698 -0.823255 0
M  V30 10 N 0.915482 3.436224 -0.821680 0
M  V30 11 C 0.103524 2.531498 -0.243596 0
M  V30 12 C 0.615291 1.391035 0.343995 0
M  V30 13 N -0.372044 0.550311 0.897473 0
M  V30 14 C -1.040659 0.389550 2.113817 0
M  V30 15 O -0.825176 1.114269 3.104583 0
M  V30 16 C -2.017469 -0.695677 2.144027 0
M  V30 17 C -2.710856 -0.903729 3.317709 0
M  V30 18 C -3.641225 -1.909881 3.404026 0
M  V30 19 C -3.931586 -2.753087 2.347285 0
M  V30 20 F -4.856051 -3.743851 2.451071 0
M  V30 21 C -3.214990 -2.506134 1.200060 0
M  V30 22 C -3.475196 -3.377800 0.018692 0 CFG=1
M  V30 23 C -4.568841 -2.827944 -0.853493 0
M  V30 24 C -4.173126 -1.460221 -1.320321 0
M  V30 25 C -2.949971 -1.525798 -2.173111 0 CFG=2
M  V30 26 O -3.329031 -1.304596 -3.514525 0
M  V30 27 C -2.285474 -2.881739 -2.152082 0
M  V30 28 C -2.218841 -3.506663 -0.789567 0
M  V30 29 N -2.305898 -1.517001 1.127729 0
M  V30 30 C 3.490565 -0.923562 0.385674 0
M  V30 31 H 5.170034 -0.783649 -1.262713 0
M  V30 32 H 6.595072 -0.282091 -0.388431 0
M  V30 33 H 5.427136 -1.593341 0.954429 0
M  V30 34 H 6.026501 0.035164 2.365823 0
M  V30 35 H 5.383212 1.344326 1.393472 0
M  V30 36 H 3.919674 1.594368 3.085718 0
M  V30 37 H 4.360660 0.066024 3.826113 0
M  V30 38 H 1.871490 0.676457 2.892393 0
M  V30 39 H 2.511938 -0.964408 3.043189 0
M  V30 40 H 1.507163 -0.862799 1.000052 0
M  V30 41 H 3.793599 1.923523 -0.247027 0
M  V30 42 H 2.937803 3.914515 -1.273508 0
M  V30 43 H -0.948597 2.773081 -0.280807 0
M  V30 44 H -0.556165 -0.069055 0.050419 0
M  V30 45 H -2.519197 -0.269032 4.175031 0
M  V30 46 H -4.168570 -2.037228 4.360370 0
M  V30 47 H -3.762370 -4.407055 0.383126 0
M  V30 48 H -5.546954 -2.791894 -0.324676 0
M  V30 49 H -4.675569 -3.497417 -1.721052 0
M  V30 50 H -5.077711 -1.046894 -1.854245 0
M  V30 51 H -4.006314 -0.830686 -0.401851 0
M  V30 52 H -2.225200 -0.731179 -1.906082 0
M  V30 53 H -3.608110 -2.170374 -3.919901 0
M  V30 54 H -2.769333 -3.524243 -2.912294 0
M  V30 55 H -1.235055 -2.698156 -2.504606 0
M  V30 56 H -1.314342 -3.106102 -0.253807 0
M  V30 57 H -1.965028 -4.590204 -0.962096 0
M  V30 58 H 3.312541 -2.011636 0.681452 0
M  V30 59 H 3.398562 -0.968390 -0.730885 0
M  V30 END ATOM
M  V30 BEGIN BOND
M  V30 1 1 1 2
M  V30 2 1 2 3
M  V30 3 1 3 4
M  V30 4 1 4 5
M  V30 5 1 5 6
M  V30 6 1 6 7
M  V30 7 2 7 8
M  V30 8 1 8 9
M  V30 9 2 9 10
M  V30 10 1 10 11
M  V30 11 2 11 12
M  V30 12 1 12 13
M  V30 13 1 13 14
M  V30 14 2 14 15
M  V30 15 1 14 16
M  V30 16 2 16 17
M  V30 17 1 17 18
M  V30 18 2 18 19
M  V30 19 1 19 20
M  V30 20 1 19 21
M  V30 21 1 21 22
M  V30 22 1 22 23
M  V30 23 1 23 24
M  V30 24 1 24 25
M  V30 25 1 25 26
M  V30 26 1 25 27
M  V30 27 1 27 28
M  V30 28 2 21 29
M  V30 29 1 6 30
M  V30 30 1 30 2
M  V30 31 1 12 7
M  V30 32 1 29 16
M  V30 33 1 28 22
M  V30 34 1 1 31
M  V30 35 1 1 32
M  V30 36 1 2 33 CFG=1
M  V30 37 1 3 34
M  V30 38 1 3 35
M  V30 39 1 4 36
M  V30 40 1 4 37
M  V30 41 1 5 38
M  V30 42 1 5 39
M  V30 43 1 6 40 CFG=1
M  V30 44 1 8 41
M  V30 45 1 9 42
M  V30 46 1 11 43
M  V30 47 1 13 44
M  V30 48 1 17 45
M  V30 49 1 18 46
M  V30 50 1 22 47 CFG=1
M  V30 51 1 23 48
M  V30 52 1 23 49
M  V30 53 1 24 50
M  V30 54 1 24 51
M  V30 55 1 25 52 CFG=1
M  V30 56 1 26 53
M  V30 57 1 27 54
M  V30 58 1 27 55
M  V30 59 1 28 56
M  V30 60 1 28 57
M  V30 61 1 30 58
M  V30 62 1 30 59
M  V30 END BOND
M  V30 END CTAB
M  END
>  <Dataset>  (435) 
ChEMBL_Kinases

>  <Ligand_Instance>  (435) 
nan

>  <PDB_ID>  (435) 
nan

>  <Standardized_SMILES>  (435) 
N[C@H]1CCC[C@@H](c2ccncc2NC(=O)c2ccc(F)c([C@H]3CC[C@H](O)CC3)n2)C1

>  <Name>  (435) 
nan

>  <Pocket>  (435) 
nan

>  <ATP_Site>  (435) 
nan

>  <Peripheral>  (435) 
nan

>  <Num_H_Atoms_ProtBoundConf>  (435) 
nan

>  <Num_Resolved_Atoms>  (435) 
nan

>  <Num_Not_Resolved_Atoms>  (435) 
nan

$$$$
CHEMBL3651953
     RDKit          3D

  0  0  0  0  0  0  0  0  0  0999 V3000
M  V30 BEGIN CTAB
M  V30 COUNTS 55 58 0 0 0
M  V30 BEGIN ATOM
M  V30 1 C 1.290941 -2.574743 -0.999781 0
M  V30 2 C 2.192817 -1.710957 -0.110125 0 CFG=2
M  V30 3 C 1.532953 -1.646896 1.217260 0
M  V30 4 C 2.216418 -0.667735 2.088034 0 CFG=2
M  V30 5 N 1.432519 -0.563064 3.323141 0
M  V30 6 C 2.354193 0.706338 1.525470 0
M  V30 7 C 2.635280 0.769310 0.062392 0 CFG=2
M  V30 8 C 2.142310 2.012203 -0.581459 0
M  V30 9 C 3.062512 2.986944 -1.002896 0
M  V30 10 C 2.791511 4.190736 -1.623347 0
M  V30 11 N 1.464918 4.422620 -1.833833 0
M  V30 12 C 0.557836 3.496638 -1.435153 0
M  V30 13 C 0.831810 2.297782 -0.816524 0
M  V30 14 N -0.192434 1.414700 -0.415265 0
M  V30 15 C -1.601196 1.541597 -0.475231 0
M  V30 16 O -2.094950 2.616013 -0.957271 0
M  V30 17 C -2.579174 0.553680 -0.036251 0
M  V30 18 C -3.928184 0.808426 -0.133626 0
M  V30 19 C -4.831581 -0.138196 0.278877 0
M  V30 20 C -4.325274 -1.308776 0.774231 0
M  V30 21 F -5.231322 -2.233097 1.176909 0
M  V30 22 C -2.959675 -1.595049 0.884882 0
M  V30 23 C -2.612033 -2.899649 1.436228 0
M  V30 24 C -3.228279 -3.919774 0.696723 0
M  V30 25 C -3.047107 -5.250947 1.017827 0
M  V30 26 C -2.245786 -5.572590 2.083760 0
M  V30 27 C -1.629220 -4.574968 2.824785 0
M  V30 28 C -1.814178 -3.257817 2.500296 0
M  V30 29 F -1.288147 -2.191854 3.128194 0
M  V30 30 N -2.123569 -0.604283 0.454728 0
M  V30 31 C 2.369570 -0.397698 -0.781508 0
M  V30 32 H 1.530942 -2.439384 -2.066425 0
M  V30 33 H 1.386869 -3.641153 -0.723227 0
M  V30 34 H 0.228297 -2.275636 -0.863688 0
M  V30 35 H 3.140354 -2.285461 -0.023108 0
M  V30 36 H 0.434997 -1.548467 1.176308 0
M  V30 37 H 1.689094 -2.659482 1.702107 0
M  V30 38 H 3.208717 -1.075092 2.390240 0
M  V30 39 H 1.719712 -1.281326 4.036252 0
M  V30 40 H 1.696160 0.369136 3.742772 0
M  V30 41 H 3.118622 1.230410 2.137592 0
M  V30 42 H 1.427671 1.276906 1.726327 0
M  V30 43 H 3.782083 0.886696 0.039234 0
M  V30 44 H 4.135205 2.837508 -0.851148 0
M  V30 45 H 3.560662 4.886535 -1.915292 0
M  V30 46 H -0.422831 3.863734 -1.692504 0
M  V30 47 H 0.003577 0.487820 0.013171 0
M  V30 48 H -4.299916 1.759076 -0.535115 0
M  V30 49 H -5.899609 0.043004 0.212135 0
M  V30 50 H -3.888049 -3.787795 -0.173199 0
M  V30 51 H -3.493143 -6.079255 0.488784 0
M  V30 52 H -2.085150 -6.601611 2.357903 0
M  V30 53 H -0.990934 -4.790561 3.668049 0
M  V30 54 H 3.261312 -0.574240 -1.490640 0
M  V30 55 H 1.556961 -0.251193 -1.520750 0
M  V30 END ATOM
M  V30 BEGIN BOND
M  V30 1 1 1 2
M  V30 2 1 2 3
M  V30 3 1 3 4
M  V30 4 1 4 5
M  V30 5 1 4 6
M  V30 6 1 6 7
M  V30 7 1 7 8
M  V30 8 2 8 9
M  V30 9 1 9 10
M  V30 10 2 10 11
M  V30 11 1 11 12
M  V30 12 2 12 13
M  V30 13 1 13 14
M  V30 14 1 14 15
M  V30 15 2 15 16
M  V30 16 1 15 17
M  V30 17 2 17 18
M  V30 18 1 18 19
M  V30 19 2 19 20
M  V30 20 1 20 21
M  V30 21 1 20 22
M  V30 22 1 22 23
M  V30 23 2 23 24
M  V30 24 1 24 25
M  V30 25 2 25 26
M  V30 26 1 26 27
M  V30 27 2 27 28
M  V30 28 1 28 29
M  V30 29 2 22 30
M  V30 30 1 7 31
M  V30 31 1 31 2
M  V30 32 1 13 8
M  V30 33 1 30 17
M  V30 34 1 28 23
M  V30 35 1 1 32
M  V30 36 1 1 33
M  V30 37 1 1 34
M  V30 38 1 2 35 CFG=1
M  V30 39 1 3 36
M  V30 40 1 3 37
M  V30 41 1 4 38 CFG=1
M  V30 42 1 5 39
M  V30 43 1 5 40
M  V30 44 1 6 41
M  V30 45 1 6 42
M  V30 46 1 7 43 CFG=1
M  V30 47 1 9 44
M  V30 48 1 10 45
M  V30 49 1 12 46
M  V30 50 1 14 47
M  V30 51 1 18 48
M  V30 52 1 19 49
M  V30 53 1 24 50
M  V30 54 1 25 51
M  V30 55 1 26 52
M  V30 56 1 27 53
M  V30 57 1 31 54
M  V30 58 1 31 55
M  V30 END BOND
M  V30 END CTAB
M  END
>  <Dataset>  (436) 
ChEMBL_Kinases

>  <Ligand_Instance>  (436) 
nan

>  <PDB_ID>  (436) 
nan

>  <Standardized_SMILES>  (436) 
C[C@@H]1C[C@H](N)C[C@H](c2ccncc2NC(=O)c2ccc(F)c(-c3ccccc3F)n2)C1

>  <Name>  (436) 
nan

>  <Pocket>  (436) 
nan

>  <ATP_Site>  (436) 
nan

>  <Peripheral>  (436) 
nan

>  <Num_H_Atoms_ProtBoundConf>  (436) 
nan

>  <Num_Resolved_Atoms>  (436) 
nan

>  <Num_Not_Resolved_Atoms>  (436) 
nan

$$$$
CHEMBL3651954
     RDKit          3D

  0  0  0  0  0  0  0  0  0  0999 V3000
M  V30 BEGIN CTAB
M  V30 COUNTS 58 61 0 0 0
M  V30 BEGIN ATOM
M  V30 1 C 3.775826 -1.874143 3.770890 0
M  V30 2 C 4.386650 -0.957224 2.776738 0
M  V30 3 C 5.745023 -0.921965 2.661700 0
M  V30 4 C 6.292492 -0.063369 1.731921 0
M  V30 5 C 5.456395 0.712720 0.968085 0
M  V30 6 F 6.051591 1.522467 0.086642 0
M  V30 7 C 4.094498 0.708686 1.050691 0
M  V30 8 C 3.151675 1.496808 0.279971 0
M  V30 9 C 3.412845 2.418766 -0.700442 0
M  V30 10 C 2.467169 3.135108 -1.396158 0
M  V30 11 C 1.133587 2.933403 -1.108309 0
M  V30 12 C 0.872393 2.007133 -0.123364 0
M  V30 13 C -0.535337 1.780308 0.195305 0
M  V30 14 O -1.476844 2.382512 -0.381218 0
M  V30 15 N -0.841742 0.831018 1.207371 0
M  V30 16 C -1.977109 0.294872 1.833489 0
M  V30 17 C -2.398299 0.992611 2.942181 0
M  V30 18 N -3.489889 0.567623 3.638969 0
M  V30 19 C -4.157481 -0.539094 3.239829 0
M  V30 20 C -3.720736 -1.226298 2.125570 0
M  V30 21 C -2.625797 -0.848724 1.379199 0
M  V30 22 C -2.132754 -1.564369 0.178322 0 CFG=2
M  V30 23 C -2.863898 -1.042981 -1.007709 0
M  V30 24 C -2.403969 -1.810504 -2.231833 0 CFG=2
M  V30 25 C -3.046004 -1.209448 -3.461757 0
M  V30 26 C -2.957509 -3.218276 -2.022285 0
M  V30 27 C -2.223310 -3.871389 -0.875701 0 CFG=2
M  V30 28 N -2.791357 -5.180372 -0.609518 0
M  V30 29 C -2.067503 -3.035928 0.333566 0
M  V30 30 N 1.853648 1.344995 0.513572 0
M  V30 31 C 3.580716 -0.161223 1.990361 0
M  V30 32 H 3.393317 -2.820421 3.329698 0
M  V30 33 H 4.505288 -2.084736 4.555902 0
M  V30 34 H 2.893486 -1.411752 4.264617 0
M  V30 35 H 6.342841 -1.562367 3.297309 0
M  V30 36 H 7.359064 -0.024867 1.630273 0
M  V30 37 H 4.440572 2.609841 -0.959555 0
M  V30 38 H 2.755789 3.838694 -2.149395 0
M  V30 39 H 0.349056 3.459545 -1.614209 0
M  V30 40 H -0.077108 0.306159 1.714174 0
M  V30 41 H -1.926791 1.883407 3.330621 0
M  V30 42 H -5.020533 -0.856040 3.809350 0
M  V30 43 H -4.267301 -2.088884 1.839432 0
M  V30 44 H -1.059526 -1.235611 0.014839 0
M  V30 45 H -3.965142 -1.152568 -0.947374 0
M  V30 46 H -2.673308 0.036260 -1.140663 0
M  V30 47 H -1.310662 -1.874348 -2.291944 0
M  V30 48 H -4.107980 -1.588798 -3.446397 0
M  V30 49 H -2.498390 -1.549640 -4.344077 0
M  V30 50 H -3.069361 -0.115187 -3.370306 0
M  V30 51 H -4.023226 -3.095239 -1.732050 0
M  V30 52 H -2.883165 -3.803855 -2.951704 0
M  V30 53 H -1.189251 -4.069377 -1.282038 0
M  V30 54 H -2.047829 -5.866918 -0.292244 0
M  V30 55 H -3.224876 -5.607348 -1.450215 0
M  V30 56 H -2.880744 -3.347295 1.051794 0
M  V30 57 H -1.130290 -3.359045 0.877851 0
M  V30 58 H 2.495703 -0.261187 2.157500 0
M  V30 END ATOM
M  V30 BEGIN BOND
M  V30 1 1 1 2
M  V30 2 2 2 3
M  V30 3 1 3 4
M  V30 4 2 4 5
M  V30 5 1 5 6
M  V30 6 1 5 7
M  V30 7 1 7 8
M  V30 8 2 8 9
M  V30 9 1 9 10
M  V30 10 2 10 11
M  V30 11 1 11 12
M  V30 12 1 12 13
M  V30 13 2 13 14
M  V30 14 1 13 15
M  V30 15 1 15 16
M  V30 16 2 16 17
M  V30 17 1 17 18
M  V30 18 2 18 19
M  V30 19 1 19 20
M  V30 20 2 20 21
M  V30 21 1 21 22
M  V30 22 1 22 23
M  V30 23 1 23 24
M  V30 24 1 24 25
M  V30 25 1 24 26
M  V30 26 1 26 27
M  V30 27 1 27 28
M  V30 28 1 27 29
M  V30 29 2 12 30
M  V30 30 2 7 31
M  V30 31 1 31 2
M  V30 32 1 30 8
M  V30 33 1 21 16
M  V30 34 1 29 22
M  V30 35 1 1 32
M  V30 36 1 1 33
M  V30 37 1 1 34
M  V30 38 1 3 35
M  V30 39 1 4 36
M  V30 40 1 9 37
M  V30 41 1 10 38
M  V30 42 1 11 39
M  V30 43 1 15 40
M  V30 44 1 17 41
M  V30 45 1 19 42
M  V30 46 1 20 43
M  V30 47 1 22 44 CFG=3
M  V30 48 1 23 45
M  V30 49 1 23 46
M  V30 50 1 24 47 CFG=3
M  V30 51 1 25 48
M  V30 52 1 25 49
M  V30 53 1 25 50
M  V30 54 1 26 51
M  V30 55 1 26 52
M  V30 56 1 27 53 CFG=3
M  V30 57 1 28 54
M  V30 58 1 28 55
M  V30 59 1 29 56
M  V30 60 1 29 57
M  V30 61 1 31 58
M  V30 END BOND
M  V30 END CTAB
M  END
>  <Dataset>  (437) 
ChEMBL_Kinases

>  <Ligand_Instance>  (437) 
nan

>  <PDB_ID>  (437) 
nan

>  <Standardized_SMILES>  (437) 
Cc1ccc(F)c(-c2cccc(C(=O)Nc3cnccc3[C@@H]3C[C@H](C)C[C@H](N)C3)n2)c1

>  <Name>  (437) 
nan

>  <Pocket>  (437) 
nan

>  <ATP_Site>  (437) 
nan

>  <Peripheral>  (437) 
nan

>  <Num_H_Atoms_ProtBoundConf>  (437) 
nan

>  <Num_Resolved_Atoms>  (437) 
nan

>  <Num_Not_Resolved_Atoms>  (437) 
nan

$$$$
CHEMBL3651955
     RDKit          3D

  0  0  0  0  0  0  0  0  0  0999 V3000
M  V30 BEGIN CTAB
M  V30 COUNTS 58 61 0 0 0
M  V30 BEGIN ATOM
M  V30 1 C 6.861444 0.249780 3.244976 0
M  V30 2 C 5.808121 -0.298529 2.347257 0
M  V30 3 C 5.820711 -1.628078 1.937644 0
M  V30 4 C 4.780444 -2.021595 1.110474 0
M  V30 5 C 3.770848 -1.179811 0.691929 0
M  V30 6 F 2.806491 -1.680395 -0.121310 0
M  V30 7 C 3.799559 0.114650 1.117365 0
M  V30 8 C 2.677659 0.941272 0.631000 0
M  V30 9 N 1.367788 0.628575 0.886155 0
M  V30 10 C 0.376472 1.423256 0.397539 0
M  V30 11 C -1.001456 1.094934 0.717780 0
M  V30 12 O -1.924579 1.844376 0.236849 0
M  V30 13 N -1.524717 0.045585 1.509324 0
M  V30 14 C -2.903212 -0.168094 1.764204 0
M  V30 15 C -3.205900 0.613650 2.889149 0
M  V30 16 N -4.475336 0.609399 3.397583 0
M  V30 17 C -5.398061 -0.154784 2.794250 0
M  V30 18 C -5.134770 -0.935080 1.688852 0
M  V30 19 C -3.833927 -0.936060 1.159153 0
M  V30 20 C -3.384412 -1.689380 -0.006008 0 CFG=2
M  V30 21 C -2.505460 -2.882353 0.297767 0
M  V30 22 C -1.607102 -3.270056 -0.827365 0 CFG=2
M  V30 23 C -0.163868 -2.836577 -0.534025 0
M  V30 24 C -2.038676 -2.936949 -2.202912 0
M  V30 25 C -3.180627 -1.985108 -2.347415 0 CFG=2
M  V30 26 N -3.226531 -1.376650 -3.641259 0
M  V30 27 C -3.003411 -0.940681 -1.227492 0
M  V30 28 C 0.640312 2.540535 -0.353819 0
M  V30 29 C 1.975200 2.785374 -0.566728 0
M  V30 30 C 3.051218 2.058322 -0.123168 0
M  V30 31 F 4.336358 2.359198 -0.363640 0
M  V30 32 C 4.816211 0.579134 1.951281 0
M  V30 33 H 7.476791 -0.603432 3.636844 0
M  V30 34 H 7.516952 0.984542 2.747710 0
M  V30 35 H 6.394344 0.710894 4.144798 0
M  V30 36 H 6.626304 -2.247350 2.288135 0
M  V30 37 H 4.846413 -3.069283 0.825549 0
M  V30 38 H -0.732263 -0.559374 1.886213 0
M  V30 39 H -2.594620 1.283959 3.495924 0
M  V30 40 H -6.437146 -0.226405 3.118547 0
M  V30 41 H -5.850240 -1.564498 1.176196 0
M  V30 42 H -4.357849 -2.205354 -0.343068 0
M  V30 43 H -3.064450 -3.753950 0.696259 0
M  V30 44 H -1.855662 -2.543436 1.147551 0
M  V30 45 H -1.514576 -4.395784 -0.780850 0
M  V30 46 H 0.036210 -1.794697 -0.827126 0
M  V30 47 H 0.537218 -3.531541 -1.056752 0
M  V30 48 H -0.034571 -3.043096 0.548615 0
M  V30 49 H -1.153184 -2.457274 -2.716542 0
M  V30 50 H -2.207974 -3.856675 -2.843995 0
M  V30 51 H -4.110318 -2.587648 -2.127114 0
M  V30 52 H -3.055273 -2.134994 -4.338519 0
M  V30 53 H -4.228198 -1.069980 -3.814478 0
M  V30 54 H -1.976784 -0.617483 -1.341385 0
M  V30 55 H -3.759691 -0.164099 -1.432712 0
M  V30 56 H -0.123452 3.169214 -0.744620 0
M  V30 57 H 2.211248 3.666541 -1.159214 0
M  V30 58 H 4.778589 1.605491 2.245908 0
M  V30 END ATOM
M  V30 BEGIN BOND
M  V30 1 1 1 2
M  V30 2 2 2 3
M  V30 3 1 3 4
M  V30 4 2 4 5
M  V30 5 1 5 6
M  V30 6 1 5 7
M  V30 7 1 7 8
M  V30 8 2 8 9
M  V30 9 1 9 10
M  V30 10 1 10 11
M  V30 11 2 11 12
M  V30 12 1 11 13
M  V30 13 1 13 14
M  V30 14 2 14 15
M  V30 15 1 15 16
M  V30 16 2 16 17
M  V30 17 1 17 18
M  V30 18 2 18 19
M  V30 19 1 19 20
M  V30 20 1 20 21
M  V30 21 1 21 22
M  V30 22 1 22 23
M  V30 23 1 22 24
M  V30 24 1 24 25
M  V30 25 1 25 26
M  V30 26 1 25 27
M  V30 27 2 10 28
M  V30 28 1 28 29
M  V30 29 2 29 30
M  V30 30 1 30 31
M  V30 31 2 7 32
M  V30 32 1 32 2
M  V30 33 1 30 8
M  V30 34 1 19 14
M  V30 35 1 27 20
M  V30 36 1 1 33
M  V30 37 1 1 34
M  V30 38 1 1 35
M  V30 39 1 3 36
M  V30 40 1 4 37
M  V30 41 1 13 38
M  V30 42 1 15 39
M  V30 43 1 17 40
M  V30 44 1 18 41
M  V30 45 1 20 42 CFG=3
M  V30 46 1 21 43
M  V30 47 1 21 44
M  V30 48 1 22 45 CFG=3
M  V30 49 1 23 46
M  V30 50 1 23 47
M  V30 51 1 23 48
M  V30 52 1 24 49
M  V30 53 1 24 50
M  V30 54 1 25 51 CFG=1
M  V30 55 1 26 52
M  V30 56 1 26 53
M  V30 57 1 27 54
M  V30 58 1 27 55
M  V30 59 1 28 56
M  V30 60 1 29 57
M  V30 61 1 32 58
M  V30 END BOND
M  V30 END CTAB
M  END
>  <Dataset>  (438) 
ChEMBL_Kinases

>  <Ligand_Instance>  (438) 
nan

>  <PDB_ID>  (438) 
nan

>  <Standardized_SMILES>  (438) 
Cc1ccc(F)c(-c2nc(C(=O)Nc3cnccc3[C@@H]3C[C@H](C)C[C@H](N)C3)ccc2F)c1

>  <Name>  (438) 
nan

>  <Pocket>  (438) 
nan

>  <ATP_Site>  (438) 
nan

>  <Peripheral>  (438) 
nan

>  <Num_H_Atoms_ProtBoundConf>  (438) 
nan

>  <Num_Resolved_Atoms>  (438) 
nan

>  <Num_Not_Resolved_Atoms>  (438) 
nan

$$$$
CHEMBL3652637
     RDKit          3D

  0  0  0  0  0  0  0  0  0  0999 V3000
M  V30 BEGIN CTAB
M  V30 COUNTS 51 54 0 0 0
M  V30 BEGIN ATOM
M  V30 1 C -2.908083 -3.244268 3.751442 0
M  V30 2 N -2.335371 -2.050525 3.165422 0
M  V30 3 N -2.764905 -0.905648 3.674471 0
M  V30 4 C -2.174988 0.129221 3.064476 0
M  V30 5 C -1.320191 -0.367222 2.112408 0
M  V30 6 N -0.484579 0.325713 1.220836 0
M  V30 7 C 0.446440 0.049910 0.208809 0
M  V30 8 O 0.620117 -1.171708 0.001377 0
M  V30 9 C 1.179221 1.044087 -0.568389 0
M  V30 10 N 1.040578 2.364895 -0.405688 0
M  V30 11 C 1.610852 3.181378 -1.011491 0
M  V30 12 C 1.618363 4.708907 -1.005286 0
M  V30 13 C 2.437595 5.380316 -1.886670 0
M  V30 14 F 3.242578 4.737044 -2.764752 0
M  V30 15 C 2.371540 6.760917 -1.802157 0
M  V30 16 C 1.534361 7.410295 -0.888928 0
M  V30 17 C 0.739645 6.646244 -0.034906 0
M  V30 18 C 0.777417 5.268752 -0.088791 0
M  V30 19 F -0.006350 4.555616 0.754216 0
M  V30 20 S 2.677658 2.297613 -2.169393 0
M  V30 21 C 2.060870 0.619368 -1.522195 0
M  V30 22 N 2.452894 -0.665677 -1.957731 0
M  V30 23 C -1.438559 -1.712360 2.195749 0
M  V30 24 N -0.913987 -2.867477 1.579427 0
M  V30 25 C -1.594783 -3.440011 0.411687 0
M  V30 26 C -1.009102 -4.795974 0.210935 0
M  V30 27 C 0.202631 -4.905571 1.071680 0 CFG=2
M  V30 28 C 0.175896 -6.183357 1.883091 0
M  V30 29 N 0.134752 -7.347095 1.040356 0
M  V30 30 C 0.262396 -3.684056 1.916377 0
M  V30 31 H -2.582068 -4.164562 3.242888 0
M  V30 32 H -4.010347 -3.182467 3.638559 0
M  V30 33 H -2.709206 -3.232296 4.839278 0
M  V30 34 H -2.339204 1.185659 3.279565 0
M  V30 35 H -0.570336 1.381779 1.331772 0
M  V30 36 H 3.008967 7.316117 -2.487516 0
M  V30 37 H 1.538555 8.506570 -0.883120 0
M  V30 38 H 0.109445 7.223288 0.653808 0
M  V30 39 H 3.355965 -0.970498 -1.498452 0
M  V30 40 H 1.807865 -1.111761 -2.651431 0
M  V30 41 H -1.556997 -2.768994 -0.466592 0
M  V30 42 H -2.688367 -3.555509 0.671238 0
M  V30 43 H -0.698004 -4.886787 -0.849499 0
M  V30 44 H -1.765462 -5.610528 0.396830 0
M  V30 45 H 1.144269 -4.945520 0.454226 0
M  V30 46 H 1.061080 -6.277815 2.539036 0
M  V30 47 H -0.711867 -6.136033 2.537544 0
M  V30 48 H -0.843876 -7.621983 0.788344 0
M  V30 49 H 0.738672 -7.266835 0.197030 0
M  V30 50 H 1.199248 -3.121431 1.852151 0
M  V30 51 H 0.124465 -4.026428 2.982618 0
M  V30 END ATOM
M  V30 BEGIN BOND
M  V30 1 1 1 2
M  V30 2 1 2 3
M  V30 3 2 3 4
M  V30 4 1 4 5
M  V30 5 1 5 6
M  V30 6 1 6 7
M  V30 7 2 7 8
M  V30 8 1 7 9
M  V30 9 1 9 10
M  V30 10 2 10 11
M  V30 11 1 11 12
M  V30 12 2 12 13
M  V30 13 1 13 14
M  V30 14 1 13 15
M  V30 15 2 15 16
M  V30 16 1 16 17
M  V30 17 2 17 18
M  V30 18 1 18 19
M  V30 19 1 11 20
M  V30 20 1 20 21
M  V30 21 1 21 22
M  V30 22 2 5 23
M  V30 23 1 23 24
M  V30 24 1 24 25
M  V30 25 1 25 26
M  V30 26 1 26 27
M  V30 27 1 27 28
M  V30 28 1 28 29
M  V30 29 1 27 30
M  V30 30 1 23 2
M  V30 31 1 30 24
M  V30 32 2 21 9
M  V30 33 1 18 12
M  V30 34 1 1 31
M  V30 35 1 1 32
M  V30 36 1 1 33
M  V30 37 1 4 34
M  V30 38 1 6 35
M  V30 39 1 15 36
M  V30 40 1 16 37
M  V30 41 1 17 38
M  V30 42 1 22 39
M  V30 43 1 22 40
M  V30 44 1 25 41
M  V30 45 1 25 42
M  V30 46 1 26 43
M  V30 47 1 26 44
M  V30 48 1 27 45 CFG=3
M  V30 49 1 28 46
M  V30 50 1 28 47
M  V30 51 1 29 48
M  V30 52 1 29 49
M  V30 53 1 30 50
M  V30 54 1 30 51
M  V30 END BOND
M  V30 END CTAB
M  END
>  <Dataset>  (439) 
ChEMBL_Kinases

>  <Ligand_Instance>  (439) 
nan

>  <PDB_ID>  (439) 
nan

>  <Standardized_SMILES>  (439) 
Cn1ncc(NC(=O)c2nc(-c3c(F)cccc3F)sc2N)c1N1CC[C@H](CN)C1

>  <Name>  (439) 
nan

>  <Pocket>  (439) 
nan

>  <ATP_Site>  (439) 
nan

>  <Peripheral>  (439) 
nan

>  <Num_H_Atoms_ProtBoundConf>  (439) 
nan

>  <Num_Resolved_Atoms>  (439) 
nan

>  <Num_Not_Resolved_Atoms>  (439) 
nan

$$$$
CHEMBL3652638
     RDKit          3D

  0  0  0  0  0  0  0  0  0  0999 V3000
M  V30 BEGIN CTAB
M  V30 COUNTS 54 57 0 0 0
M  V30 BEGIN ATOM
M  V30 1 C -0.634918 -5.813896 2.538006 0
M  V30 2 N 0.100142 -4.558763 2.299852 0
M  V30 3 N 1.389909 -4.532879 2.594749 0
M  V30 4 C 1.914584 -3.328181 2.341065 0
M  V30 5 C 0.878014 -2.572409 1.860380 0
M  V30 6 N 1.072853 -1.222993 1.468439 0
M  V30 7 C 2.320199 -0.559084 1.593483 0
M  V30 8 O 3.342471 -1.125748 2.060892 0
M  V30 9 C 2.589153 0.833226 1.210439 0
M  V30 10 N 1.684316 1.670389 0.699844 0
M  V30 11 C 1.840671 2.769163 0.385493 0
M  V30 12 C 1.010492 3.895761 -0.198935 0
M  V30 13 C 1.568584 5.116709 -0.453358 0
M  V30 14 F 2.858154 5.382526 -0.206346 0
M  V30 15 C 0.733419 6.092035 -0.988116 0
M  V30 16 C -0.591118 5.847773 -1.251196 0
M  V30 17 C -1.071136 4.602675 -0.968689 0
M  V30 18 C -0.301501 3.572732 -0.432962 0
M  V30 19 F -0.822450 2.351657 -0.167201 0
M  V30 20 S 3.587886 3.112365 0.736952 0
M  V30 21 C 3.862628 1.348172 1.380993 0
M  V30 22 N 5.115442 0.870692 1.868061 0
M  V30 23 C -0.263097 -3.336694 1.831875 0
M  V30 24 N -1.549720 -2.979575 1.381973 0
M  V30 25 C -2.502722 -4.035745 0.999964 0
M  V30 26 C -3.377221 -3.613469 -0.167858 0
M  V30 27 C -2.505143 -3.363687 -1.359339 0
M  V30 28 C -1.528538 -2.273964 -1.065326 0 CFG=1
M  V30 29 N -1.071746 -1.733946 -2.331980 0
M  V30 30 C -2.059348 -1.214400 -0.146434 0
M  V30 31 C -2.036290 -1.640579 1.296990 0
M  V30 32 H -1.650199 -5.621483 2.933363 0
M  V30 33 H -0.562023 -6.503620 1.699557 0
M  V30 34 H -0.137350 -6.357439 3.411010 0
M  V30 35 H 2.951501 -3.258578 2.562805 0
M  V30 36 H 0.443343 -0.531644 1.053430 0
M  V30 37 H 1.154641 7.070978 -1.198354 0
M  V30 38 H -1.183656 6.650344 -1.666991 0
M  V30 39 H -2.113242 4.419578 -1.178647 0
M  V30 40 H 5.580586 1.220052 2.736284 0
M  V30 41 H 5.404956 0.135756 1.165138 0
M  V30 42 H -2.007428 -4.958341 0.689149 0
M  V30 43 H -3.194955 -4.272081 1.833649 0
M  V30 44 H -3.984124 -2.726202 0.031977 0
M  V30 45 H -4.057138 -4.463297 -0.351246 0
M  V30 46 H -3.082147 -3.076509 -2.263449 0
M  V30 47 H -1.924501 -4.304364 -1.534211 0
M  V30 48 H -0.624461 -2.717807 -0.590470 0
M  V30 49 H -1.354143 -2.353131 -3.136154 0
M  V30 50 H -0.019075 -1.675864 -2.392884 0
M  V30 51 H -1.503130 -0.246561 -0.310467 0
M  V30 52 H -3.093983 -0.973088 -0.518288 0
M  V30 53 H -1.577264 -0.914612 1.994289 0
M  V30 54 H -3.129217 -1.625396 1.627500 0
M  V30 END ATOM
M  V30 BEGIN BOND
M  V30 1 1 1 2
M  V30 2 1 2 3
M  V30 3 2 3 4
M  V30 4 1 4 5
M  V30 5 1 5 6
M  V30 6 1 6 7
M  V30 7 2 7 8
M  V30 8 1 7 9
M  V30 9 1 9 10
M  V30 10 2 10 11
M  V30 11 1 11 12
M  V30 12 2 12 13
M  V30 13 1 13 14
M  V30 14 1 13 15
M  V30 15 2 15 16
M  V30 16 1 16 17
M  V30 17 2 17 18
M  V30 18 1 18 19
M  V30 19 1 11 20
M  V30 20 1 20 21
M  V30 21 1 21 22
M  V30 22 2 5 23
M  V30 23 1 23 24
M  V30 24 1 24 25
M  V30 25 1 25 26
M  V30 26 1 26 27
M  V30 27 1 27 28
M  V30 28 1 28 29
M  V30 29 1 28 30
M  V30 30 1 30 31
M  V30 31 1 23 2
M  V30 32 1 31 24
M  V30 33 2 21 9
M  V30 34 1 18 12
M  V30 35 1 1 32
M  V30 36 1 1 33
M  V30 37 1 1 34
M  V30 38 1 4 35
M  V30 39 1 6 36
M  V30 40 1 15 37
M  V30 41 1 16 38
M  V30 42 1 17 39
M  V30 43 1 22 40
M  V30 44 1 22 41
M  V30 45 1 25 42
M  V30 46 1 25 43
M  V30 47 1 26 44
M  V30 48 1 26 45
M  V30 49 1 27 46
M  V30 50 1 27 47
M  V30 51 1 28 48 CFG=1
M  V30 52 1 29 49
M  V30 53 1 29 50
M  V30 54 1 30 51
M  V30 55 1 30 52
M  V30 56 1 31 53
M  V30 57 1 31 54
M  V30 END BOND
M  V30 END CTAB
M  END
>  <Dataset>  (440) 
ChEMBL_Kinases

>  <Ligand_Instance>  (440) 
nan

>  <PDB_ID>  (440) 
nan

>  <Standardized_SMILES>  (440) 
Cn1ncc(NC(=O)c2nc(-c3c(F)cccc3F)sc2N)c1N1CCC[C@@H](N)CC1

>  <Name>  (440) 
nan

>  <Pocket>  (440) 
nan

>  <ATP_Site>  (440) 
nan

>  <Peripheral>  (440) 
nan

>  <Num_H_Atoms_ProtBoundConf>  (440) 
nan

>  <Num_Resolved_Atoms>  (440) 
nan

>  <Num_Not_Resolved_Atoms>  (440) 
nan

$$$$
CHEMBL3651957
     RDKit          3D

  0  0  0  0  0  0  0  0  0  0999 V3000
M  V30 BEGIN CTAB
M  V30 COUNTS 55 58 0 0 0
M  V30 BEGIN ATOM
M  V30 1 C 1.538449 -3.102015 0.376091 0
M  V30 2 C 2.464454 -1.938147 0.695261 0 CFG=2
M  V30 3 C 2.375917 -1.546851 2.132166 0
M  V30 4 C 2.697318 -0.132470 2.459590 0 CFG=2
M  V30 5 N 2.370403 0.138578 3.845759 0
M  V30 6 C 1.785057 0.723431 1.562031 0
M  V30 7 C 2.348302 0.523865 0.181380 0 CFG=2
M  V30 8 C 2.050474 1.572329 -0.793360 0
M  V30 9 C 3.060092 2.458451 -1.228205 0
M  V30 10 C 2.996268 3.487939 -2.155783 0
M  V30 11 N 1.763990 3.650721 -2.719763 0
M  V30 12 C 0.758027 2.838565 -2.347722 0
M  V30 13 C 0.851662 1.823925 -1.422208 0
M  V30 14 N -0.273165 1.034794 -1.092441 0
M  V30 15 C -1.579179 1.006175 -1.615565 0
M  V30 16 O -1.845704 1.821067 -2.567459 0
M  V30 17 C -2.692045 0.155494 -1.210324 0
M  V30 18 C -3.906737 0.255255 -1.854243 0
M  V30 19 C -4.983686 -0.531586 -1.504697 0
M  V30 20 C -4.751414 -1.413970 -0.473601 0
M  V30 21 F -5.801199 -2.188247 -0.124505 0
M  V30 22 C -3.565791 -1.556321 0.202300 0
M  V30 23 C -3.275870 -2.462567 1.291409 0
M  V30 24 C -4.101596 -3.384698 1.876234 0
M  V30 25 C -3.781494 -4.231055 2.911682 0
M  V30 26 F -4.667782 -5.098253 3.411095 0
M  V30 27 C -2.505209 -4.162185 3.429882 0
M  V30 28 C -1.621952 -3.253083 2.885402 0
M  V30 29 C -2.014738 -2.435128 1.846223 0
M  V30 30 F -1.073048 -1.578109 1.387895 0
M  V30 31 N -2.583170 -0.741715 -0.218444 0
M  V30 32 C 2.350615 -0.879515 -0.324373 0
M  V30 33 H 1.112695 -3.548348 1.293989 0
M  V30 34 H 0.733224 -2.676395 -0.291087 0
M  V30 35 H 2.016296 -3.884370 -0.219179 0
M  V30 36 H 3.492724 -2.408955 0.597890 0
M  V30 37 H 1.356716 -1.765967 2.510806 0
M  V30 38 H 3.043709 -2.184960 2.784895 0
M  V30 39 H 3.762050 0.054429 2.258072 0
M  V30 40 H 2.542437 1.179198 3.986857 0
M  V30 41 H 2.984925 -0.344038 4.506321 0
M  V30 42 H 1.909991 1.794757 1.820120 0
M  V30 43 H 0.790385 0.334063 1.743654 0
M  V30 44 H 3.480409 0.695752 0.397776 0
M  V30 45 H 4.080073 2.379456 -0.810063 0
M  V30 46 H 3.842005 4.103470 -2.408674 0
M  V30 47 H -0.119292 3.129036 -2.899246 0
M  V30 48 H -0.264755 0.320355 -0.338518 0
M  V30 49 H -4.068112 0.968459 -2.675753 0
M  V30 50 H -5.925518 -0.462733 -1.995032 0
M  V30 51 H -5.101653 -3.468101 1.500389 0
M  V30 52 H -2.158177 -4.784631 4.242921 0
M  V30 53 H -0.622804 -3.202244 3.294209 0
M  V30 54 H 1.465867 -1.041533 -0.958484 0
M  V30 55 H 3.204640 -0.982307 -1.076318 0
M  V30 END ATOM
M  V30 BEGIN BOND
M  V30 1 1 1 2
M  V30 2 1 2 3
M  V30 3 1 3 4
M  V30 4 1 4 5
M  V30 5 1 4 6
M  V30 6 1 6 7
M  V30 7 1 7 8
M  V30 8 2 8 9
M  V30 9 1 9 10
M  V30 10 2 10 11
M  V30 11 1 11 12
M  V30 12 2 12 13
M  V30 13 1 13 14
M  V30 14 1 14 15
M  V30 15 2 15 16
M  V30 16 1 15 17
M  V30 17 2 17 18
M  V30 18 1 18 19
M  V30 19 2 19 20
M  V30 20 1 20 21
M  V30 21 1 20 22
M  V30 22 1 22 23
M  V30 23 2 23 24
M  V30 24 1 24 25
M  V30 25 1 25 26
M  V30 26 2 25 27
M  V30 27 1 27 28
M  V30 28 2 28 29
M  V30 29 1 29 30
M  V30 30 2 22 31
M  V30 31 1 7 32
M  V30 32 1 32 2
M  V30 33 1 13 8
M  V30 34 1 31 17
M  V30 35 1 29 23
M  V30 36 1 1 33
M  V30 37 1 1 34
M  V30 38 1 1 35
M  V30 39 1 2 36 CFG=1
M  V30 40 1 3 37
M  V30 41 1 3 38
M  V30 42 1 4 39 CFG=1
M  V30 43 1 5 40
M  V30 44 1 5 41
M  V30 45 1 6 42
M  V30 46 1 6 43
M  V30 47 1 7 44 CFG=1
M  V30 48 1 9 45
M  V30 49 1 10 46
M  V30 50 1 12 47
M  V30 51 1 14 48
M  V30 52 1 18 49
M  V30 53 1 19 50
M  V30 54 1 24 51
M  V30 55 1 27 52
M  V30 56 1 28 53
M  V30 57 1 32 54
M  V30 58 1 32 55
M  V30 END BOND
M  V30 END CTAB
M  END
>  <Dataset>  (441) 
ChEMBL_Kinases

>  <Ligand_Instance>  (441) 
nan

>  <PDB_ID>  (441) 
nan

>  <Standardized_SMILES>  (441) 
C[C@@H]1C[C@H](N)C[C@H](c2ccncc2NC(=O)c2ccc(F)c(-c3cc(F)ccc3F)n2)C1

>  <Name>  (441) 
nan

>  <Pocket>  (441) 
nan

>  <ATP_Site>  (441) 
nan

>  <Peripheral>  (441) 
nan

>  <Num_H_Atoms_ProtBoundConf>  (441) 
nan

>  <Num_Resolved_Atoms>  (441) 
nan

>  <Num_Not_Resolved_Atoms>  (441) 
nan

$$$$
CHEMBL3651958
     RDKit          3D

  0  0  0  0  0  0  0  0  0  0999 V3000
M  V30 BEGIN CTAB
M  V30 COUNTS 55 58 0 0 0
M  V30 BEGIN ATOM
M  V30 1 C 1.720658 -2.578440 -0.430612 0
M  V30 2 C 2.416275 -1.480250 0.351236 0 CFG=2
M  V30 3 C 1.737951 -1.211868 1.662452 0
M  V30 4 C 2.155208 0.028300 2.338739 0 CFG=2
M  V30 5 N 1.001632 0.468922 3.146613 0
M  V30 6 C 2.579722 1.186181 1.525751 0
M  V30 7 C 2.650775 1.041575 0.059219 0 CFG=2
M  V30 8 C 1.910737 2.039734 -0.758354 0
M  V30 9 C 2.440517 3.232616 -1.279414 0
M  V30 10 C 1.684335 4.094934 -2.042523 0
M  V30 11 N 0.395711 3.842846 -2.331571 0
M  V30 12 C -0.135291 2.707805 -1.844480 0
M  V30 13 C 0.589590 1.819842 -1.076538 0
M  V30 14 N -0.210241 0.706768 -0.691746 0
M  V30 15 C -0.896749 1.059271 0.520844 0
M  V30 16 O -0.662550 2.229742 0.977096 0
M  V30 17 C -1.822967 0.172790 1.237694 0
M  V30 18 C -2.417422 0.627672 2.389280 0
M  V30 19 C -3.275055 -0.254429 3.011279 0
M  V30 20 C -3.466581 -1.493574 2.445999 0
M  V30 21 C -2.874978 -1.951010 1.296713 0
M  V30 22 C -3.037598 -3.237405 0.658133 0
M  V30 23 C -2.322889 -3.460769 -0.507483 0
M  V30 24 C -2.391535 -4.641140 -1.208068 0
M  V30 25 C -3.189749 -5.673689 -0.773033 0
M  V30 26 C -3.913951 -5.487435 0.380970 0
M  V30 27 C -3.804961 -4.284300 1.039692 0
M  V30 28 F -4.540530 -4.167923 2.162689 0
M  V30 29 N -2.051927 -1.050074 0.736590 0
M  V30 30 C 2.652316 -0.324428 -0.524059 0
M  V30 31 H 2.485708 -3.058968 -1.109825 0
M  V30 32 H 1.385493 -3.401801 0.229999 0
M  V30 33 H 0.960484 -2.190333 -1.114466 0
M  V30 34 H 3.417534 -1.941346 0.609891 0
M  V30 35 H 1.921861 -2.070659 2.346314 0
M  V30 36 H 0.639582 -1.312397 1.459078 0
M  V30 37 H 2.913045 -0.245522 3.136844 0
M  V30 38 H 1.096650 1.458482 3.450002 0
M  V30 39 H 0.922629 -0.150688 4.006725 0
M  V30 40 H 3.547913 1.547390 2.010577 0
M  V30 41 H 1.958230 2.117847 1.717724 0
M  V30 42 H 3.726477 1.379925 -0.168764 0
M  V30 43 H 3.492761 3.414351 -1.029201 0
M  V30 44 H 2.242614 4.971161 -2.367951 0
M  V30 45 H -1.186710 2.602976 -2.139499 0
M  V30 46 H -0.489020 -0.285738 -0.970596 0
M  V30 47 H -2.253101 1.606308 2.817162 0
M  V30 48 H -3.784926 0.023617 3.923373 0
M  V30 49 H -4.141945 -2.145826 2.964599 0
M  V30 50 H -1.656236 -2.705572 -0.943260 0
M  V30 51 H -1.829724 -4.792246 -2.107657 0
M  V30 52 H -3.224591 -6.591489 -1.344100 0
M  V30 53 H -4.544483 -6.280632 0.739972 0
M  V30 54 H 1.852973 -0.303262 -1.329681 0
M  V30 55 H 3.571413 -0.548781 -1.153117 0
M  V30 END ATOM
M  V30 BEGIN BOND
M  V30 1 1 1 2
M  V30 2 1 2 3
M  V30 3 1 3 4
M  V30 4 1 4 5
M  V30 5 1 4 6
M  V30 6 1 6 7
M  V30 7 1 7 8
M  V30 8 2 8 9
M  V30 9 1 9 10
M  V30 10 2 10 11
M  V30 11 1 11 12
M  V30 12 2 12 13
M  V30 13 1 13 14
M  V30 14 1 14 15
M  V30 15 2 15 16
M  V30 16 1 15 17
M  V30 17 2 17 18
M  V30 18 1 18 19
M  V30 19 2 19 20
M  V30 20 1 20 21
M  V30 21 1 21 22
M  V30 22 2 22 23
M  V30 23 1 23 24
M  V30 24 2 24 25
M  V30 25 1 25 26
M  V30 26 2 26 27
M  V30 27 1 27 28
M  V30 28 2 21 29
M  V30 29 1 7 30
M  V30 30 1 30 2
M  V30 31 1 13 8
M  V30 32 1 29 17
M  V30 33 1 27 22
M  V30 34 1 1 31
M  V30 35 1 1 32
M  V30 36 1 1 33
M  V30 37 1 2 34 CFG=1
M  V30 38 1 3 35
M  V30 39 1 3 36
M  V30 40 1 4 37 CFG=1
M  V30 41 1 5 38
M  V30 42 1 5 39
M  V30 43 1 6 40
M  V30 44 1 6 41
M  V30 45 1 7 42 CFG=3
M  V30 46 1 9 43
M  V30 47 1 10 44
M  V30 48 1 12 45
M  V30 49 1 14 46
M  V30 50 1 18 47
M  V30 51 1 19 48
M  V30 52 1 20 49
M  V30 53 1 23 50
M  V30 54 1 24 51
M  V30 55 1 25 52
M  V30 56 1 26 53
M  V30 57 1 30 54
M  V30 58 1 30 55
M  V30 END BOND
M  V30 END CTAB
M  END
>  <Dataset>  (442) 
ChEMBL_Kinases

>  <Ligand_Instance>  (442) 
nan

>  <PDB_ID>  (442) 
nan

>  <Standardized_SMILES>  (442) 
C[C@@H]1C[C@H](N)C[C@H](c2ccncc2NC(=O)c2cccc(-c3ccccc3F)n2)C1

>  <Name>  (442) 
nan

>  <Pocket>  (442) 
nan

>  <ATP_Site>  (442) 
nan

>  <Peripheral>  (442) 
nan

>  <Num_H_Atoms_ProtBoundConf>  (442) 
nan

>  <Num_Resolved_Atoms>  (442) 
nan

>  <Num_Not_Resolved_Atoms>  (442) 
nan

$$$$
CHEMBL3651959
     RDKit          3D

  0  0  0  0  0  0  0  0  0  0999 V3000
M  V30 BEGIN CTAB
M  V30 COUNTS 55 58 0 0 0
M  V30 BEGIN ATOM
M  V30 1 C 1.985968 -1.944235 -2.114331 0
M  V30 2 C 2.609344 -1.353450 -0.866335 0 CFG=2
M  V30 3 C 1.840436 -1.833076 0.313439 0
M  V30 4 C 2.355158 -1.149893 1.542727 0 CFG=2
M  V30 5 N 1.499823 -1.561395 2.641625 0
M  V30 6 C 2.326001 0.337913 1.487196 0
M  V30 7 C 2.626399 0.953334 0.171361 0 CFG=2
M  V30 8 C 1.854413 2.198382 -0.069015 0
M  V30 9 C 2.361006 3.501456 0.036276 0
M  V30 10 C 1.617086 4.629975 -0.196499 0
M  V30 11 N 0.313816 4.504762 -0.550059 0
M  V30 12 C -0.223945 3.259941 -0.665258 0
M  V30 13 C 0.537057 2.107379 -0.427363 0
M  V30 14 N -0.284665 0.974176 -0.602501 0
M  V30 15 C -0.790453 0.057871 -1.567344 0
M  V30 16 O -0.484936 0.146939 -2.806523 0
M  V30 17 C -1.679501 -0.989150 -1.059191 0
M  V30 18 C -2.169607 -1.867873 -1.986317 0
M  V30 19 C -3.010371 -2.897773 -1.674321 0
M  V30 20 C -3.390537 -3.064819 -0.342824 0
M  V30 21 C -2.875085 -2.154188 0.578560 0
M  V30 22 C -3.236079 -2.277699 1.984209 0
M  V30 23 C -2.379648 -3.087331 2.733904 0
M  V30 24 F -1.285818 -3.725834 2.226357 0
M  V30 25 C -2.598074 -3.297100 4.084789 0
M  V30 26 C -3.681060 -2.699462 4.715514 0
M  V30 27 C -4.528393 -1.897339 3.970284 0
M  V30 28 C -4.322831 -1.679790 2.624271 0
M  V30 29 F -5.107241 -0.909272 1.830361 0
M  V30 30 N -2.048646 -1.153206 0.226144 0
M  V30 31 C 2.722940 0.125597 -1.029913 0
M  V30 32 H 1.933579 -1.168293 -2.918273 0
M  V30 33 H 2.507188 -2.866076 -2.467189 0
M  V30 34 H 0.919113 -2.250997 -1.905097 0
M  V30 35 H 3.629297 -1.841789 -0.810296 0
M  V30 36 H 2.119481 -2.921970 0.451729 0
M  V30 37 H 0.755459 -1.843779 0.225346 0
M  V30 38 H 3.372911 -1.544835 1.766682 0
M  V30 39 H 1.869997 -2.384022 3.166545 0
M  V30 40 H 1.345709 -0.776066 3.311675 0
M  V30 41 H 3.010412 0.672939 2.303092 0
M  V30 42 H 1.331936 0.690761 1.830409 0
M  V30 43 H 3.684350 1.381584 0.321719 0
M  V30 44 H 3.415262 3.571966 0.323451 0
M  V30 45 H 2.072336 5.603192 -0.097070 0
M  V30 46 H -1.263988 3.337649 -0.952062 0
M  V30 47 H -0.576359 0.850728 0.416686 0
M  V30 48 H -1.892852 -1.764705 -3.028231 0
M  V30 49 H -3.370012 -3.564988 -2.445014 0
M  V30 50 H -4.055793 -3.874212 -0.072535 0
M  V30 51 H -1.929462 -3.933346 4.685159 0
M  V30 52 H -3.854286 -2.863136 5.776400 0
M  V30 53 H -5.381516 -1.409026 4.401908 0
M  V30 54 H 3.726670 0.251840 -1.561869 0
M  V30 55 H 2.023090 0.450802 -1.825142 0
M  V30 END ATOM
M  V30 BEGIN BOND
M  V30 1 1 1 2
M  V30 2 1 2 3
M  V30 3 1 3 4
M  V30 4 1 4 5
M  V30 5 1 4 6
M  V30 6 1 6 7
M  V30 7 1 7 8
M  V30 8 2 8 9
M  V30 9 1 9 10
M  V30 10 2 10 11
M  V30 11 1 11 12
M  V30 12 2 12 13
M  V30 13 1 13 14
M  V30 14 1 14 15
M  V30 15 2 15 16
M  V30 16 1 15 17
M  V30 17 2 17 18
M  V30 18 1 18 19
M  V30 19 2 19 20
M  V30 20 1 20 21
M  V30 21 1 21 22
M  V30 22 2 22 23
M  V30 23 1 23 24
M  V30 24 1 23 25
M  V30 25 2 25 26
M  V30 26 1 26 27
M  V30 27 2 27 28
M  V30 28 1 28 29
M  V30 29 2 21 30
M  V30 30 1 7 31
M  V30 31 1 31 2
M  V30 32 1 13 8
M  V30 33 1 30 17
M  V30 34 1 28 22
M  V30 35 1 1 32
M  V30 36 1 1 33
M  V30 37 1 1 34
M  V30 38 1 2 35 CFG=1
M  V30 39 1 3 36
M  V30 40 1 3 37
M  V30 41 1 4 38 CFG=1
M  V30 42 1 5 39
M  V30 43 1 5 40
M  V30 44 1 6 41
M  V30 45 1 6 42
M  V30 46 1 7 43 CFG=1
M  V30 47 1 9 44
M  V30 48 1 10 45
M  V30 49 1 12 46
M  V30 50 1 14 47
M  V30 51 1 18 48
M  V30 52 1 19 49
M  V30 53 1 20 50
M  V30 54 1 25 51
M  V30 55 1 26 52
M  V30 56 1 27 53
M  V30 57 1 31 54
M  V30 58 1 31 55
M  V30 END BOND
M  V30 END CTAB
M  END
>  <Dataset>  (443) 
ChEMBL_Kinases

>  <Ligand_Instance>  (443) 
nan

>  <PDB_ID>  (443) 
nan

>  <Standardized_SMILES>  (443) 
C[C@@H]1C[C@H](N)C[C@H](c2ccncc2NC(=O)c2cccc(-c3c(F)cccc3F)n2)C1

>  <Name>  (443) 
nan

>  <Pocket>  (443) 
nan

>  <ATP_Site>  (443) 
nan

>  <Peripheral>  (443) 
nan

>  <Num_H_Atoms_ProtBoundConf>  (443) 
nan

>  <Num_Resolved_Atoms>  (443) 
nan

>  <Num_Not_Resolved_Atoms>  (443) 
nan

$$$$
CHEMBL3651960
     RDKit          3D

  0  0  0  0  0  0  0  0  0  0999 V3000
M  V30 BEGIN CTAB
M  V30 COUNTS 63 66 0 0 0
M  V30 BEGIN ATOM
M  V30 1 C 5.734034 -0.011498 4.872720 0
M  V30 2 C 6.633165 -0.377227 3.682392 0
M  V30 3 C 6.705895 0.805799 2.749336 0
M  V30 4 O 5.496286 1.222933 2.222283 0
M  V30 5 C 4.663458 0.505053 1.425348 0
M  V30 6 C 4.594618 -0.728527 0.847078 0
M  V30 7 C 3.565771 -1.156808 0.062871 0
M  V30 8 C 2.492288 -0.320430 -0.195780 0
M  V30 9 F 1.515563 -0.824991 -0.985800 0
M  V30 10 C 2.503515 0.961787 0.369244 0
M  V30 11 C 1.308827 1.699142 -0.005624 0
M  V30 12 N 0.115830 1.118068 0.298015 0
M  V30 13 C -1.032517 1.728674 -0.031125 0
M  V30 14 C -2.362668 1.160608 0.274211 0
M  V30 15 O -3.463772 1.699320 -0.051653 0
M  V30 16 N -2.546808 -0.091483 0.991265 0
M  V30 17 C -3.953358 -0.265959 1.064346 0
M  V30 18 C -4.567132 0.556835 1.981321 0
M  V30 19 N -5.895963 0.482247 2.164738 0
M  V30 20 C -6.599936 -0.400219 1.442475 0
M  V30 21 C -5.948883 -1.201679 0.539245 0
M  V30 22 C -4.565341 -1.203383 0.273744 0
M  V30 23 C -4.006356 -2.145379 -0.685575 0 CFG=2
M  V30 24 C -3.495616 -3.418516 0.015579 0
M  V30 25 C -3.627676 -4.536929 -0.993233 0
M  V30 26 C -3.103763 -4.135940 -2.332071 0 CFG=2
M  V30 27 O -2.168397 -5.125111 -2.719832 0
M  V30 28 C -2.330628 -2.846353 -2.316996 0 CFG=2
M  V30 29 N -1.088433 -2.940924 -1.619349 0
M  V30 30 C -3.108975 -1.670095 -1.749880 0
M  V30 31 C -1.068020 2.944177 -0.676830 0
M  V30 32 C 0.126318 3.587137 -1.013226 0
M  V30 33 C 1.274065 2.918442 -0.653223 0
M  V30 34 F 2.483751 3.441935 -0.926796 0
M  V30 35 C 3.586654 1.353407 1.169424 0
M  V30 36 H 6.326961 0.398765 5.709140 0
M  V30 37 H 5.193270 -0.936516 5.194006 0
M  V30 38 H 4.957801 0.691866 4.498954 0
M  V30 39 H 7.666551 -0.486463 4.114933 0
M  V30 40 H 6.310387 -1.315403 3.205734 0
M  V30 41 H 7.211313 1.659775 3.271982 0
M  V30 42 H 7.388621 0.596872 1.883473 0
M  V30 43 H 5.451304 -1.319041 1.072963 0
M  V30 44 H 3.650020 -2.152570 -0.320636 0
M  V30 45 H -1.620980 -0.527376 1.257503 0
M  V30 46 H -4.027689 1.279218 2.578930 0
M  V30 47 H -7.666681 -0.456390 1.590850 0
M  V30 48 H -6.609495 -1.895180 -0.006751 0
M  V30 49 H -4.915578 -2.562496 -1.245928 0
M  V30 50 H -2.440489 -3.356595 0.296220 0
M  V30 51 H -4.152669 -3.574414 0.882747 0
M  V30 52 H -4.703682 -4.841394 -1.023769 0
M  V30 53 H -3.086127 -5.432061 -0.566666 0
M  V30 54 H -3.880412 -4.120060 -3.092882 0
M  V30 55 H -2.649209 -5.984328 -2.863458 0
M  V30 56 H -2.124694 -2.604687 -3.381457 0
M  V30 57 H -0.309347 -2.994693 -2.304686 0
M  V30 58 H -0.928343 -2.067154 -1.080708 0
M  V30 59 H -3.722991 -1.241977 -2.601153 0
M  V30 60 H -2.387765 -0.887174 -1.518479 0
M  V30 61 H -1.965968 3.498801 -0.976369 0
M  V30 62 H 0.163495 4.542006 -1.520251 0
M  V30 63 H 3.351134 2.371991 1.477409 0
M  V30 END ATOM
M  V30 BEGIN BOND
M  V30 1 1 1 2
M  V30 2 1 2 3
M  V30 3 1 3 4
M  V30 4 1 4 5
M  V30 5 2 5 6
M  V30 6 1 6 7
M  V30 7 2 7 8
M  V30 8 1 8 9
M  V30 9 1 8 10
M  V30 10 1 10 11
M  V30 11 2 11 12
M  V30 12 1 12 13
M  V30 13 1 13 14
M  V30 14 2 14 15
M  V30 15 1 14 16
M  V30 16 1 16 17
M  V30 17 2 17 18
M  V30 18 1 18 19
M  V30 19 2 19 20
M  V30 20 1 20 21
M  V30 21 2 21 22
M  V30 22 1 22 23
M  V30 23 1 23 24
M  V30 24 1 24 25
M  V30 25 1 25 26
M  V30 26 1 26 27
M  V30 27 1 26 28
M  V30 28 1 28 29
M  V30 29 1 28 30
M  V30 30 2 13 31
M  V30 31 1 31 32
M  V30 32 2 32 33
M  V30 33 1 33 34
M  V30 34 2 10 35
M  V30 35 1 35 5
M  V30 36 1 33 11
M  V30 37 1 22 17
M  V30 38 1 30 23
M  V30 39 1 1 36
M  V30 40 1 1 37
M  V30 41 1 1 38
M  V30 42 1 2 39
M  V30 43 1 2 40
M  V30 44 1 3 41
M  V30 45 1 3 42
M  V30 46 1 6 43
M  V30 47 1 7 44
M  V30 48 1 16 45
M  V30 49 1 18 46
M  V30 50 1 20 47
M  V30 51 1 21 48
M  V30 52 1 23 49 CFG=3
M  V30 53 1 24 50
M  V30 54 1 24 51
M  V30 55 1 25 52
M  V30 56 1 25 53
M  V30 57 1 26 54 CFG=3
M  V30 58 1 27 55
M  V30 59 1 28 56 CFG=3
M  V30 60 1 29 57
M  V30 61 1 29 58
M  V30 62 1 30 59
M  V30 63 1 30 60
M  V30 64 1 31 61
M  V30 65 1 32 62
M  V30 66 1 35 63
M  V30 END BOND
M  V30 END CTAB
M  END
>  <Dataset>  (444) 
ChEMBL_Kinases

>  <Ligand_Instance>  (444) 
nan

>  <PDB_ID>  (444) 
nan

>  <Standardized_SMILES>  (444) 
CCCOc1ccc(F)c(-c2nc(C(=O)Nc3cnccc3[C@@H]3CC[C@H](O)[C@H](N)C3)ccc2F)c1

>  <Name>  (444) 
nan

>  <Pocket>  (444) 
nan

>  <ATP_Site>  (444) 
nan

>  <Peripheral>  (444) 
nan

>  <Num_H_Atoms_ProtBoundConf>  (444) 
nan

>  <Num_Resolved_Atoms>  (444) 
nan

>  <Num_Not_Resolved_Atoms>  (444) 
nan

$$$$
CHEMBL3651961
     RDKit          3D

  0  0  0  0  0  0  0  0  0  0999 V3000
M  V30 BEGIN CTAB
M  V30 COUNTS 55 58 0 0 0
M  V30 BEGIN ATOM
M  V30 1 N 4.327485 -2.278734 3.389074 0
M  V30 2 C 3.708586 -1.066586 2.973602 0
M  V30 3 C 4.327657 0.132637 3.342152 0
M  V30 4 C 3.763402 1.354279 2.961070 0
M  V30 5 F 4.353419 2.507136 3.312119 0
M  V30 6 C 2.607546 1.279690 2.230717 0
M  V30 7 C 1.951547 2.528654 1.791045 0
M  V30 8 C 2.403689 2.952568 0.550578 0
M  V30 9 F 3.346372 2.299925 -0.189797 0
M  V30 10 C 1.901661 4.108140 -0.025839 0
M  V30 11 C 0.945978 4.825985 0.657250 0
M  V30 12 C 0.498558 4.397618 1.895432 0
M  V30 13 C 0.995581 3.245756 2.475482 0
M  V30 14 F 0.646208 2.728216 3.662273 0
M  V30 15 N 2.005210 0.119230 1.872001 0
M  V30 16 C 2.551985 -1.060945 2.241217 0
M  V30 17 C 1.905639 -2.297996 1.856172 0
M  V30 18 O 2.485051 -3.320765 2.243310 0
M  V30 19 N 0.714008 -2.392585 1.103242 0
M  V30 20 C 0.013051 -3.544492 0.682106 0
M  V30 21 C 0.363538 -4.846248 0.947451 0
M  V30 22 N -0.290364 -5.934838 0.559051 0
M  V30 23 C -1.417023 -5.823445 -0.170402 0
M  V30 24 C -1.816427 -4.522179 -0.467452 0
M  V30 25 C -1.132887 -3.378303 -0.061807 0
M  V30 26 C -1.720757 -2.096880 -0.488913 0 CFG=2
M  V30 27 C -2.651180 -1.494929 0.566765 0
M  V30 28 C -3.497623 -0.473359 -0.175690 0
M  V30 29 C -2.793175 0.093843 -1.376095 0 CFG=2
M  V30 30 O -3.502097 1.228448 -1.763175 0
M  V30 31 C -2.752338 -0.955923 -2.448377 0 CFG=2
M  V30 32 N -4.028696 -1.037099 -3.141726 0
M  V30 33 C -2.556393 -2.302798 -1.741641 0
M  V30 34 H 4.990873 -2.778700 2.735394 0
M  V30 35 H 4.029002 -2.550928 4.366670 0
M  V30 36 H 5.228506 0.099285 3.913149 0
M  V30 37 H 2.214778 4.494301 -0.996117 0
M  V30 38 H 0.543284 5.731978 0.220011 0
M  V30 39 H -0.248882 4.930650 2.463789 0
M  V30 40 H 0.367826 -1.441868 0.869108 0
M  V30 41 H 1.237562 -5.063552 1.517530 0
M  V30 42 H -1.976633 -6.679953 -0.504929 0
M  V30 43 H -2.723468 -4.468785 -1.053960 0
M  V30 44 H -0.914344 -1.372540 -0.650575 0
M  V30 45 H -2.038141 -0.983244 1.327685 0
M  V30 46 H -3.250664 -2.296671 1.016865 0
M  V30 47 H -4.398340 -1.010955 -0.537205 0
M  V30 48 H -3.851623 0.331657 0.499442 0
M  V30 49 H -1.756787 0.423539 -1.178649 0
M  V30 50 H -3.281428 1.526454 -2.667496 0
M  V30 51 H -1.942029 -0.808619 -3.181823 0
M  V30 52 H -4.089339 -0.346009 -3.907682 0
M  V30 53 H -4.202102 -1.979638 -3.561034 0
M  V30 54 H -3.556722 -2.654064 -1.403089 0
M  V30 55 H -2.093460 -3.017295 -2.441029 0
M  V30 END ATOM
M  V30 BEGIN BOND
M  V30 1 1 1 2
M  V30 2 2 2 3
M  V30 3 1 3 4
M  V30 4 1 4 5
M  V30 5 2 4 6
M  V30 6 1 6 7
M  V30 7 2 7 8
M  V30 8 1 8 9
M  V30 9 1 8 10
M  V30 10 2 10 11
M  V30 11 1 11 12
M  V30 12 2 12 13
M  V30 13 1 13 14
M  V30 14 1 6 15
M  V30 15 2 15 16
M  V30 16 1 16 17
M  V30 17 2 17 18
M  V30 18 1 17 19
M  V30 19 1 19 20
M  V30 20 2 20 21
M  V30 21 1 21 22
M  V30 22 2 22 23
M  V30 23 1 23 24
M  V30 24 2 24 25
M  V30 25 1 25 26
M  V30 26 1 26 27
M  V30 27 1 27 28
M  V30 28 1 28 29
M  V30 29 1 29 30
M  V30 30 1 29 31
M  V30 31 1 31 32
M  V30 32 1 31 33
M  V30 33 1 16 2
M  V30 34 1 25 20
M  V30 35 1 33 26
M  V30 36 1 13 7
M  V30 37 1 1 34
M  V30 38 1 1 35
M  V30 39 1 3 36
M  V30 40 1 10 37
M  V30 41 1 11 38
M  V30 42 1 12 39
M  V30 43 1 19 40
M  V30 44 1 21 41
M  V30 45 1 23 42
M  V30 46 1 24 43
M  V30 47 1 26 44 CFG=3
M  V30 48 1 27 45
M  V30 49 1 27 46
M  V30 50 1 28 47
M  V30 51 1 28 48
M  V30 52 1 29 49 CFG=1
M  V30 53 1 30 50
M  V30 54 1 31 51 CFG=3
M  V30 55 1 32 52
M  V30 56 1 32 53
M  V30 57 1 33 54
M  V30 58 1 33 55
M  V30 END BOND
M  V30 END CTAB
M  END
>  <Dataset>  (445) 
ChEMBL_Kinases

>  <Ligand_Instance>  (445) 
nan

>  <PDB_ID>  (445) 
nan

>  <Standardized_SMILES>  (445) 
Nc1cc(F)c(-c2c(F)cccc2F)nc1C(=O)Nc1cnccc1[C@@H]1CC[C@H](O)[C@H](N)C1

>  <Name>  (445) 
nan

>  <Pocket>  (445) 
nan

>  <ATP_Site>  (445) 
nan

>  <Peripheral>  (445) 
nan

>  <Num_H_Atoms_ProtBoundConf>  (445) 
nan

>  <Num_Resolved_Atoms>  (445) 
nan

>  <Num_Not_Resolved_Atoms>  (445) 
nan

$$$$
CHEMBL3651962
     RDKit          3D

  0  0  0  0  0  0  0  0  0  0999 V3000
M  V30 BEGIN CTAB
M  V30 COUNTS 55 58 0 0 0
M  V30 BEGIN ATOM
M  V30 1 N -1.877429 -2.741528 3.797303 0
M  V30 2 C -1.558805 -1.360500 3.720537 0
M  V30 3 C -1.291657 -0.654766 4.864794 0
M  V30 4 C -0.986532 0.682229 4.752598 0
M  V30 5 F -0.732093 1.328647 5.911064 0
M  V30 6 C -0.920831 1.398609 3.583153 0
M  V30 7 C -0.606945 2.795818 3.409635 0
M  V30 8 C -0.302807 3.727939 4.368492 0
M  V30 9 C -0.013288 5.045931 4.130367 0
M  V30 10 C -0.019399 5.506294 2.830856 0
M  V30 11 C -0.318964 4.610433 1.827045 0
M  V30 12 C -0.603049 3.292838 2.125689 0
M  V30 13 F -0.876472 2.531201 1.059654 0
M  V30 14 N -1.190670 0.661743 2.491597 0
M  V30 15 C -1.493923 -0.645753 2.546157 0
M  V30 16 C -1.773854 -1.372625 1.313200 0
M  V30 17 O -2.059797 -2.608193 1.371677 0
M  V30 18 N -1.761308 -0.831960 0.010407 0
M  V30 19 C -2.045655 -1.605413 -1.148324 0
M  V30 20 C -3.368232 -1.645148 -1.526569 0
M  V30 21 N -3.666719 -2.373571 -2.625376 0
M  V30 22 C -2.737218 -3.042404 -3.341021 0
M  V30 23 C -1.406532 -2.993039 -2.947236 0
M  V30 24 C -1.025444 -2.264017 -1.827455 0
M  V30 25 C 0.368309 -2.147113 -1.323138 0 CFG=2
M  V30 26 C 1.004035 -0.962451 -1.979586 0
M  V30 27 C 2.491406 -0.885282 -1.780529 0
M  V30 28 C 3.191868 -2.205768 -1.950928 0 CFG=2
M  V30 29 O 3.133485 -2.652515 -3.269154 0
M  V30 30 C 2.529848 -3.204709 -1.023913 0 CFG=2
M  V30 31 N 3.266994 -4.446933 -0.918695 0
M  V30 32 C 1.128110 -3.431857 -1.569164 0
M  V30 33 H -1.242062 -3.544856 3.565986 0
M  V30 34 H -2.841752 -3.011675 4.115621 0
M  V30 35 H -1.322582 -1.145273 5.824933 0
M  V30 36 H -0.284705 3.425007 5.383287 0
M  V30 37 H 0.218044 5.727048 4.934115 0
M  V30 38 H 0.202321 6.536515 2.592744 0
M  V30 39 H -0.315603 5.001050 0.821326 0
M  V30 40 H -1.531430 0.180297 -0.087242 0
M  V30 41 H -4.143276 -1.127995 -0.986963 0
M  V30 42 H -2.985960 -3.623916 -4.220767 0
M  V30 43 H -0.619246 -3.509964 -3.483533 0
M  V30 44 H 0.292753 -2.037702 -0.219290 0
M  V30 45 H 0.569377 -0.045511 -1.483868 0
M  V30 46 H 0.691346 -0.910833 -3.036599 0
M  V30 47 H 2.760594 -0.466595 -0.805685 0
M  V30 48 H 2.892324 -0.195959 -2.560770 0
M  V30 49 H 4.236123 -2.050812 -1.605033 0
M  V30 50 H 2.975672 -1.846954 -3.822319 0
M  V30 51 H 2.477670 -2.754434 -0.022652 0
M  V30 52 H 4.026788 -4.296352 -0.240134 0
M  V30 53 H 3.544454 -4.840235 -1.832560 0
M  V30 54 H 0.634605 -4.227171 -0.966392 0
M  V30 55 H 1.233194 -3.680753 -2.640096 0
M  V30 END ATOM
M  V30 BEGIN BOND
M  V30 1 1 1 2
M  V30 2 2 2 3
M  V30 3 1 3 4
M  V30 4 1 4 5
M  V30 5 2 4 6
M  V30 6 1 6 7
M  V30 7 2 7 8
M  V30 8 1 8 9
M  V30 9 2 9 10
M  V30 10 1 10 11
M  V30 11 2 11 12
M  V30 12 1 12 13
M  V30 13 1 6 14
M  V30 14 2 14 15
M  V30 15 1 15 16
M  V30 16 2 16 17
M  V30 17 1 16 18
M  V30 18 1 18 19
M  V30 19 2 19 20
M  V30 20 1 20 21
M  V30 21 2 21 22
M  V30 22 1 22 23
M  V30 23 2 23 24
M  V30 24 1 24 25
M  V30 25 1 25 26
M  V30 26 1 26 27
M  V30 27 1 27 28
M  V30 28 1 28 29
M  V30 29 1 28 30
M  V30 30 1 30 31
M  V30 31 1 30 32
M  V30 32 1 15 2
M  V30 33 1 24 19
M  V30 34 1 32 25
M  V30 35 1 12 7
M  V30 36 1 1 33
M  V30 37 1 1 34
M  V30 38 1 3 35
M  V30 39 1 8 36
M  V30 40 1 9 37
M  V30 41 1 10 38
M  V30 42 1 11 39
M  V30 43 1 18 40
M  V30 44 1 20 41
M  V30 45 1 22 42
M  V30 46 1 23 43
M  V30 47 1 25 44 CFG=1
M  V30 48 1 26 45
M  V30 49 1 26 46
M  V30 50 1 27 47
M  V30 51 1 27 48
M  V30 52 1 28 49 CFG=1
M  V30 53 1 29 50
M  V30 54 1 30 51 CFG=1
M  V30 55 1 31 52
M  V30 56 1 31 53
M  V30 57 1 32 54
M  V30 58 1 32 55
M  V30 END BOND
M  V30 END CTAB
M  END
>  <Dataset>  (446) 
ChEMBL_Kinases

>  <Ligand_Instance>  (446) 
nan

>  <PDB_ID>  (446) 
nan

>  <Standardized_SMILES>  (446) 
Nc1cc(F)c(-c2ccccc2F)nc1C(=O)Nc1cnccc1[C@@H]1CC[C@H](O)[C@H](N)C1

>  <Name>  (446) 
nan

>  <Pocket>  (446) 
nan

>  <ATP_Site>  (446) 
nan

>  <Peripheral>  (446) 
nan

>  <Num_H_Atoms_ProtBoundConf>  (446) 
nan

>  <Num_Resolved_Atoms>  (446) 
nan

>  <Num_Not_Resolved_Atoms>  (446) 
nan

$$$$
CHEMBL3651963
     RDKit          3D

  0  0  0  0  0  0  0  0  0  0999 V3000
M  V30 BEGIN CTAB
M  V30 COUNTS 65 68 0 0 0
M  V30 BEGIN ATOM
M  V30 1 C 2.525633 -1.023805 5.335838 0
M  V30 2 C 3.343737 -0.705725 4.059080 0
M  V30 3 C 3.138975 -1.771431 3.049472 0
M  V30 4 O 3.723440 -1.653799 1.812137 0
M  V30 5 C 3.560810 -0.667358 0.858500 0
M  V30 6 C 4.314416 -0.918644 -0.305006 0
M  V30 7 C 4.292902 -0.065902 -1.400685 0
M  V30 8 C 3.493411 1.027145 -1.255545 0
M  V30 9 F 3.377046 1.999372 -2.228855 0
M  V30 10 C 2.721591 1.391573 -0.191350 0
M  V30 11 C 1.656266 2.340780 0.079752 0
M  V30 12 N 0.375411 1.931870 0.018188 0
M  V30 13 C -0.687639 2.715485 0.065042 0
M  V30 14 C -2.067500 2.248190 0.013368 0
M  V30 15 O -3.095074 2.828456 -0.382155 0
M  V30 16 N -2.154187 0.898062 0.540283 0
M  V30 17 C -3.123828 -0.159332 0.795907 0
M  V30 18 C -3.938274 0.130409 1.904325 0
M  V30 19 N -4.869109 -0.833432 2.191691 0
M  V30 20 C -4.939269 -1.944316 1.425376 0
M  V30 21 C -4.143721 -2.221440 0.345367 0
M  V30 22 C -3.177474 -1.293864 -0.000609 0
M  V30 23 C -2.189583 -1.419125 -1.086675 0 CFG=2
M  V30 24 C -2.698379 -1.880260 -2.393489 0
M  V30 25 C -2.732244 -3.344013 -2.628938 0
M  V30 26 C -1.671732 -4.153540 -1.996410 0 CFG=2
M  V30 27 O -2.194817 -5.444452 -1.710015 0
M  V30 28 C -1.124598 -3.645674 -0.687045 0 CFG=2
M  V30 29 N -1.876941 -4.052488 0.460853 0
M  V30 30 C -0.952058 -2.176555 -0.716143 0
M  V30 31 C -0.393055 4.053495 0.182312 0
M  V30 32 N -1.490038 4.959626 0.204119 0
M  V30 33 C 0.909095 4.584934 0.257288 0
M  V30 34 C 1.967056 3.681402 0.206699 0
M  V30 35 F 3.215942 4.185336 0.274148 0
M  V30 36 C 2.782763 0.496959 0.880370 0
M  V30 37 H 2.242340 -2.090327 5.309104 0
M  V30 38 H 1.645032 -0.326556 5.392185 0
M  V30 39 H 3.144610 -0.830774 6.215193 0
M  V30 40 H 3.091397 0.310682 3.802188 0
M  V30 41 H 4.422892 -0.700574 4.412396 0
M  V30 42 H 3.590872 -2.719660 3.516179 0
M  V30 43 H 2.052576 -2.002427 2.979500 0
M  V30 44 H 4.946557 -1.802601 -0.444353 0
M  V30 45 H 4.800991 -0.123508 -2.338173 0
M  V30 46 H -1.328482 0.373078 0.906058 0
M  V30 47 H -3.863151 1.015468 2.509724 0
M  V30 48 H -5.701997 -2.679583 1.688398 0
M  V30 49 H -4.274109 -3.119605 -0.242064 0
M  V30 50 H -1.810903 -0.345188 -1.290297 0
M  V30 51 H -3.707754 -1.456318 -2.653813 0
M  V30 52 H -2.032052 -1.445683 -3.183844 0
M  V30 53 H -3.719478 -3.824225 -2.437700 0
M  V30 54 H -2.612074 -3.494953 -3.762217 0
M  V30 55 H -0.831441 -4.366447 -2.700493 0
M  V30 56 H -1.559351 -6.153608 -1.911858 0
M  V30 57 H -0.059081 -4.088317 -0.645399 0
M  V30 58 H -2.227900 -5.034517 0.323446 0
M  V30 59 H -1.270763 -3.946667 1.308221 0
M  V30 60 H -0.462325 -1.790428 0.207062 0
M  V30 61 H -0.184211 -1.944497 -1.536633 0
M  V30 62 H -2.006901 5.729036 0.694831 0
M  V30 63 H -2.113986 4.867125 -0.646131 0
M  V30 64 H 1.042777 5.679621 0.362660 0
M  V30 65 H 2.225873 0.605710 1.793428 0
M  V30 END ATOM
M  V30 BEGIN BOND
M  V30 1 1 1 2
M  V30 2 1 2 3
M  V30 3 1 3 4
M  V30 4 1 4 5
M  V30 5 2 5 6
M  V30 6 1 6 7
M  V30 7 2 7 8
M  V30 8 1 8 9
M  V30 9 1 8 10
M  V30 10 1 10 11
M  V30 11 2 11 12
M  V30 12 1 12 13
M  V30 13 1 13 14
M  V30 14 2 14 15
M  V30 15 1 14 16
M  V30 16 1 16 17
M  V30 17 2 17 18
M  V30 18 1 18 19
M  V30 19 2 19 20
M  V30 20 1 20 21
M  V30 21 2 21 22
M  V30 22 1 22 23
M  V30 23 1 23 24
M  V30 24 1 24 25
M  V30 25 1 25 26
M  V30 26 1 26 27
M  V30 27 1 26 28
M  V30 28 1 28 29
M  V30 29 1 28 30
M  V30 30 2 13 31
M  V30 31 1 31 32
M  V30 32 1 31 33
M  V30 33 2 33 34
M  V30 34 1 34 35
M  V30 35 2 10 36
M  V30 36 1 36 5
M  V30 37 1 34 11
M  V30 38 1 22 17
M  V30 39 1 30 23
M  V30 40 1 1 37
M  V30 41 1 1 38
M  V30 42 1 1 39
M  V30 43 1 2 40
M  V30 44 1 2 41
M  V30 45 1 3 42
M  V30 46 1 3 43
M  V30 47 1 6 44
M  V30 48 1 7 45
M  V30 49 1 16 46
M  V30 50 1 18 47
M  V30 51 1 20 48
M  V30 52 1 21 49
M  V30 53 1 23 50 CFG=3
M  V30 54 1 24 51
M  V30 55 1 24 52
M  V30 56 1 25 53
M  V30 57 1 25 54
M  V30 58 1 26 55 CFG=3
M  V30 59 1 27 56
M  V30 60 1 28 57 CFG=1
M  V30 61 1 29 58
M  V30 62 1 29 59
M  V30 63 1 30 60
M  V30 64 1 30 61
M  V30 65 1 32 62
M  V30 66 1 32 63
M  V30 67 1 33 64
M  V30 68 1 36 65
M  V30 END BOND
M  V30 END CTAB
M  END
>  <Dataset>  (447) 
ChEMBL_Kinases

>  <Ligand_Instance>  (447) 
nan

>  <PDB_ID>  (447) 
nan

>  <Standardized_SMILES>  (447) 
CCCOc1ccc(F)c(-c2nc(C(=O)Nc3cnccc3[C@@H]3CC[C@H](O)[C@H](N)C3)c(N)cc2F)c1

>  <Name>  (447) 
nan

>  <Pocket>  (447) 
nan

>  <ATP_Site>  (447) 
nan

>  <Peripheral>  (447) 
nan

>  <Num_H_Atoms_ProtBoundConf>  (447) 
nan

>  <Num_Resolved_Atoms>  (447) 
nan

>  <Num_Not_Resolved_Atoms>  (447) 
nan

$$$$
CHEMBL3651964
     RDKit          3D

  0  0  0  0  0  0  0  0  0  0999 V3000
M  V30 BEGIN CTAB
M  V30 COUNTS 65 68 0 0 0
M  V30 BEGIN ATOM
M  V30 1 C 2.035158 -3.633918 2.884773 0
M  V30 2 C 2.700543 -2.269599 2.880795 0
M  V30 3 C 3.600047 -2.195788 1.698129 0
M  V30 4 O 4.304697 -1.005651 1.523028 0
M  V30 5 C 3.814445 0.247239 1.309505 0
M  V30 6 C 4.890606 1.139547 1.208805 0
M  V30 7 C 4.648143 2.502710 0.986067 0
M  V30 8 C 3.334151 2.906662 0.874686 0
M  V30 9 F 3.130700 4.209273 0.663067 0
M  V30 10 C 2.252472 2.066155 0.966817 0
M  V30 11 C 0.852718 2.428232 0.858932 0
M  V30 12 C 0.320100 3.650386 0.648859 0
M  V30 13 C -1.021385 3.949675 0.553130 0
M  V30 14 C -1.936149 2.903202 0.682872 0
M  V30 15 N -3.333959 3.144779 0.594088 0
M  V30 16 C -1.388229 1.659983 0.896782 0
M  V30 17 C -2.364701 0.589727 1.027993 0
M  V30 18 O -3.598120 0.823310 0.947054 0
M  V30 19 N -1.864621 -0.726705 1.251121 0
M  V30 20 C -2.240333 -2.075618 1.446001 0
M  V30 21 C -2.494173 -2.314425 2.799336 0
M  V30 22 N -2.854555 -3.531219 3.252298 0
M  V30 23 C -2.971478 -4.545018 2.364386 0
M  V30 24 C -2.717981 -4.293182 1.035408 0
M  V30 25 C -2.339838 -3.045738 0.510152 0
M  V30 26 C -2.069403 -2.759968 -0.912779 0 CFG=2
M  V30 27 C -0.610219 -2.682977 -1.245095 0
M  V30 28 C -0.095007 -1.380373 -1.722567 0
M  V30 29 C -0.988454 -0.575136 -2.589095 0 CFG=2
M  V30 30 O -1.007941 0.787021 -2.204385 0
M  V30 31 C -2.364955 -1.068154 -2.748345 0 CFG=2
M  V30 32 N -3.228294 0.094653 -3.016143 0
M  V30 33 C -2.974937 -1.823110 -1.607990 0
M  V30 34 N -0.080829 1.467314 0.974641 0
M  V30 35 C 2.549236 0.753744 1.183330 0
M  V30 36 H 1.634144 -3.910349 1.897201 0
M  V30 37 H 2.750875 -4.428860 3.210217 0
M  V30 38 H 1.195230 -3.646195 3.602075 0
M  V30 39 H 3.339435 -2.239080 3.812138 0
M  V30 40 H 1.922993 -1.527950 2.982943 0
M  V30 41 H 4.379648 -3.005954 1.852710 0
M  V30 42 H 3.077650 -2.524186 0.765013 0
M  V30 43 H 5.968416 0.911465 1.283955 0
M  V30 44 H 5.462789 3.234102 0.901087 0
M  V30 45 H 0.963359 4.487436 0.541863 0
M  V30 46 H -1.382729 4.952322 0.383546 0
M  V30 47 H -3.846395 3.433599 1.468436 0
M  V30 48 H -3.456130 2.942176 -0.426870 0
M  V30 49 H -0.807965 -0.857713 1.312224 0
M  V30 50 H -2.438993 -1.598765 3.615448 0
M  V30 51 H -3.254528 -5.556985 2.626455 0
M  V30 52 H -2.810863 -5.113085 0.306075 0
M  V30 53 H -2.336105 -3.778137 -1.380110 0
M  V30 54 H -0.073303 -2.898294 -0.272941 0
M  V30 55 H -0.236530 -3.474245 -1.925170 0
M  V30 56 H 0.202767 -0.736799 -0.847818 0
M  V30 57 H 0.897992 -1.570312 -2.219484 0
M  V30 58 H -0.518834 -0.521209 -3.617106 0
M  V30 59 H -0.048794 0.966987 -1.945497 0
M  V30 60 H -2.444391 -1.665363 -3.704410 0
M  V30 61 H -4.227077 -0.131753 -2.989660 0
M  V30 62 H -2.888842 0.686246 -3.779789 0
M  V30 63 H -3.526106 -1.102648 -0.969581 0
M  V30 64 H -3.854087 -2.347802 -2.113501 0
M  V30 65 H 1.787858 0.016514 1.259687 0
M  V30 END ATOM
M  V30 BEGIN BOND
M  V30 1 1 1 2
M  V30 2 1 2 3
M  V30 3 1 3 4
M  V30 4 1 4 5
M  V30 5 2 5 6
M  V30 6 1 6 7
M  V30 7 2 7 8
M  V30 8 1 8 9
M  V30 9 1 8 10
M  V30 10 1 10 11
M  V30 11 2 11 12
M  V30 12 1 12 13
M  V30 13 2 13 14
M  V30 14 1 14 15
M  V30 15 1 14 16
M  V30 16 1 16 17
M  V30 17 2 17 18
M  V30 18 1 17 19
M  V30 19 1 19 20
M  V30 20 2 20 21
M  V30 21 1 21 22
M  V30 22 2 22 23
M  V30 23 1 23 24
M  V30 24 2 24 25
M  V30 25 1 25 26
M  V30 26 1 26 27
M  V30 27 1 27 28
M  V30 28 1 28 29
M  V30 29 1 29 30
M  V30 30 1 29 31
M  V30 31 1 31 32
M  V30 32 1 31 33
M  V30 33 2 16 34
M  V30 34 2 10 35
M  V30 35 1 35 5
M  V30 36 1 34 11
M  V30 37 1 25 20
M  V30 38 1 33 26
M  V30 39 1 1 36
M  V30 40 1 1 37
M  V30 41 1 1 38
M  V30 42 1 2 39
M  V30 43 1 2 40
M  V30 44 1 3 41
M  V30 45 1 3 42
M  V30 46 1 6 43
M  V30 47 1 7 44
M  V30 48 1 12 45
M  V30 49 1 13 46
M  V30 50 1 15 47
M  V30 51 1 15 48
M  V30 52 1 19 49
M  V30 53 1 21 50
M  V30 54 1 23 51
M  V30 55 1 24 52
M  V30 56 1 26 53 CFG=3
M  V30 57 1 27 54
M  V30 58 1 27 55
M  V30 59 1 28 56
M  V30 60 1 28 57
M  V30 61 1 29 58 CFG=3
M  V30 62 1 30 59
M  V30 63 1 31 60 CFG=3
M  V30 64 1 32 61
M  V30 65 1 32 62
M  V30 66 1 33 63
M  V30 67 1 33 64
M  V30 68 1 35 65
M  V30 END BOND
M  V30 END CTAB
M  END
>  <Dataset>  (448) 
ChEMBL_Kinases

>  <Ligand_Instance>  (448) 
nan

>  <PDB_ID>  (448) 
nan

>  <Standardized_SMILES>  (448) 
CCCOc1ccc(F)c(-c2ccc(N)c(C(=O)Nc3cnccc3[C@@H]3CC[C@H](O)[C@H](N)C3)n2)c1

>  <Name>  (448) 
nan

>  <Pocket>  (448) 
nan

>  <ATP_Site>  (448) 
nan

>  <Peripheral>  (448) 
nan

>  <Num_H_Atoms_ProtBoundConf>  (448) 
nan

>  <Num_Resolved_Atoms>  (448) 
nan

>  <Num_Not_Resolved_Atoms>  (448) 
nan

$$$$
CHEMBL3651965
     RDKit          3D

  0  0  0  0  0  0  0  0  0  0999 V3000
M  V30 BEGIN CTAB
M  V30 COUNTS 55 58 0 0 0
M  V30 BEGIN ATOM
M  V30 1 C 5.379732 0.208493 -0.377344 0
M  V30 2 C 4.490139 0.636105 0.772853 0 CFG=2
M  V30 3 C 4.154558 -0.476408 1.694341 0
M  V30 4 C 2.654571 -0.594738 1.818780 0 CFG=2
M  V30 5 N 2.232461 -1.788565 2.521604 0
M  V30 6 C 2.157301 -0.686419 0.361912 0
M  V30 7 C 2.115198 0.713238 -0.120874 0 CFG=2
M  V30 8 C 1.666765 0.921854 -1.509818 0
M  V30 9 C 2.469033 0.920097 -2.630420 0
M  V30 10 C 2.039837 1.124496 -3.924255 0
M  V30 11 N 0.731654 1.347487 -4.145615 0
M  V30 12 C -0.127657 1.368878 -3.128987 0
M  V30 13 C 0.327163 1.161332 -1.843094 0
M  V30 14 N -0.662147 1.208461 -0.822761 0
M  V30 15 C -1.419013 0.072512 -0.433071 0
M  V30 16 O -1.108832 -0.959564 -1.097167 0
M  V30 17 C -2.437505 -0.034622 0.569913 0
M  V30 18 N -2.987843 -1.274749 0.705845 0
M  V30 19 C -3.968247 -1.494365 1.631786 0
M  V30 20 C -4.513727 -2.858433 1.718773 0
M  V30 21 C -3.937758 -3.790256 2.570687 0
M  V30 22 F -2.858519 -3.439819 3.331641 0
M  V30 23 C -4.431975 -5.087614 2.674742 0
M  V30 24 C -5.532979 -5.443279 1.897307 0
M  V30 25 C -6.115494 -4.511254 1.040006 0
M  V30 26 C -5.612298 -3.208464 0.941080 0
M  V30 27 F -6.159921 -2.284040 0.115616 0
M  V30 28 C -4.476625 -0.542759 2.478219 0
M  V30 29 C -3.919178 0.706240 2.338021 0
M  V30 30 C -2.934579 0.919067 1.405384 0
M  V30 31 F -2.418874 2.145842 1.300310 0
M  V30 32 C 3.366518 1.449754 0.244213 0
M  V30 33 H 4.952998 -0.636243 -0.952542 0
M  V30 34 H 6.377118 -0.083905 0.013619 0
M  V30 35 H 5.499273 1.036398 -1.105764 0
M  V30 36 H 5.135840 1.353413 1.378118 0
M  V30 37 H 4.653241 -0.416972 2.683320 0
M  V30 38 H 4.489208 -1.449402 1.229283 0
M  V30 39 H 2.237533 0.306369 2.327644 0
M  V30 40 H 1.408941 -1.580513 3.144220 0
M  V30 41 H 2.976168 -2.166545 3.161477 0
M  V30 42 H 1.118406 -1.090992 0.467017 0
M  V30 43 H 2.835506 -1.376431 -0.132648 0
M  V30 44 H 1.300633 1.211601 0.503683 0
M  V30 45 H 3.527470 0.745498 -2.505770 0
M  V30 46 H 2.763058 1.103882 -4.754764 0
M  V30 47 H -1.173086 1.550182 -3.334443 0
M  V30 48 H -0.863170 2.097778 -0.321981 0
M  V30 49 H -3.985954 -5.828996 3.342203 0
M  V30 50 H -5.949869 -6.460704 1.954364 0
M  V30 51 H -6.977203 -4.749438 0.415294 0
M  V30 52 H -5.242855 -0.756876 3.187156 0
M  V30 53 H -4.261770 1.519946 2.967839 0
M  V30 54 H 3.792369 2.011292 -0.638948 0
M  V30 55 H 3.169471 2.291211 0.979243 0
M  V30 END ATOM
M  V30 BEGIN BOND
M  V30 1 1 1 2
M  V30 2 1 2 3
M  V30 3 1 3 4
M  V30 4 1 4 5
M  V30 5 1 4 6
M  V30 6 1 6 7
M  V30 7 1 7 8
M  V30 8 2 8 9
M  V30 9 1 9 10
M  V30 10 2 10 11
M  V30 11 1 11 12
M  V30 12 2 12 13
M  V30 13 1 13 14
M  V30 14 1 14 15
M  V30 15 2 15 16
M  V30 16 1 15 17
M  V30 17 2 17 18
M  V30 18 1 18 19
M  V30 19 1 19 20
M  V30 20 2 20 21
M  V30 21 1 21 22
M  V30 22 1 21 23
M  V30 23 2 23 24
M  V30 24 1 24 25
M  V30 25 2 25 26
M  V30 26 1 26 27
M  V30 27 2 19 28
M  V30 28 1 28 29
M  V30 29 2 29 30
M  V30 30 1 30 31
M  V30 31 1 7 32
M  V30 32 1 32 2
M  V30 33 1 13 8
M  V30 34 1 30 17
M  V30 35 1 26 20
M  V30 36 1 1 33
M  V30 37 1 1 34
M  V30 38 1 1 35
M  V30 39 1 2 36 CFG=1
M  V30 40 1 3 37
M  V30 41 1 3 38
M  V30 42 1 4 39 CFG=1
M  V30 43 1 5 40
M  V30 44 1 5 41
M  V30 45 1 6 42
M  V30 46 1 6 43
M  V30 47 1 7 44 CFG=1
M  V30 48 1 9 45
M  V30 49 1 10 46
M  V30 50 1 12 47
M  V30 51 1 14 48
M  V30 52 1 23 49
M  V30 53 1 24 50
M  V30 54 1 25 51
M  V30 55 1 28 52
M  V30 56 1 29 53
M  V30 57 1 32 54
M  V30 58 1 32 55
M  V30 END BOND
M  V30 END CTAB
M  END
>  <Dataset>  (449) 
ChEMBL_Kinases

>  <Ligand_Instance>  (449) 
nan

>  <PDB_ID>  (449) 
nan

>  <Standardized_SMILES>  (449) 
C[C@@H]1C[C@H](N)C[C@H](c2ccncc2NC(=O)c2nc(-c3c(F)cccc3F)ccc2F)C1

>  <Name>  (449) 
nan

>  <Pocket>  (449) 
nan

>  <ATP_Site>  (449) 
nan

>  <Peripheral>  (449) 
nan

>  <Num_H_Atoms_ProtBoundConf>  (449) 
nan

>  <Num_Resolved_Atoms>  (449) 
nan

>  <Num_Not_Resolved_Atoms>  (449) 
nan

$$$$
CHEMBL3651956
     RDKit          3D

  0  0  0  0  0  0  0  0  0  0999 V3000
M  V30 BEGIN CTAB
M  V30 COUNTS 55 58 0 0 0
M  V30 BEGIN ATOM
M  V30 1 C 1.763722 -2.891529 0.015612 0
M  V30 2 C 2.599405 -1.713650 0.509231 0 CFG=2
M  V30 3 C 2.475814 -1.562592 1.991585 0
M  V30 4 C 2.691479 -0.202319 2.545630 0 CFG=2
M  V30 5 N 2.342066 -0.129980 3.930859 0
M  V30 6 C 1.708384 0.709001 1.784715 0
M  V30 7 C 2.263852 0.780119 0.393898 0 CFG=2
M  V30 8 C 1.856570 1.933539 -0.407574 0
M  V30 9 C 2.772749 2.969221 -0.690644 0
M  V30 10 C 2.593365 4.127555 -1.454161 0
M  V30 11 N 1.348065 4.239585 -1.983751 0
M  V30 12 C 0.424670 3.278093 -1.746963 0
M  V30 13 C 0.631275 2.148574 -0.989917 0
M  V30 14 N -0.407830 1.210730 -0.795518 0
M  V30 15 C -1.711382 1.142649 -1.346958 0
M  V30 16 O -2.037495 2.052537 -2.157620 0
M  V30 17 C -2.734627 0.136009 -1.087711 0
M  V30 18 C -3.945832 0.226979 -1.740005 0
M  V30 19 C -4.957121 -0.688538 -1.547232 0
M  V30 20 C -4.665982 -1.695903 -0.657203 0
M  V30 21 F -5.653429 -2.596232 -0.463481 0
M  V30 22 C -3.480683 -1.834915 0.018589 0
M  V30 23 C -3.134213 -2.872787 0.966096 0
M  V30 24 C -3.901751 -3.931224 1.371709 0
M  V30 25 C -3.544247 -4.905665 2.276542 0
M  V30 26 C -2.287372 -4.826733 2.845089 0
M  V30 27 C -1.472852 -3.775030 2.467854 0
M  V30 28 F -0.266917 -3.779780 3.075229 0
M  V30 29 C -1.889895 -2.828740 1.554372 0
M  V30 30 F -1.018426 -1.837243 1.252176 0
M  V30 31 N -2.573038 -0.882563 -0.251901 0
M  V30 32 C 2.397717 -0.519620 -0.328258 0
M  V30 33 H 2.368215 -3.686310 -0.440941 0
M  V30 34 H 1.116638 -2.496782 -0.793660 0
M  V30 35 H 1.179074 -3.342725 0.840970 0
M  V30 36 H 3.669685 -2.066403 0.363060 0
M  V30 37 H 3.160562 -2.252286 2.550132 0
M  V30 38 H 1.457963 -1.882049 2.292580 0
M  V30 39 H 3.702025 0.132062 2.286186 0
M  V30 40 H 2.152797 0.877614 4.158425 0
M  V30 41 H 3.123584 -0.428216 4.556784 0
M  V30 42 H 1.745489 1.720741 2.224007 0
M  V30 43 H 0.742985 0.238604 1.909979 0
M  V30 44 H 3.379418 1.021115 0.633076 0
M  V30 45 H 3.791462 2.926229 -0.286757 0
M  V30 46 H 3.371194 4.848160 -1.599307 0
M  V30 47 H -0.477052 3.571930 -2.254271 0
M  V30 48 H -0.334013 0.393353 -0.156416 0
M  V30 49 H -4.168169 1.039780 -2.452063 0
M  V30 50 H -5.906530 -0.619143 -2.057342 0
M  V30 51 H -4.887610 -4.036886 0.957805 0
M  V30 52 H -4.207156 -5.704405 2.540624 0
M  V30 53 H -2.000806 -5.582834 3.551627 0
M  V30 54 H 1.524577 -0.653991 -0.986230 0
M  V30 55 H 3.254712 -0.438039 -1.081308 0
M  V30 END ATOM
M  V30 BEGIN BOND
M  V30 1 1 1 2
M  V30 2 1 2 3
M  V30 3 1 3 4
M  V30 4 1 4 5
M  V30 5 1 4 6
M  V30 6 1 6 7
M  V30 7 1 7 8
M  V30 8 2 8 9
M  V30 9 1 9 10
M  V30 10 2 10 11
M  V30 11 1 11 12
M  V30 12 2 12 13
M  V30 13 1 13 14
M  V30 14 1 14 15
M  V30 15 2 15 16
M  V30 16 1 15 17
M  V30 17 2 17 18
M  V30 18 1 18 19
M  V30 19 2 19 20
M  V30 20 1 20 21
M  V30 21 1 20 22
M  V30 22 1 22 23
M  V30 23 2 23 24
M  V30 24 1 24 25
M  V30 25 2 25 26
M  V30 26 1 26 27
M  V30 27 1 27 28
M  V30 28 2 27 29
M  V30 29 1 29 30
M  V30 30 2 22 31
M  V30 31 1 7 32
M  V30 32 1 32 2
M  V30 33 1 13 8
M  V30 34 1 31 17
M  V30 35 1 29 23
M  V30 36 1 1 33
M  V30 37 1 1 34
M  V30 38 1 1 35
M  V30 39 1 2 36 CFG=1
M  V30 40 1 3 37
M  V30 41 1 3 38
M  V30 42 1 4 39 CFG=1
M  V30 43 1 5 40
M  V30 44 1 5 41
M  V30 45 1 6 42
M  V30 46 1 6 43
M  V30 47 1 7 44 CFG=1
M  V30 48 1 9 45
M  V30 49 1 10 46
M  V30 50 1 12 47
M  V30 51 1 14 48
M  V30 52 1 18 49
M  V30 53 1 19 50
M  V30 54 1 24 51
M  V30 55 1 25 52
M  V30 56 1 26 53
M  V30 57 1 32 54
M  V30 58 1 32 55
M  V30 END BOND
M  V30 END CTAB
M  END
>  <Dataset>  (450) 
ChEMBL_Kinases

>  <Ligand_Instance>  (450) 
nan

>  <PDB_ID>  (450) 
nan

>  <Standardized_SMILES>  (450) 
C[C@@H]1C[C@H](N)C[C@H](c2ccncc2NC(=O)c2ccc(F)c(-c3cccc(F)c3F)n2)C1

>  <Name>  (450) 
nan

>  <Pocket>  (450) 
nan

>  <ATP_Site>  (450) 
nan

>  <Peripheral>  (450) 
nan

>  <Num_H_Atoms_ProtBoundConf>  (450) 
nan

>  <Num_Resolved_Atoms>  (450) 
nan

>  <Num_Not_Resolved_Atoms>  (450) 
nan

$$$$
CHEMBL4071823
     RDKit          3D

  0  0  0  0  0  0  0  0  0  0999 V3000
M  V30 BEGIN CTAB
M  V30 COUNTS 64 68 0 0 0
M  V30 BEGIN ATOM
M  V30 1 C 7.665394 2.002811 6.004256 0
M  V30 2 O 7.431136 3.148559 5.193726 0
M  V30 3 C 6.804613 3.039093 3.960790 0
M  V30 4 C 6.550027 4.113203 3.134869 0
M  V30 5 C 5.922165 3.991893 1.903328 0
M  V30 6 C 5.527105 2.746997 1.468284 0
M  V30 7 N 4.904453 2.292601 0.343600 0
M  V30 8 C 4.746214 0.960750 0.411224 0
M  V30 9 C 4.145404 -0.064189 -0.492398 0
M  V30 10 N 2.753195 -0.278624 -0.194595 0
M  V30 11 C 1.698983 0.665203 -0.241628 0
M  V30 12 O 2.025519 1.839801 -0.593943 0
M  V30 13 C 0.308832 0.375268 0.080951 0
M  V30 14 C -0.156084 -0.858874 0.486361 0
M  V30 15 C -1.475473 -1.133623 0.799254 0
M  V30 16 C -2.396893 -0.091949 0.697371 0
M  V30 17 C -3.769099 -0.448556 1.051217 0
M  V30 18 C -4.319635 0.527373 1.895335 0
M  V30 19 N -5.591066 0.371270 2.351261 0
M  V30 20 C -6.324819 -0.701365 2.005111 0
M  V30 21 C -5.770308 -1.648053 1.176806 0
M  V30 22 C -4.497226 -1.575341 0.668387 0
M  V30 23 O -3.734542 -2.341080 -0.137786 0
M  V30 24 C -4.040892 -3.533297 -0.750437 0
M  V30 25 C -5.165857 -3.555797 -1.722344 0
M  V30 26 C -4.969109 -2.622749 -2.910619 0
M  V30 27 C -3.694937 -2.916338 -3.619570 0
M  V30 28 N -3.414836 -4.270710 -3.910767 0
M  V30 29 C -3.948027 -5.268566 -3.059144 0
M  V30 30 C -5.203656 -4.954487 -2.332898 0
M  V30 31 C -1.987248 1.161700 0.296125 0
M  V30 32 C -0.635979 1.375100 -0.006481 0
M  V30 33 N 5.277446 0.591458 1.590260 0
M  V30 34 C 5.767228 1.628916 2.277398 0
M  V30 35 C 6.399387 1.794584 3.504613 0
M  V30 36 H 8.131735 1.231837 5.358971 0
M  V30 37 H 6.706375 1.577204 6.382625 0
M  V30 38 H 8.396421 2.210560 6.805242 0
M  V30 39 H 6.858862 5.105530 3.470298 0
M  V30 40 H 5.729763 4.839292 1.268075 0
M  V30 41 H 4.303272 0.237664 -1.557115 0
M  V30 42 H 4.681057 -1.021334 -0.388217 0
M  V30 43 H 2.430251 -1.247692 0.100981 0
M  V30 44 H 0.530474 -1.683692 0.574741 0
M  V30 45 H -1.775776 -2.139059 1.115071 0
M  V30 46 H -3.836438 1.426822 2.242424 0
M  V30 47 H -7.342323 -0.897650 2.324076 0
M  V30 48 H -6.297872 -2.535321 0.867274 0
M  V30 49 H -3.140184 -3.984011 -1.229941 0
M  V30 50 H -4.323305 -4.266853 0.064467 0
M  V30 51 H -6.151413 -3.346744 -1.299787 0
M  V30 52 H -5.823118 -2.849552 -3.597462 0
M  V30 53 H -4.954932 -1.566597 -2.612073 0
M  V30 54 H -3.733561 -2.347835 -4.595589 0
M  V30 55 H -2.857319 -2.456857 -3.056091 0
M  V30 56 H -3.219977 -4.531620 -4.881976 0
M  V30 57 H -3.213776 -5.679049 -2.331978 0
M  V30 58 H -4.190773 -6.155463 -3.730649 0
M  V30 59 H -6.082181 -4.991329 -3.012568 0
M  V30 60 H -5.303024 -5.684121 -1.491878 0
M  V30 61 H -2.733864 1.925182 0.231846 0
M  V30 62 H -0.318923 2.359766 -0.321189 0
M  V30 63 H 5.344747 -0.371355 2.004996 0
M  V30 64 H 6.564854 0.893917 4.101220 0
M  V30 END ATOM
M  V30 BEGIN BOND
M  V30 1 1 1 2
M  V30 2 1 2 3
M  V30 3 2 3 4
M  V30 4 1 4 5
M  V30 5 2 5 6
M  V30 6 1 6 7
M  V30 7 2 7 8
M  V30 8 1 8 9
M  V30 9 1 9 10
M  V30 10 1 10 11
M  V30 11 2 11 12
M  V30 12 1 11 13
M  V30 13 2 13 14
M  V30 14 1 14 15
M  V30 15 2 15 16
M  V30 16 1 16 17
M  V30 17 2 17 18
M  V30 18 1 18 19
M  V30 19 2 19 20
M  V30 20 1 20 21
M  V30 21 2 21 22
M  V30 22 1 22 23
M  V30 23 1 23 24
M  V30 24 1 24 25
M  V30 25 1 25 26
M  V30 26 1 26 27
M  V30 27 1 27 28
M  V30 28 1 28 29
M  V30 29 1 29 30
M  V30 30 1 16 31
M  V30 31 2 31 32
M  V30 32 1 8 33
M  V30 33 1 33 34
M  V30 34 2 34 35
M  V30 35 1 35 3
M  V30 36 1 34 6
M  V30 37 1 32 13
M  V30 38 1 22 17
M  V30 39 1 30 25
M  V30 40 1 1 36
M  V30 41 1 1 37
M  V30 42 1 1 38
M  V30 43 1 4 39
M  V30 44 1 5 40
M  V30 45 1 9 41
M  V30 46 1 9 42
M  V30 47 1 10 43
M  V30 48 1 14 44
M  V30 49 1 15 45
M  V30 50 1 18 46
M  V30 51 1 20 47
M  V30 52 1 21 48
M  V30 53 1 24 49
M  V30 54 1 24 50
M  V30 55 1 25 51
M  V30 56 1 26 52
M  V30 57 1 26 53
M  V30 58 1 27 54
M  V30 59 1 27 55
M  V30 60 1 28 56
M  V30 61 1 29 57
M  V30 62 1 29 58
M  V30 63 1 30 59
M  V30 64 1 30 60
M  V30 65 1 31 61
M  V30 66 1 32 62
M  V30 67 1 33 63
M  V30 68 1 35 64
M  V30 END BOND
M  V30 END CTAB
M  END
>  <Dataset>  (451) 
ChEMBL_Kinases

>  <Ligand_Instance>  (451) 
nan

>  <PDB_ID>  (451) 
nan

>  <Standardized_SMILES>  (451) 
COc1ccc2nc(CNC(=O)c3ccc(-c4cnccc4OCC4CCNCC4)cc3)[nH]c2c1

>  <Name>  (451) 
nan

>  <Pocket>  (451) 
nan

>  <ATP_Site>  (451) 
nan

>  <Peripheral>  (451) 
nan

>  <Num_H_Atoms_ProtBoundConf>  (451) 
nan

>  <Num_Resolved_Atoms>  (451) 
nan

>  <Num_Not_Resolved_Atoms>  (451) 
nan

$$$$
CHEMBL4071770
     RDKit          3D

  0  0  0  0  0  0  0  0  0  0999 V3000
M  V30 BEGIN CTAB
M  V30 COUNTS 72 76 0 0 0
M  V30 BEGIN ATOM
M  V30 1 C 2.257816 -2.899031 3.570819 0
M  V30 2 C 2.795533 -3.376898 2.472261 0
M  V30 3 C 3.318803 -2.407820 1.517168 0
M  V30 4 O 3.054873 -1.331773 2.134331 0
M  V30 5 N 3.927480 -2.720845 0.279441 0
M  V30 6 C 4.340978 -1.551804 -0.443774 0
M  V30 7 C 5.598151 -1.005058 -0.318643 0
M  V30 8 C 5.918793 0.133254 -1.059681 0
M  V30 9 C 5.023483 0.732998 -1.912878 0
M  V30 10 C 3.792398 0.147800 -1.996492 0
M  V30 11 C 2.721812 0.673416 -2.866756 0
M  V30 12 O 2.414749 0.764263 -4.077608 0
M  V30 13 N 1.691989 1.281653 -2.074005 0
M  V30 14 C 0.440109 1.941291 -2.373778 0
M  V30 15 C 0.342952 3.295802 -2.599532 0
M  V30 16 C -0.923999 3.773540 -2.863641 0
M  V30 17 C -2.051261 2.955696 -2.905148 0
M  V30 18 C -1.906077 1.575106 -2.666375 0
M  V30 19 N -3.189266 0.971116 -2.763503 0
M  V30 20 C -3.710901 0.181030 -1.680782 0
M  V30 21 C -3.010371 0.039939 -0.506226 0
M  V30 22 C -3.483027 -0.714831 0.564958 0
M  V30 23 C -2.541111 -0.721284 1.672645 0
M  V30 24 C -2.003182 -1.914185 2.110158 0
M  V30 25 C -2.270335 -3.267637 1.602139 0
M  V30 26 C -1.569681 -3.838780 0.533545 0
M  V30 27 C -1.852694 -5.110169 0.087179 0
M  V30 28 C -2.847590 -5.859023 0.692426 0
M  V30 29 F -3.176319 -7.129603 0.286461 0
M  V30 30 C -3.529414 -5.280106 1.746682 0
M  V30 31 C -3.277861 -4.022429 2.217701 0
M  V30 32 N -1.158866 -1.581155 3.119116 0
M  V30 33 C -1.187184 -0.242607 3.283442 0
M  V30 34 S -0.155122 0.462309 4.541196 0
M  V30 35 C -0.283402 2.256083 4.645264 0
M  V30 36 N -2.037343 0.281232 2.394293 0
M  V30 37 C -2.341863 1.687566 2.275353 0
M  V30 38 C -4.700719 -1.334094 0.425129 0
M  V30 39 C -5.383125 -1.179379 -0.756977 0
M  V30 40 N -4.898769 -0.442614 -1.778404 0
M  V30 41 C -0.631506 1.092943 -2.401362 0
M  V30 42 C 3.396412 -0.976074 -1.300624 0
M  V30 43 C 2.041031 -1.606251 -1.395285 0
M  V30 44 H 1.832702 -3.538476 4.361716 0
M  V30 45 H 1.962828 -2.094366 4.215947 0
M  V30 46 H 2.791158 -4.447151 2.386598 0
M  V30 47 H 3.984960 -3.744671 0.075264 0
M  V30 48 H 6.302337 -1.485381 0.358449 0
M  V30 49 H 6.926591 0.545035 -0.939633 0
M  V30 50 H 5.254180 1.614063 -2.491238 0
M  V30 51 H 1.671752 1.361643 -1.033468 0
M  V30 52 H 1.219969 3.909834 -2.559184 0
M  V30 53 H -0.954843 4.855860 -3.037718 0
M  V30 54 H -2.945356 3.519006 -3.131872 0
M  V30 55 H -3.780062 1.079742 -3.616655 0
M  V30 56 H -2.075865 0.563372 -0.477293 0
M  V30 57 H -0.788640 -3.223186 0.070120 0
M  V30 58 H -1.299520 -5.538335 -0.747475 0
M  V30 59 H -4.299685 -5.842638 2.224119 0
M  V30 60 H -3.829277 -3.597993 3.043764 0
M  V30 61 H 0.218596 2.646552 5.563538 0
M  V30 62 H 0.272929 2.722070 3.790666 0
M  V30 63 H -1.323961 2.622693 4.703114 0
M  V30 64 H -1.448625 2.337839 2.191654 0
M  V30 65 H -2.998182 2.034651 3.121776 0
M  V30 66 H -2.932827 1.896605 1.355094 0
M  V30 67 H -4.990039 -1.894337 1.302032 0
M  V30 68 H -6.336964 -1.708533 -0.776383 0
M  V30 69 H -0.654518 0.035597 -2.252987 0
M  V30 70 H 1.374727 -1.047020 -0.716849 0
M  V30 71 H 2.126490 -2.679876 -1.122348 0
M  V30 72 H 1.645040 -1.554316 -2.420348 0
M  V30 END ATOM
M  V30 BEGIN BOND
M  V30 1 2 1 2
M  V30 2 1 2 3
M  V30 3 2 3 4
M  V30 4 1 3 5
M  V30 5 1 5 6
M  V30 6 2 6 7
M  V30 7 1 7 8
M  V30 8 2 8 9
M  V30 9 1 9 10
M  V30 10 1 10 11
M  V30 11 2 11 12
M  V30 12 1 11 13
M  V30 13 1 13 14
M  V30 14 2 14 15
M  V30 15 1 15 16
M  V30 16 2 16 17
M  V30 17 1 17 18
M  V30 18 1 18 19
M  V30 19 1 19 20
M  V30 20 2 20 21
M  V30 21 1 21 22
M  V30 22 1 22 23
M  V30 23 2 23 24
M  V30 24 1 24 25
M  V30 25 2 25 26
M  V30 26 1 26 27
M  V30 27 2 27 28
M  V30 28 1 28 29
M  V30 29 1 28 30
M  V30 30 2 30 31
M  V30 31 1 24 32
M  V30 32 2 32 33
M  V30 33 1 33 34
M  V30 34 1 34 35
M  V30 35 1 33 36
M  V30 36 1 36 37
M  V30 37 2 22 38
M  V30 38 1 38 39
M  V30 39 2 39 40
M  V30 40 2 18 41
M  V30 41 2 10 42
M  V30 42 1 42 43
M  V30 43 1 42 6
M  V30 44 1 41 14
M  V30 45 1 40 20
M  V30 46 1 36 23
M  V30 47 1 31 25
M  V30 48 1 1 44
M  V30 49 1 1 45
M  V30 50 1 2 46
M  V30 51 1 5 47
M  V30 52 1 7 48
M  V30 53 1 8 49
M  V30 54 1 9 50
M  V30 55 1 13 51
M  V30 56 1 15 52
M  V30 57 1 16 53
M  V30 58 1 17 54
M  V30 59 1 19 55
M  V30 60 1 21 56
M  V30 61 1 26 57
M  V30 62 1 27 58
M  V30 63 1 30 59
M  V30 64 1 31 60
M  V30 65 1 35 61
M  V30 66 1 35 62
M  V30 67 1 35 63
M  V30 68 1 37 64
M  V30 69 1 37 65
M  V30 70 1 37 66
M  V30 71 1 38 67
M  V30 72 1 39 68
M  V30 73 1 41 69
M  V30 74 1 43 70
M  V30 75 1 43 71
M  V30 76 1 43 72
M  V30 END BOND
M  V30 END CTAB
M  END
>  <Dataset>  (452) 
ChEMBL_Kinases

>  <Ligand_Instance>  (452) 
nan

>  <PDB_ID>  (452) 
nan

>  <Standardized_SMILES>  (452) 
C=CC(=O)Nc1cccc(C(=O)Nc2cccc(Nc3cc(-c4c(-c5ccc(F)cc5)nc(SC)n4C)ccn3)c2)c1C

>  <Name>  (452) 
nan

>  <Pocket>  (452) 
nan

>  <ATP_Site>  (452) 
nan

>  <Peripheral>  (452) 
nan

>  <Num_H_Atoms_ProtBoundConf>  (452) 
nan

>  <Num_Resolved_Atoms>  (452) 
nan

>  <Num_Not_Resolved_Atoms>  (452) 
nan

$$$$
CHEMBL3909068
     RDKit          3D

  0  0  0  0  0  0  0  0  0  0999 V3000
M  V30 BEGIN CTAB
M  V30 COUNTS 68 72 0 0 0
M  V30 BEGIN ATOM
M  V30 1 C 1.776422 -2.926028 7.186244 0
M  V30 2 C 1.724792 -1.643490 6.932922 0
M  V30 3 C 0.954620 -0.458269 7.251719 0
M  V30 4 O -0.004447 -0.554478 8.018662 0
M  V30 5 N 1.522789 0.634096 6.554318 0
M  V30 6 C 2.628646 0.736750 5.648436 0
M  V30 7 C 3.234158 2.107250 5.613838 0
M  V30 8 N 2.280222 3.161350 5.375608 0
M  V30 9 S 2.491819 3.873732 3.813013 0
M  V30 10 O 3.924519 4.303200 3.706206 0
M  V30 11 O 1.537240 4.992755 3.636932 0
M  V30 12 C 2.232787 2.665487 2.579859 0
M  V30 13 C 0.931202 2.531599 2.133829 0
M  V30 14 C 0.635807 1.601181 1.160288 0
M  V30 15 C 1.550520 0.761177 0.568310 0
M  V30 16 N 1.291148 -0.201975 -0.424102 0
M  V30 17 C 0.048761 -0.536958 -0.999964 0
M  V30 18 N -1.138917 -0.010770 -0.703087 0
M  V30 19 C -2.305525 -0.342616 -1.264335 0
M  V30 20 C -2.323895 -1.310593 -2.240638 0
M  V30 21 C -1.127984 -1.874507 -2.573348 0
M  V30 22 N -0.024748 -1.465721 -1.947191 0
M  V30 23 N -0.820483 -2.889013 -3.535330 0
M  V30 24 C 0.388964 -3.630204 -3.355507 0
M  V30 25 C -1.624864 -3.234459 -4.681484 0
M  V30 26 C -0.850974 -3.834335 -5.654409 0
M  V30 27 C -1.485752 -4.220445 -6.817145 0
M  V30 28 C -2.839175 -3.988262 -6.939661 0
M  V30 29 C -3.571676 -4.390807 -8.188119 0
M  V30 30 C -3.638463 -3.392006 -5.986873 0
M  V30 31 C -2.999415 -3.002865 -4.815124 0
M  V30 32 C -3.927051 -2.383715 -3.875385 0
M  V30 33 O -5.143047 -2.598302 -4.079842 0
M  V30 34 N -3.633980 -1.554036 -2.738961 0
M  V30 35 C -4.738808 -0.918507 -2.049169 0
M  V30 36 C 2.831936 0.932143 1.045198 0
M  V30 37 C 3.181437 1.843115 2.013044 0
M  V30 38 C 0.910147 2.709176 5.546307 0
M  V30 39 C 0.863155 1.889793 6.814917 0
M  V30 40 H 1.995391 -3.972748 7.257597 0
M  V30 41 H 1.271998 -3.705745 7.751794 0
M  V30 42 H 2.584072 -1.849277 6.321734 0
M  V30 43 H 3.421636 0.041219 6.017241 0
M  V30 44 H 2.350567 0.359853 4.648506 0
M  V30 45 H 3.941215 2.117272 4.760676 0
M  V30 46 H 3.842895 2.337005 6.505610 0
M  V30 47 H 0.133262 3.145809 2.533262 0
M  V30 48 H -0.395367 1.537485 0.848178 0
M  V30 49 H 2.131181 -0.738771 -0.781718 0
M  V30 50 H -3.220956 0.127836 -0.970161 0
M  V30 51 H 0.277872 -4.732352 -3.572120 0
M  V30 52 H 1.275567 -3.182074 -3.850425 0
M  V30 53 H 0.633780 -3.609467 -2.259656 0
M  V30 54 H 0.191260 -3.968777 -5.458861 0
M  V30 55 H -0.914823 -4.694244 -7.605654 0
M  V30 56 H -4.540013 -4.878121 -7.963602 0
M  V30 57 H -2.968773 -5.124838 -8.762603 0
M  V30 58 H -3.680671 -3.513182 -8.874783 0
M  V30 59 H -4.688488 -3.221548 -6.106415 0
M  V30 60 H -5.675873 -1.343811 -2.519396 0
M  V30 61 H -4.793591 0.167651 -2.262413 0
M  V30 62 H -4.805722 -1.182573 -0.980095 0
M  V30 63 H 3.680454 0.345280 0.682249 0
M  V30 64 H 4.183218 1.972227 2.380691 0
M  V30 65 H 0.283819 3.622561 5.618667 0
M  V30 66 H 0.662974 2.088439 4.667349 0
M  V30 67 H 1.434368 2.499758 7.573742 0
M  V30 68 H -0.170365 1.793823 7.205399 0
M  V30 END ATOM
M  V30 BEGIN BOND
M  V30 1 2 1 2
M  V30 2 1 2 3
M  V30 3 2 3 4
M  V30 4 1 3 5
M  V30 5 1 5 6
M  V30 6 1 6 7
M  V30 7 1 7 8
M  V30 8 1 8 9
M  V30 9 2 9 10
M  V30 10 2 9 11
M  V30 11 1 9 12
M  V30 12 2 12 13
M  V30 13 1 13 14
M  V30 14 2 14 15
M  V30 15 1 15 16
M  V30 16 1 16 17
M  V30 17 2 17 18
M  V30 18 1 18 19
M  V30 19 2 19 20
M  V30 20 1 20 21
M  V30 21 2 21 22
M  V30 22 1 21 23
M  V30 23 1 23 24
M  V30 24 1 23 25
M  V30 25 2 25 26
M  V30 26 1 26 27
M  V30 27 2 27 28
M  V30 28 1 28 29
M  V30 29 1 28 30
M  V30 30 2 30 31
M  V30 31 1 31 32
M  V30 32 2 32 33
M  V30 33 1 32 34
M  V30 34 1 34 35
M  V30 35 1 15 36
M  V30 36 2 36 37
M  V30 37 1 8 38
M  V30 38 1 38 39
M  V30 39 1 39 5
M  V30 40 1 37 12
M  V30 41 1 22 17
M  V30 42 1 31 25
M  V30 43 1 34 20
M  V30 44 1 1 40
M  V30 45 1 1 41
M  V30 46 1 2 42
M  V30 47 1 6 43
M  V30 48 1 6 44
M  V30 49 1 7 45
M  V30 50 1 7 46
M  V30 51 1 13 47
M  V30 52 1 14 48
M  V30 53 1 16 49
M  V30 54 1 19 50
M  V30 55 1 24 51
M  V30 56 1 24 52
M  V30 57 1 24 53
M  V30 58 1 26 54
M  V30 59 1 27 55
M  V30 60 1 29 56
M  V30 61 1 29 57
M  V30 62 1 29 58
M  V30 63 1 30 59
M  V30 64 1 35 60
M  V30 65 1 35 61
M  V30 66 1 35 62
M  V30 67 1 36 63
M  V30 68 1 37 64
M  V30 69 1 38 65
M  V30 70 1 38 66
M  V30 71 1 39 67
M  V30 72 1 39 68
M  V30 END BOND
M  V30 END CTAB
M  END
>  <Dataset>  (453) 
ChEMBL_Kinases

>  <Ligand_Instance>  (453) 
nan

>  <PDB_ID>  (453) 
nan

>  <Standardized_SMILES>  (453) 
C=CC(=O)N1CCN(S(=O)(=O)c2ccc(Nc3ncc4c(n3)N(C)c3ccc(C)cc3C(=O)N4C)cc2)CC1

>  <Name>  (453) 
nan

>  <Pocket>  (453) 
nan

>  <ATP_Site>  (453) 
nan

>  <Peripheral>  (453) 
nan

>  <Num_H_Atoms_ProtBoundConf>  (453) 
nan

>  <Num_Resolved_Atoms>  (453) 
nan

>  <Num_Not_Resolved_Atoms>  (453) 
nan

$$$$
CHEMBL3909478
     RDKit          3D

  0  0  0  0  0  0  0  0  0  0999 V3000
M  V30 BEGIN CTAB
M  V30 COUNTS 39 43 0 0 0
M  V30 BEGIN ATOM
M  V30 1 N 0.690318 -6.024410 1.734651 0
M  V30 2 C 0.447805 -5.010951 1.258840 0
M  V30 3 C 0.156284 -3.719628 0.633404 0
M  V30 4 C 1.335537 -2.797838 0.787192 0
M  V30 5 C 2.448542 -2.843364 1.595520 0
M  V30 6 C 3.354691 -1.815366 1.481461 0
M  V30 7 N 3.204585 -0.785053 0.629343 0
M  V30 8 C 2.095956 -0.744325 -0.170990 0
M  V30 9 N 1.847050 0.311654 -1.128149 0
M  V30 10 C 1.470328 1.670073 -0.700080 0
M  V30 11 C 1.175980 2.512561 -1.914050 0
M  V30 12 C 2.336476 3.447701 -1.885280 0
M  V30 13 C 3.486468 3.923588 -1.321891 0
M  V30 14 N 3.759348 3.215624 -0.240012 0
M  V30 15 C 2.747451 2.341561 -0.210762 0
M  V30 16 N 1.870579 2.440227 -1.171770 0
M  V30 17 N 1.203799 -1.744087 -0.067480 0
M  V30 18 C -0.994723 -3.064462 1.433827 0
M  V30 19 N -1.632529 -2.116076 1.123275 0
M  V30 20 C -2.622334 -1.566869 1.816797 0
M  V30 21 C -3.430901 -0.475498 1.590910 0
M  V30 22 C -4.398045 -0.084008 2.478252 0
M  V30 23 C -4.646472 -0.753406 3.681751 0
M  V30 24 C -3.874396 -1.879473 4.003130 0
M  V30 25 C -2.927570 -2.169916 3.015327 0
M  V30 26 S -1.673142 -3.585046 3.051650 0
M  V30 27 H -0.153747 -3.841765 -0.397738 0
M  V30 28 H 2.429820 -3.714880 2.215820 0
M  V30 29 H 4.200532 -1.899149 2.132873 0
M  V30 30 H 2.000356 -0.150720 -2.048195 0
M  V30 31 H 0.681938 1.626103 0.074120 0
M  V30 32 H 0.179426 3.042546 -1.874493 0
M  V30 33 H 1.148206 1.902057 -2.863253 0
M  V30 34 H 3.977690 4.728375 -1.775829 0
M  V30 35 H 4.374512 3.050282 0.545188 0
M  V30 36 H -3.334454 0.131638 0.681068 0
M  V30 37 H -5.035824 0.794909 2.274913 0
M  V30 38 H -5.389599 -0.492511 4.417441 0
M  V30 39 H -3.922973 -2.500903 4.859333 0
M  V30 END ATOM
M  V30 BEGIN BOND
M  V30 1 3 1 2
M  V30 2 1 2 3
M  V30 3 1 3 4
M  V30 4 2 4 5
M  V30 5 1 5 6
M  V30 6 2 6 7
M  V30 7 1 7 8
M  V30 8 1 8 9
M  V30 9 1 9 10
M  V30 10 1 10 11
M  V30 11 1 11 12
M  V30 12 2 12 13
M  V30 13 1 13 14
M  V30 14 1 14 15
M  V30 15 2 15 16
M  V30 16 2 8 17
M  V30 17 1 3 18
M  V30 18 2 18 19
M  V30 19 1 19 20
M  V30 20 2 20 21
M  V30 21 1 21 22
M  V30 22 2 22 23
M  V30 23 1 23 24
M  V30 24 2 24 25
M  V30 25 1 25 26
M  V30 26 1 17 4
M  V30 27 1 26 18
M  V30 28 1 15 10
M  V30 29 1 25 20
M  V30 30 1 16 12
M  V30 31 1 3 27
M  V30 32 1 5 28
M  V30 33 1 6 29
M  V30 34 1 9 30
M  V30 35 1 10 31
M  V30 36 1 11 32
M  V30 37 1 11 33
M  V30 38 1 13 34
M  V30 39 1 14 35
M  V30 40 1 21 36
M  V30 41 1 22 37
M  V30 42 1 23 38
M  V30 43 1 24 39
M  V30 END BOND
M  V30 END CTAB
M  END
>  <Dataset>  (454) 
ChEMBL_Kinases

>  <Ligand_Instance>  (454) 
nan

>  <PDB_ID>  (454) 
nan

>  <Standardized_SMILES>  (454) 
N#CC(c1ccnc(NC2Cc3c[nH]c2n3)n1)c1nc2ccccc2s1

>  <Name>  (454) 
nan

>  <Pocket>  (454) 
nan

>  <ATP_Site>  (454) 
nan

>  <Peripheral>  (454) 
nan

>  <Num_H_Atoms_ProtBoundConf>  (454) 
nan

>  <Num_Resolved_Atoms>  (454) 
nan

>  <Num_Not_Resolved_Atoms>  (454) 
nan

$$$$
CHEMBL3639709
     RDKit          3D

  0  0  0  0  0  0  0  0  0  0999 V3000
M  V30 BEGIN CTAB
M  V30 COUNTS 67 74 0 0 0
M  V30 BEGIN ATOM
M  V30 1 C 2.924091 0.225970 5.372939 0
M  V30 2 C 1.563513 0.462004 5.394677 0
M  V30 3 C 0.908193 1.041517 4.328548 0
M  V30 4 C 1.603760 1.406826 3.194145 0
M  V30 5 C 1.130888 2.020025 1.975758 0
M  V30 6 C 1.564420 3.264849 1.565946 0
M  V30 7 N 1.132892 3.846517 0.435079 0
M  V30 8 N 1.367240 4.990678 -0.184559 0
M  V30 9 C 0.655018 5.088954 -1.322710 0
M  V30 10 C 0.644676 6.220962 -2.294337 0
M  V30 11 C 1.803048 7.100096 -2.483609 0
M  V30 12 C 0.610065 7.593198 -1.721900 0
M  V30 13 N -0.054588 3.937619 -1.401158 0
M  V30 14 C 0.232865 3.176804 -0.332342 0
M  V30 15 N -0.215631 1.945306 0.044013 0
M  V30 16 C 0.216729 1.347136 1.190081 0
M  V30 17 C -0.316140 0.029132 1.515857 0
M  V30 18 C 0.389497 -1.150698 1.631636 0
M  V30 19 C -0.317934 -2.291774 1.949932 0
M  V30 20 C -1.683141 -2.285680 2.151518 0
M  V30 21 C -2.266422 -3.610947 2.486105 0
M  V30 22 N -2.662741 -4.319961 1.296534 0
M  V30 23 C -3.245193 -5.635815 1.497265 0
M  V30 24 C -3.999492 -5.370658 0.186611 0
M  V30 25 C -3.106416 -5.528122 -0.972255 0
M  V30 26 N -3.178661 -6.134595 -2.160500 0
M  V30 27 N -2.045314 -5.937134 -2.810114 0
M  V30 28 C -1.210228 -5.198267 -2.060208 0
M  V30 29 C 0.157379 -4.700050 -2.307330 0
M  V30 30 C 0.695357 -5.044868 -3.526229 0
M  V30 31 C 1.977589 -4.602581 -3.810244 0
M  V30 32 C 2.672371 -3.834790 -2.869177 0
M  V30 33 C 2.066404 -3.528813 -1.667197 0
M  V30 34 N 0.818947 -3.961443 -1.395669 0
M  V30 35 N -1.889610 -4.958417 -0.929195 0
M  V30 36 C -3.969492 -3.941198 0.746614 0
M  V30 37 C -2.390705 -1.106761 2.036171 0
M  V30 38 C -1.681215 0.050001 1.714585 0
M  V30 39 C 2.982313 1.169415 3.167961 0
M  V30 40 C 3.649976 0.585672 4.238861 0
M  V30 41 H 3.405101 -0.234771 6.237320 0
M  V30 42 H 0.982588 0.196465 6.250755 0
M  V30 43 H -0.143791 1.259353 4.264146 0
M  V30 44 H 2.291931 3.803920 2.188018 0
M  V30 45 H -0.034397 6.068056 -3.163989 0
M  V30 46 H 1.979968 7.529531 -3.505140 0
M  V30 47 H 2.735234 7.018631 -1.904798 0
M  V30 48 H 0.678446 7.672017 -0.629288 0
M  V30 49 H -0.067440 8.353333 -2.159391 0
M  V30 50 H 1.453460 -1.072253 1.458686 0
M  V30 51 H 0.302069 -3.184949 2.024791 0
M  V30 52 H -3.174310 -3.520548 3.115949 0
M  V30 53 H -1.560190 -4.227469 3.078129 0
M  V30 54 H -2.481276 -6.412276 1.438463 0
M  V30 55 H -3.950097 -5.656741 2.339007 0
M  V30 56 H -4.979828 -5.838219 0.125972 0
M  V30 57 H -1.757665 -6.273304 -3.775370 0
M  V30 58 H 0.207819 -5.627933 -4.278706 0
M  V30 59 H 2.482249 -4.822386 -4.738449 0
M  V30 60 H 3.691924 -3.453153 -3.033044 0
M  V30 61 H 2.565887 -2.930135 -0.893558 0
M  V30 62 H -4.769721 -3.842969 1.489329 0
M  V30 63 H -3.955788 -3.245964 -0.094686 0
M  V30 64 H -3.458864 -1.157546 2.204210 0
M  V30 65 H -2.331895 0.924275 1.647968 0
M  V30 66 H 3.646589 1.413759 2.326054 0
M  V30 67 H 4.718450 0.400951 4.220295 0
M  V30 END ATOM
M  V30 BEGIN BOND
M  V30 1 2 1 2
M  V30 2 1 2 3
M  V30 3 2 3 4
M  V30 4 1 4 5
M  V30 5 2 5 6
M  V30 6 1 6 7
M  V30 7 1 7 8
M  V30 8 2 8 9
M  V30 9 1 9 10
M  V30 10 1 10 11
M  V30 11 1 11 12
M  V30 12 1 9 13
M  V30 13 2 13 14
M  V30 14 1 14 15
M  V30 15 2 15 16
M  V30 16 1 16 17
M  V30 17 2 17 18
M  V30 18 1 18 19
M  V30 19 2 19 20
M  V30 20 1 20 21
M  V30 21 1 21 22
M  V30 22 1 22 23
M  V30 23 1 23 24
M  V30 24 1 24 25
M  V30 25 2 25 26
M  V30 26 1 26 27
M  V30 27 1 27 28
M  V30 28 1 28 29
M  V30 29 2 29 30
M  V30 30 1 30 31
M  V30 31 2 31 32
M  V30 32 1 32 33
M  V30 33 2 33 34
M  V30 34 2 28 35
M  V30 35 1 24 36
M  V30 36 1 20 37
M  V30 37 2 37 38
M  V30 38 1 4 39
M  V30 39 2 39 40
M  V30 40 1 40 1
M  V30 41 1 16 5
M  V30 42 1 38 17
M  V30 43 1 14 7
M  V30 44 1 36 22
M  V30 45 1 12 10
M  V30 46 1 35 25
M  V30 47 1 34 29
M  V30 48 1 1 41
M  V30 49 1 2 42
M  V30 50 1 3 43
M  V30 51 1 6 44
M  V30 52 1 10 45
M  V30 53 1 11 46
M  V30 54 1 11 47
M  V30 55 1 12 48
M  V30 56 1 12 49
M  V30 57 1 18 50
M  V30 58 1 19 51
M  V30 59 1 21 52
M  V30 60 1 21 53
M  V30 61 1 23 54
M  V30 62 1 23 55
M  V30 63 1 24 56
M  V30 64 1 27 57
M  V30 65 1 30 58
M  V30 66 1 31 59
M  V30 67 1 32 60
M  V30 68 1 33 61
M  V30 69 1 36 62
M  V30 70 1 36 63
M  V30 71 1 37 64
M  V30 72 1 38 65
M  V30 73 1 39 66
M  V30 74 1 40 67
M  V30 END BOND
M  V30 END CTAB
M  END
>  <Dataset>  (455) 
ChEMBL_Kinases

>  <Ligand_Instance>  (455) 
nan

>  <PDB_ID>  (455) 
nan

>  <Standardized_SMILES>  (455) 
c1ccc(-c2cn3nc(C4CC4)nc3nc2-c2ccc(CN3CC(c4n[nH]c(-c5ccccn5)n4)C3)cc2)cc1

>  <Name>  (455) 
nan

>  <Pocket>  (455) 
nan

>  <ATP_Site>  (455) 
nan

>  <Peripheral>  (455) 
nan

>  <Num_H_Atoms_ProtBoundConf>  (455) 
nan

>  <Num_Resolved_Atoms>  (455) 
nan

>  <Num_Not_Resolved_Atoms>  (455) 
nan

$$$$
CHEMBL3909574
     RDKit          3D

  0  0  0  0  0  0  0  0  0  0999 V3000
M  V30 BEGIN CTAB
M  V30 COUNTS 35 37 0 0 0
M  V30 BEGIN ATOM
M  V30 1 N 3.091031 0.964824 3.549832 0
M  V30 2 C 2.207611 0.270362 3.244125 0
M  V30 3 C 1.112678 -0.621884 2.853895 0
M  V30 4 C 1.566288 -1.592891 1.810746 0
M  V30 5 C 1.499204 -2.960582 2.024336 0
M  V30 6 C 1.897164 -3.915558 1.105607 0
M  V30 7 N 2.388360 -3.482574 -0.091898 0
M  V30 8 C 2.452571 -2.147857 -0.298918 0
M  V30 9 N 2.979458 -1.836760 -1.571075 0
M  V30 10 C 2.000221 -1.979695 -2.626682 0
M  V30 11 C 0.776095 -1.114805 -2.427197 0
M  V30 12 O 0.113744 -1.421445 -1.236474 0
M  V30 13 N 2.058589 -1.224733 0.613621 0
M  V30 14 C -0.075631 0.161018 2.433572 0
M  V30 15 N -1.258045 0.060294 2.268198 0
M  V30 16 C -2.054904 1.047286 1.867050 0
M  V30 17 C -3.431867 0.899014 1.680156 0
M  V30 18 C -4.149989 2.017909 1.251954 0
M  V30 19 C -3.608265 3.257080 0.999171 0
M  V30 20 C -2.253252 3.433509 1.174355 0
M  V30 21 C -1.545106 2.316662 1.600059 0
M  V30 22 S 0.233327 2.000680 1.975884 0
M  V30 23 H 0.802413 -1.221936 3.731529 0
M  V30 24 H 1.106634 -3.327706 2.982865 0
M  V30 25 H 1.804985 -4.976225 1.366790 0
M  V30 26 H 3.978764 -1.537504 -1.701706 0
M  V30 27 H 1.630233 -3.022434 -2.713120 0
M  V30 28 H 2.439915 -1.688755 -3.603918 0
M  V30 29 H 1.088306 -0.074505 -2.398113 0
M  V30 30 H 0.075326 -1.197176 -3.290869 0
M  V30 31 H 0.039368 -2.414121 -1.143433 0
M  V30 32 H -4.065121 0.030756 1.817660 0
M  V30 33 H -5.239445 1.998870 1.076624 0
M  V30 34 H -4.132185 4.138263 0.668887 0
M  V30 35 H -1.634310 4.291162 1.035779 0
M  V30 END ATOM
M  V30 BEGIN BOND
M  V30 1 3 1 2
M  V30 2 1 2 3
M  V30 3 1 3 4
M  V30 4 2 4 5
M  V30 5 1 5 6
M  V30 6 2 6 7
M  V30 7 1 7 8
M  V30 8 1 8 9
M  V30 9 1 9 10
M  V30 10 1 10 11
M  V30 11 1 11 12
M  V30 12 2 8 13
M  V30 13 1 3 14
M  V30 14 2 14 15
M  V30 15 1 15 16
M  V30 16 2 16 17
M  V30 17 1 17 18
M  V30 18 2 18 19
M  V30 19 1 19 20
M  V30 20 2 20 21
M  V30 21 1 21 22
M  V30 22 1 13 4
M  V30 23 1 22 14
M  V30 24 1 21 16
M  V30 25 1 3 23
M  V30 26 1 5 24
M  V30 27 1 6 25
M  V30 28 1 9 26
M  V30 29 1 10 27
M  V30 30 1 10 28
M  V30 31 1 11 29
M  V30 32 1 11 30
M  V30 33 1 12 31
M  V30 34 1 17 32
M  V30 35 1 18 33
M  V30 36 1 19 34
M  V30 37 1 20 35
M  V30 END BOND
M  V30 END CTAB
M  END
>  <Dataset>  (456) 
ChEMBL_Kinases

>  <Ligand_Instance>  (456) 
nan

>  <PDB_ID>  (456) 
nan

>  <Standardized_SMILES>  (456) 
N#CC(c1ccnc(NCCO)n1)c1nc2ccccc2s1

>  <Name>  (456) 
nan

>  <Pocket>  (456) 
nan

>  <ATP_Site>  (456) 
nan

>  <Peripheral>  (456) 
nan

>  <Num_H_Atoms_ProtBoundConf>  (456) 
nan

>  <Num_Resolved_Atoms>  (456) 
nan

>  <Num_Not_Resolved_Atoms>  (456) 
nan

$$$$
CHEMBL3910008
     RDKit          3D

  0  0  0  0  0  0  0  0  0  0999 V3000
M  V30 BEGIN CTAB
M  V30 COUNTS 48 52 0 0 0
M  V30 BEGIN ATOM
M  V30 1 N 0.609004 -2.129482 5.388341 0
M  V30 2 C 1.112316 -2.001541 4.050378 0 CFG=1
M  V30 3 C 0.008893 -2.289373 3.029211 0
M  V30 4 C 0.699791 -2.692492 1.750800 0
M  V30 5 C 1.989503 -1.959684 1.636495 0
M  V30 6 N 2.042749 -0.683931 2.319306 0
M  V30 7 C 2.470218 0.642630 1.948201 0
M  V30 8 C 3.537618 1.173778 2.648309 0
M  V30 9 C 4.054225 2.432370 2.389253 0
M  V30 10 N 3.462978 3.135799 1.406249 0
M  V30 11 C 2.426325 2.599185 0.739037 0
M  V30 12 C 1.858896 1.359436 0.938381 0
M  V30 13 N 0.763877 0.835414 0.215910 0
M  V30 14 C 0.066932 1.474887 -0.834600 0
M  V30 15 N 0.238910 2.668292 -1.404505 0
M  V30 16 C -0.641576 2.907630 -2.381447 0
M  V30 17 C -1.417722 1.779306 -2.421128 0
M  V30 18 C -2.493068 1.480704 -3.251373 0
M  V30 19 C -3.152323 0.253345 -3.119494 0
M  V30 20 C -2.646725 -0.549092 -2.150569 0
M  V30 21 C -3.193233 -1.888129 -1.844744 0
M  V30 22 N -2.941183 -2.842098 -1.024838 0
M  V30 23 C -3.724225 -3.916355 -1.103643 0
M  V30 24 C -4.796583 -4.107162 -1.993980 0
M  V30 25 S -4.660599 -2.448402 -2.880142 0
M  V30 26 N -1.613743 -0.230905 -1.372358 0
M  V30 27 N -0.977883 0.946831 -1.495794 0
M  V30 28 C 1.588334 -0.596723 3.713080 0
M  V30 29 H 1.342762 -2.566851 5.988314 0
M  V30 30 H -0.192334 -2.820039 5.344373 0
M  V30 31 H 1.959405 -2.686587 3.844481 0
M  V30 32 H -0.533217 -1.335941 2.814674 0
M  V30 33 H -0.670832 -3.073714 3.418845 0
M  V30 34 H 0.954754 -3.785139 1.887244 0
M  V30 35 H 0.041906 -2.576722 0.865288 0
M  V30 36 H 2.169956 -1.782878 0.537669 0
M  V30 37 H 2.858573 -2.584751 1.992271 0
M  V30 38 H 4.001704 0.573782 3.448051 0
M  V30 39 H 4.891005 2.760704 2.989957 0
M  V30 40 H 2.035233 3.253574 -0.024284 0
M  V30 41 H 0.449507 -0.120729 0.500754 0
M  V30 42 H -0.759918 3.767088 -3.019861 0
M  V30 43 H -2.832561 2.181667 -4.001385 0
M  V30 44 H -3.979207 -0.049270 -3.713162 0
M  V30 45 H -3.395562 -4.648972 -0.346623 0
M  V30 46 H -5.347690 -4.921554 -2.013741 0
M  V30 47 H 0.718392 0.113633 3.693187 0
M  V30 48 H 2.360444 -0.218752 4.394334 0
M  V30 END ATOM
M  V30 BEGIN BOND
M  V30 1 1 1 2
M  V30 2 1 2 3
M  V30 3 1 3 4
M  V30 4 1 4 5
M  V30 5 1 5 6
M  V30 6 1 6 7
M  V30 7 2 7 8
M  V30 8 1 8 9
M  V30 9 2 9 10
M  V30 10 1 10 11
M  V30 11 2 11 12
M  V30 12 1 12 13
M  V30 13 1 13 14
M  V30 14 2 14 15
M  V30 15 1 15 16
M  V30 16 2 16 17
M  V30 17 1 17 18
M  V30 18 2 18 19
M  V30 19 1 19 20
M  V30 20 1 20 21
M  V30 21 2 21 22
M  V30 22 1 22 23
M  V30 23 2 23 24
M  V30 24 1 24 25
M  V30 25 2 20 26
M  V30 26 1 26 27
M  V30 27 1 6 28
M  V30 28 1 28 2
M  V30 29 1 12 7
M  V30 30 1 27 14
M  V30 31 1 27 17
M  V30 32 1 25 21
M  V30 33 1 1 29
M  V30 34 1 1 30
M  V30 35 1 2 31 CFG=1
M  V30 36 1 3 32
M  V30 37 1 3 33
M  V30 38 1 4 34
M  V30 39 1 4 35
M  V30 40 1 5 36
M  V30 41 1 5 37
M  V30 42 1 8 38
M  V30 43 1 9 39
M  V30 44 1 11 40
M  V30 45 1 13 41
M  V30 46 1 16 42
M  V30 47 1 18 43
M  V30 48 1 19 44
M  V30 49 1 23 45
M  V30 50 1 24 46
M  V30 51 1 28 47
M  V30 52 1 28 48
M  V30 END BOND
M  V30 END CTAB
M  END
>  <Dataset>  (457) 
ChEMBL_Kinases

>  <Ligand_Instance>  (457) 
nan

>  <PDB_ID>  (457) 
nan

>  <Standardized_SMILES>  (457) 
N[C@H]1CCCN(c2ccncc2Nc2ncc3ccc(-c4nccs4)nn23)C1

>  <Name>  (457) 
nan

>  <Pocket>  (457) 
nan

>  <ATP_Site>  (457) 
nan

>  <Peripheral>  (457) 
nan

>  <Num_H_Atoms_ProtBoundConf>  (457) 
nan

>  <Num_Resolved_Atoms>  (457) 
nan

>  <Num_Not_Resolved_Atoms>  (457) 
nan

$$$$
CHEMBL3639743
     RDKit          3D

  0  0  0  0  0  0  0  0  0  0999 V3000
M  V30 BEGIN CTAB
M  V30 COUNTS 54 57 0 0 0
M  V30 BEGIN ATOM
M  V30 1 C 6.394508 -4.501678 3.232038 0
M  V30 2 C 5.411293 -3.607404 2.554481 0
M  V30 3 C 5.399705 -2.267045 2.950461 0
M  V30 4 C 4.499870 -1.418711 2.339507 0
M  V30 5 C 3.626052 -1.852529 1.364191 0
M  V30 6 C 2.643301 -1.030319 0.665097 0
M  V30 7 O 1.868484 -1.484002 -0.221446 0
M  V30 8 N 2.517715 0.354458 0.965230 0
M  V30 9 C 1.618329 1.294220 0.382191 0
M  V30 10 C 2.140623 1.925982 -0.737180 0
M  V30 11 C 1.345361 2.863204 -1.383399 0
M  V30 12 C 0.075434 3.175095 -0.948994 0
M  V30 13 C -0.427159 2.537599 0.164725 0
M  V30 14 C -1.760512 2.703675 0.820992 0 CFG=1
M  V30 15 C -2.665007 3.553994 -0.066789 0
M  V30 16 N -2.364948 1.429080 1.159183 0
M  V30 17 C -2.620538 0.520146 0.090417 0
M  V30 18 N -2.311739 0.836626 -1.180214 0
M  V30 19 C -2.520651 0.038132 -2.238360 0
M  V30 20 N -3.082646 -1.195794 -2.085083 0
M  V30 21 C -3.415486 -1.574132 -0.837606 0
M  V30 22 C -3.994561 -2.818054 -0.588199 0
M  V30 23 C -4.218011 -3.677759 -1.743543 0
M  V30 24 N -4.801156 -4.969665 -1.627860 0
M  V30 25 O -3.902063 -3.311686 -2.904740 0
M  V30 26 C -4.359742 -3.269742 0.662486 0
M  V30 27 C -4.113392 -2.389194 1.710411 0
M  V30 28 C -3.541179 -1.158524 1.468425 0
M  V30 29 C -3.186916 -0.728694 0.227584 0
M  V30 30 C 0.339167 1.600885 0.829077 0
M  V30 31 C 3.678265 -3.204851 1.003803 0
M  V30 32 N 4.560120 -4.035317 1.602840 0
M  V30 33 H 5.975418 -4.852878 4.210715 0
M  V30 34 H 6.643994 -5.389233 2.625218 0
M  V30 35 H 7.351170 -3.996661 3.471562 0
M  V30 36 H 6.073915 -1.927666 3.704317 0
M  V30 37 H 4.449267 -0.376072 2.607455 0
M  V30 38 H 3.104114 0.839142 1.679445 0
M  V30 39 H 3.125705 1.746450 -1.151276 0
M  V30 40 H 1.655705 3.420018 -2.272954 0
M  V30 41 H -0.602163 3.876647 -1.379219 0
M  V30 42 H -1.648472 3.291183 1.752237 0
M  V30 43 H -2.505163 3.203660 -1.106657 0
M  V30 44 H -3.717509 3.457061 0.230685 0
M  V30 45 H -2.290448 4.595867 -0.013814 0
M  V30 46 H -2.584959 1.231938 2.156195 0
M  V30 47 H -2.231950 0.396158 -3.221051 0
M  V30 48 H -5.499141 -5.397144 -2.273262 0
M  V30 49 H -4.769450 -5.802337 -1.001528 0
M  V30 50 H -4.802574 -4.253192 0.748518 0
M  V30 51 H -4.394025 -2.725548 2.707700 0
M  V30 52 H -3.397227 -0.560427 2.355304 0
M  V30 53 H 0.091873 1.019457 1.708568 0
M  V30 54 H 3.030357 -3.657870 0.240813 0
M  V30 END ATOM
M  V30 BEGIN BOND
M  V30 1 1 1 2
M  V30 2 2 2 3
M  V30 3 1 3 4
M  V30 4 2 4 5
M  V30 5 1 5 6
M  V30 6 2 6 7
M  V30 7 1 6 8
M  V30 8 1 8 9
M  V30 9 2 9 10
M  V30 10 1 10 11
M  V30 11 2 11 12
M  V30 12 1 12 13
M  V30 13 1 13 14
M  V30 14 1 14 15
M  V30 15 1 14 16
M  V30 16 1 16 17
M  V30 17 2 17 18
M  V30 18 1 18 19
M  V30 19 2 19 20
M  V30 20 1 20 21
M  V30 21 2 21 22
M  V30 22 1 22 23
M  V30 23 1 23 24
M  V30 24 2 23 25
M  V30 25 1 22 26
M  V30 26 2 26 27
M  V30 27 1 27 28
M  V30 28 2 28 29
M  V30 29 2 13 30
M  V30 30 1 5 31
M  V30 31 2 31 32
M  V30 32 1 32 2
M  V30 33 1 30 9
M  V30 34 1 29 17
M  V30 35 1 29 21
M  V30 36 1 1 33
M  V30 37 1 1 34
M  V30 38 1 1 35
M  V30 39 1 3 36
M  V30 40 1 4 37
M  V30 41 1 8 38
M  V30 42 1 10 39
M  V30 43 1 11 40
M  V30 44 1 12 41
M  V30 45 1 14 42 CFG=1
M  V30 46 1 15 43
M  V30 47 1 15 44
M  V30 48 1 15 45
M  V30 49 1 16 46
M  V30 50 1 19 47
M  V30 51 1 24 48
M  V30 52 1 24 49
M  V30 53 1 26 50
M  V30 54 1 27 51
M  V30 55 1 28 52
M  V30 56 1 30 53
M  V30 57 1 31 54
M  V30 END BOND
M  V30 END CTAB
M  END
>  <Dataset>  (458) 
ChEMBL_Kinases

>  <Ligand_Instance>  (458) 
nan

>  <PDB_ID>  (458) 
nan

>  <Standardized_SMILES>  (458) 
Cc1ccc(C(=O)Nc2cccc([C@@H](C)Nc3ncnc4c(C(N)=O)cccc34)c2)cn1

>  <Name>  (458) 
nan

>  <Pocket>  (458) 
nan

>  <ATP_Site>  (458) 
nan

>  <Peripheral>  (458) 
nan

>  <Num_H_Atoms_ProtBoundConf>  (458) 
nan

>  <Num_Resolved_Atoms>  (458) 
nan

>  <Num_Not_Resolved_Atoms>  (458) 
nan

$$$$
CHEMBL3911258
     RDKit          3D

  0  0  0  0  0  0  0  0  0  0999 V3000
M  V30 BEGIN CTAB
M  V30 COUNTS 52 56 0 0 0
M  V30 BEGIN ATOM
M  V30 1 N 4.592243 -2.780652 1.647719 0
M  V30 2 C 4.129328 -1.413379 1.927512 0 CFG=2
M  V30 3 C 4.212177 -1.112476 3.379973 0
M  V30 4 C 3.199341 -0.157100 3.914814 0
M  V30 5 C 2.648126 0.792913 2.901690 0
M  V30 6 N 2.376790 0.178227 1.630694 0
M  V30 7 C 1.785924 0.791968 0.498782 0
M  V30 8 C 2.593516 1.022253 -0.593852 0
M  V30 9 C 2.067178 1.641095 -1.723721 0
M  V30 10 N 0.796662 2.028475 -1.800281 0
M  V30 11 C -0.007137 1.813363 -0.747741 0
M  V30 12 C 0.477717 1.204240 0.385507 0
M  V30 13 N -0.397095 0.974428 1.450276 0
M  V30 14 C -1.754718 1.393909 1.391260 0
M  V30 15 N -2.414266 2.505856 1.831264 0
M  V30 16 C -3.726068 2.384573 1.489410 0
M  V30 17 C -3.908707 1.194129 0.829491 0
M  V30 18 C -5.008091 0.585042 0.275588 0
M  V30 19 C -4.910387 -0.636629 -0.343957 0
M  V30 20 C -3.658019 -1.211514 -0.378100 0
M  V30 21 C -3.212440 -2.489958 -0.957449 0
M  V30 22 C -2.821680 -2.425009 -2.288456 0
M  V30 23 F -2.814361 -1.324787 -3.094753 0
M  V30 24 C -2.377080 -3.547617 -2.952872 0
M  V30 25 C -2.320277 -4.759439 -2.278765 0
M  V30 26 C -2.714354 -4.824660 -0.937419 0
M  V30 27 C -3.156735 -3.689949 -0.288676 0
M  V30 28 F -3.549392 -3.696021 1.007191 0
M  V30 29 N -2.617513 -0.572716 0.178963 0
M  V30 30 N -2.689973 0.605244 0.781033 0
M  V30 31 C 2.717498 -1.216338 1.445206 0
M  V30 32 H 5.620886 -2.736938 1.590108 0
M  V30 33 H 4.120565 -3.187753 0.801097 0
M  V30 34 H 4.818633 -0.745662 1.337915 0
M  V30 35 H 4.069615 -2.081798 3.940695 0
M  V30 36 H 5.275465 -0.827970 3.622782 0
M  V30 37 H 2.370312 -0.643747 4.484946 0
M  V30 38 H 3.737540 0.466348 4.681624 0
M  V30 39 H 1.702524 1.212657 3.292800 0
M  V30 40 H 3.330864 1.666431 2.815208 0
M  V30 41 H 3.631523 0.761760 -0.666494 0
M  V30 42 H 2.692706 1.830528 -2.598886 0
M  V30 43 H -1.047873 2.135810 -0.824487 0
M  V30 44 H -0.368565 0.537466 2.387238 0
M  V30 45 H -4.502395 3.115565 1.706107 0
M  V30 46 H -5.997626 1.018047 0.291384 0
M  V30 47 H -5.654767 -1.236871 -0.817972 0
M  V30 48 H -2.049386 -3.623305 -3.974027 0
M  V30 49 H -1.978877 -5.681365 -2.742255 0
M  V30 50 H -2.676817 -5.754093 -0.398407 0
M  V30 51 H 2.035258 -1.827649 2.084863 0
M  V30 52 H 2.696553 -1.551478 0.389115 0
M  V30 END ATOM
M  V30 BEGIN BOND
M  V30 1 1 1 2
M  V30 2 1 2 3
M  V30 3 1 3 4
M  V30 4 1 4 5
M  V30 5 1 5 6
M  V30 6 1 6 7
M  V30 7 2 7 8
M  V30 8 1 8 9
M  V30 9 2 9 10
M  V30 10 1 10 11
M  V30 11 2 11 12
M  V30 12 1 12 13
M  V30 13 1 13 14
M  V30 14 2 14 15
M  V30 15 1 15 16
M  V30 16 2 16 17
M  V30 17 1 17 18
M  V30 18 2 18 19
M  V30 19 1 19 20
M  V30 20 1 20 21
M  V30 21 2 21 22
M  V30 22 1 22 23
M  V30 23 1 22 24
M  V30 24 2 24 25
M  V30 25 1 25 26
M  V30 26 2 26 27
M  V30 27 1 27 28
M  V30 28 2 20 29
M  V30 29 1 29 30
M  V30 30 1 6 31
M  V30 31 1 31 2
M  V30 32 1 12 7
M  V30 33 1 30 14
M  V30 34 1 30 17
M  V30 35 1 27 21
M  V30 36 1 1 32
M  V30 37 1 1 33
M  V30 38 1 2 34 CFG=3
M  V30 39 1 3 35
M  V30 40 1 3 36
M  V30 41 1 4 37
M  V30 42 1 4 38
M  V30 43 1 5 39
M  V30 44 1 5 40
M  V30 45 1 8 41
M  V30 46 1 9 42
M  V30 47 1 11 43
M  V30 48 1 13 44
M  V30 49 1 16 45
M  V30 50 1 18 46
M  V30 51 1 19 47
M  V30 52 1 24 48
M  V30 53 1 25 49
M  V30 54 1 26 50
M  V30 55 1 31 51
M  V30 56 1 31 52
M  V30 END BOND
M  V30 END CTAB
M  END
>  <Dataset>  (459) 
ChEMBL_Kinases

>  <Ligand_Instance>  (459) 
nan

>  <PDB_ID>  (459) 
nan

>  <Standardized_SMILES>  (459) 
N[C@@H]1CCCN(c2ccncc2Nc2ncc3ccc(-c4c(F)cccc4F)nn23)C1

>  <Name>  (459) 
nan

>  <Pocket>  (459) 
nan

>  <ATP_Site>  (459) 
nan

>  <Peripheral>  (459) 
nan

>  <Num_H_Atoms_ProtBoundConf>  (459) 
nan

>  <Num_Resolved_Atoms>  (459) 
nan

>  <Num_Not_Resolved_Atoms>  (459) 
nan

$$$$
CHEMBL364370
     RDKit          3D

  0  0  0  0  0  0  0  0  0  0999 V3000
M  V30 BEGIN CTAB
M  V30 COUNTS 34 37 0 0 0
M  V30 BEGIN ATOM
M  V30 1 F -0.708799 -4.714012 4.433813 0
M  V30 2 C -0.138545 -4.102840 3.354628 0
M  V30 3 C -0.095995 -4.843688 2.179669 0
M  V30 4 C 0.474703 -4.226782 1.094729 0
M  V30 5 C 0.963234 -2.955904 1.198407 0
M  V30 6 N 1.539202 -2.340703 0.034286 0
M  V30 7 C 2.072451 -1.003269 -0.030827 0
M  V30 8 N 3.296682 -0.456141 0.021971 0
M  V30 9 C 3.481800 0.867665 -0.054554 0
M  V30 10 C 2.410755 1.700756 -0.190241 0
M  V30 11 C 1.136429 1.177874 -0.248299 0
M  V30 12 C -0.019698 2.062364 -0.393579 0
M  V30 13 C -0.115665 3.432548 -0.472919 0
M  V30 14 N -1.410037 3.754153 -0.607667 0
M  V30 15 N -2.172506 2.654265 -0.620813 0
M  V30 16 N -3.476822 2.503261 -0.732499 0
M  V30 17 C -4.064193 1.294423 -0.725406 0
M  V30 18 C -3.256489 0.171383 -0.593600 0
M  V30 19 C -1.869306 0.340087 -0.474542 0
M  V30 20 C -1.321464 1.600015 -0.488340 0
M  V30 21 N 1.011559 -0.177512 -0.165302 0
M  V30 22 C 0.926805 -2.204193 2.370610 0
M  V30 23 C 0.345383 -2.831974 3.477500 0
M  V30 24 F 0.239893 -2.231065 4.674654 0
M  V30 25 H -0.478927 -5.848557 2.087417 0
M  V30 26 H 0.523069 -4.776885 0.168915 0
M  V30 27 H 1.606974 -2.849470 -0.863279 0
M  V30 28 H 4.528257 1.129874 0.002791 0
M  V30 29 H 2.620697 2.755177 -0.247383 0
M  V30 30 H 0.748636 4.087009 -0.426519 0
M  V30 31 H -5.137163 1.089216 -0.814865 0
M  V30 32 H -3.670932 -0.831951 -0.580482 0
M  V30 33 H -1.303902 -0.571623 -0.374986 0
M  V30 34 H 1.312307 -1.196984 2.464955 0
M  V30 END ATOM
M  V30 BEGIN BOND
M  V30 1 1 1 2
M  V30 2 2 2 3
M  V30 3 1 3 4
M  V30 4 2 4 5
M  V30 5 1 5 6
M  V30 6 1 6 7
M  V30 7 2 7 8
M  V30 8 1 8 9
M  V30 9 2 9 10
M  V30 10 1 10 11
M  V30 11 1 11 12
M  V30 12 1 12 13
M  V30 13 2 13 14
M  V30 14 1 14 15
M  V30 15 1 15 16
M  V30 16 2 16 17
M  V30 17 1 17 18
M  V30 18 2 18 19
M  V30 19 1 19 20
M  V30 20 2 11 21
M  V30 21 1 5 22
M  V30 22 2 22 23
M  V30 23 1 23 24
M  V30 24 1 23 2
M  V30 25 1 21 7
M  V30 26 2 20 12
M  V30 27 1 20 15
M  V30 28 1 3 25
M  V30 29 1 4 26
M  V30 30 1 6 27
M  V30 31 1 9 28
M  V30 32 1 10 29
M  V30 33 1 13 30
M  V30 34 1 17 31
M  V30 35 1 18 32
M  V30 36 1 19 33
M  V30 37 1 22 34
M  V30 END BOND
M  V30 END CTAB
M  END
>  <Dataset>  (460) 
ChEMBL_Kinases

>  <Ligand_Instance>  (460) 
nan

>  <PDB_ID>  (460) 
nan

>  <Standardized_SMILES>  (460) 
Fc1ccc(Nc2nccc(-c3cnn4ncccc34)n2)cc1F

>  <Name>  (460) 
nan

>  <Pocket>  (460) 
nan

>  <ATP_Site>  (460) 
nan

>  <Peripheral>  (460) 
nan

>  <Num_H_Atoms_ProtBoundConf>  (460) 
nan

>  <Num_Resolved_Atoms>  (460) 
nan

>  <Num_Not_Resolved_Atoms>  (460) 
nan

$$$$
CHEMBL3639793
     RDKit          3D

  0  0  0  0  0  0  0  0  0  0999 V3000
M  V30 BEGIN CTAB
M  V30 COUNTS 67 71 0 0 0
M  V30 BEGIN ATOM
M  V30 1 C 1.864928 -2.868988 4.758182 0
M  V30 2 C 0.959205 -1.673962 4.916696 0 CFG=1
M  V30 3 N 1.637287 -0.450197 5.196449 0
M  V30 4 C 2.324733 0.681644 5.624906 0
M  V30 5 N 2.666563 0.557497 6.938092 0
M  V30 6 C 3.311511 1.536963 7.592308 0
M  V30 7 N 3.614242 2.652900 6.908315 0
M  V30 8 C 3.303295 2.829432 5.613064 0
M  V30 9 C 3.594185 3.952315 4.865562 0
M  V30 10 C 4.289396 5.005553 5.589253 0
M  V30 11 N 4.592112 6.194195 4.874607 0
M  V30 12 O 4.617531 4.900328 6.784915 0
M  V30 13 C 3.235248 4.048802 3.518410 0
M  V30 14 C 2.561176 3.007663 2.863661 0
M  V30 15 C 2.301117 1.920676 3.661965 0
M  V30 16 C 2.652057 1.834258 4.964243 0
M  V30 17 C -0.176423 -1.661291 4.002060 0
M  V30 18 C -1.164942 -0.741630 4.252701 0
M  V30 19 C -2.327406 -0.538290 3.545279 0
M  V30 20 C -2.479697 -1.383525 2.453669 0
M  V30 21 C -1.509063 -2.347552 2.132985 0
M  V30 22 N -1.804368 -3.110505 0.971435 0
M  V30 23 C -1.240798 -2.264281 -0.061462 0
M  V30 24 O -0.746029 -1.251893 0.549786 0
M  V30 25 C -1.231643 -2.510772 -1.529162 0
M  V30 26 C -1.841100 -3.610105 -2.077441 0
M  V30 27 C -1.766386 -3.700581 -3.466658 0
M  V30 28 C -1.115947 -2.739882 -4.248787 0
M  V30 29 C -1.093787 -2.901829 -5.748282 0
M  V30 30 N -2.248885 -2.214500 -6.281144 0
M  V30 31 C -2.274702 -2.391931 -7.715268 0
M  V30 32 C -3.691933 -2.073671 -8.098863 0
M  V30 33 C -4.505742 -2.272194 -6.849988 0
M  V30 34 C -3.489026 -2.911468 -5.895828 0
M  V30 35 C -0.533923 -1.670141 -3.586605 0
M  V30 36 C -0.565966 -1.509195 -2.203724 0
M  V30 37 C -0.386691 -2.465757 2.909209 0
M  V30 38 H 2.334913 -2.921086 3.755710 0
M  V30 39 H 2.648152 -2.818591 5.558324 0
M  V30 40 H 1.258598 -3.774503 4.952346 0
M  V30 41 H 0.467094 -1.911838 5.966273 0
M  V30 42 H 1.455779 -0.262823 4.223410 0
M  V30 43 H 3.660059 1.634974 8.599624 0
M  V30 44 H 4.197460 6.956553 4.320157 0
M  V30 45 H 5.491666 6.721207 4.682833 0
M  V30 46 H 3.535881 4.990404 3.088638 0
M  V30 47 H 2.332764 3.184352 1.823997 0
M  V30 48 H 1.778383 1.160552 3.091991 0
M  V30 49 H -1.076315 -0.054267 5.107167 0
M  V30 50 H -3.091425 0.185910 3.768237 0
M  V30 51 H -3.388949 -1.262501 1.850706 0
M  V30 52 H -2.254048 -4.002471 0.603355 0
M  V30 53 H -2.335243 -4.338493 -1.453255 0
M  V30 54 H -2.226508 -4.547576 -3.926046 0
M  V30 55 H -1.214825 -4.001329 -5.987150 0
M  V30 56 H -0.152159 -2.584767 -6.197760 0
M  V30 57 H -2.088582 -3.452436 -7.983527 0
M  V30 58 H -1.586008 -1.701101 -8.247215 0
M  V30 59 H -3.806897 -1.024515 -8.499956 0
M  V30 60 H -4.065941 -2.770390 -8.907245 0
M  V30 61 H -4.849514 -1.289320 -6.441695 0
M  V30 62 H -5.334310 -2.969625 -7.000561 0
M  V30 63 H -3.768242 -2.679350 -4.876739 0
M  V30 64 H -3.450380 -3.985775 -6.101422 0
M  V30 65 H -0.056056 -0.986340 -4.282352 0
M  V30 66 H -0.087769 -0.649992 -1.775945 0
M  V30 67 H 0.353057 -3.203168 2.668335 0
M  V30 END ATOM
M  V30 BEGIN BOND
M  V30 1 1 1 2
M  V30 2 1 2 3
M  V30 3 1 3 4
M  V30 4 2 4 5
M  V30 5 1 5 6
M  V30 6 2 6 7
M  V30 7 1 7 8
M  V30 8 2 8 9
M  V30 9 1 9 10
M  V30 10 1 10 11
M  V30 11 2 10 12
M  V30 12 1 9 13
M  V30 13 2 13 14
M  V30 14 1 14 15
M  V30 15 2 15 16
M  V30 16 1 2 17
M  V30 17 2 17 18
M  V30 18 1 18 19
M  V30 19 2 19 20
M  V30 20 1 20 21
M  V30 21 1 21 22
M  V30 22 1 22 23
M  V30 23 2 23 24
M  V30 24 1 23 25
M  V30 25 2 25 26
M  V30 26 1 26 27
M  V30 27 2 27 28
M  V30 28 1 28 29
M  V30 29 1 29 30
M  V30 30 1 30 31
M  V30 31 1 31 32
M  V30 32 1 32 33
M  V30 33 1 33 34
M  V30 34 1 28 35
M  V30 35 2 35 36
M  V30 36 2 21 37
M  V30 37 1 16 4
M  V30 38 1 37 17
M  V30 39 1 16 8
M  V30 40 1 36 25
M  V30 41 1 34 30
M  V30 42 1 1 38
M  V30 43 1 1 39
M  V30 44 1 1 40
M  V30 45 1 2 41 CFG=1
M  V30 46 1 3 42
M  V30 47 1 6 43
M  V30 48 1 11 44
M  V30 49 1 11 45
M  V30 50 1 13 46
M  V30 51 1 14 47
M  V30 52 1 15 48
M  V30 53 1 18 49
M  V30 54 1 19 50
M  V30 55 1 20 51
M  V30 56 1 22 52
M  V30 57 1 26 53
M  V30 58 1 27 54
M  V30 59 1 29 55
M  V30 60 1 29 56
M  V30 61 1 31 57
M  V30 62 1 31 58
M  V30 63 1 32 59
M  V30 64 1 32 60
M  V30 65 1 33 61
M  V30 66 1 33 62
M  V30 67 1 34 63
M  V30 68 1 34 64
M  V30 69 1 35 65
M  V30 70 1 36 66
M  V30 71 1 37 67
M  V30 END BOND
M  V30 END CTAB
M  END
>  <Dataset>  (461) 
ChEMBL_Kinases

>  <Ligand_Instance>  (461) 
nan

>  <PDB_ID>  (461) 
nan

>  <Standardized_SMILES>  (461) 
C[C@@H](Nc1ncnc2c(C(N)=O)cccc12)c1cccc(NC(=O)c2ccc(CN3CCCC3)cc2)c1

>  <Name>  (461) 
nan

>  <Pocket>  (461) 
nan

>  <ATP_Site>  (461) 
nan

>  <Peripheral>  (461) 
nan

>  <Num_H_Atoms_ProtBoundConf>  (461) 
nan

>  <Num_Resolved_Atoms>  (461) 
nan

>  <Num_Not_Resolved_Atoms>  (461) 
nan

$$$$
CHEMBL3639794
     RDKit          3D

  0  0  0  0  0  0  0  0  0  0999 V3000
M  V30 BEGIN CTAB
M  V30 COUNTS 53 57 0 0 0
M  V30 BEGIN ATOM
M  V30 1 C 7.052917 -2.441825 5.402895 0
M  V30 2 O 6.300507 -1.463741 6.086871 0
M  V30 3 C 5.330126 -0.777559 5.392426 0
M  V30 4 C 4.534535 0.205506 5.975888 0
M  V30 5 C 3.547122 0.934142 5.352323 0
M  V30 6 C 3.289686 0.696832 4.018377 0
M  V30 7 N 2.419007 1.246974 3.216756 0
M  V30 8 C 2.197052 1.053870 2.099580 0
M  V30 9 N 1.273662 1.562866 1.104412 0
M  V30 10 C 1.202689 1.205109 -0.254244 0
M  V30 11 C 2.107768 0.600719 -1.075119 0
M  V30 12 C 1.919161 0.276174 -2.398111 0
M  V30 13 C 0.699843 0.585761 -2.966114 0
M  V30 14 C -0.263908 1.206482 -2.168203 0
M  V30 15 C -1.511966 1.480682 -2.928250 0
M  V30 16 N -2.419358 0.348451 -2.961365 0
M  V30 17 C -3.039228 -0.277104 -1.843031 0
M  V30 18 N -2.826238 0.154245 -0.611812 0
M  V30 19 C -3.358745 -0.358663 0.504973 0
M  V30 20 N -4.188484 -1.412185 0.358214 0
M  V30 21 C -4.471654 -1.926093 -0.836890 0
M  V30 22 C -5.319884 -3.007193 -1.016652 0
M  V30 23 C -5.925589 -3.600929 0.183177 0
M  V30 24 N -5.658220 -3.093842 1.483308 0
M  V30 25 O -6.706792 -4.584435 0.104960 0
M  V30 26 C -5.629312 -3.557715 -2.240601 0
M  V30 27 C -5.033177 -2.963599 -3.342724 0
M  V30 28 C -4.188943 -1.888073 -3.167099 0
M  V30 29 C -3.886126 -1.345203 -1.939513 0
M  V30 30 C -0.025334 1.508241 -0.857291 0
M  V30 31 S 3.457503 -0.310946 1.702571 0
M  V30 32 C 4.115077 -0.306928 3.457319 0
M  V30 33 C 5.114927 -1.053698 4.063971 0
M  V30 34 H 6.340371 -3.092762 4.857403 0
M  V30 35 H 7.765014 -2.967467 6.036008 0
M  V30 36 H 7.625222 -1.880894 4.606673 0
M  V30 37 H 4.738320 0.393958 7.033678 0
M  V30 38 H 3.020586 1.664086 5.955683 0
M  V30 39 H 0.647645 2.249919 1.522275 0
M  V30 40 H 3.059445 0.366035 -0.638349 0
M  V30 41 H 2.721101 -0.203912 -2.941164 0
M  V30 42 H 0.591111 0.313042 -4.011879 0
M  V30 43 H -2.043988 2.377253 -2.491226 0
M  V30 44 H -1.300538 1.783102 -3.970086 0
M  V30 45 H -2.617118 -0.021776 -3.910644 0
M  V30 46 H -3.099072 0.092713 1.453212 0
M  V30 47 H -6.507578 -2.786651 2.037017 0
M  V30 48 H -4.898717 -2.889183 2.158664 0
M  V30 49 H -6.303880 -4.403314 -2.278066 0
M  V30 50 H -5.281550 -3.402321 -4.302330 0
M  V30 51 H -3.796972 -1.526033 -4.103599 0
M  V30 52 H -0.812074 1.992989 -0.316705 0
M  V30 53 H 5.630113 -1.769091 3.470038 0
M  V30 END ATOM
M  V30 BEGIN BOND
M  V30 1 1 1 2
M  V30 2 1 2 3
M  V30 3 2 3 4
M  V30 4 1 4 5
M  V30 5 2 5 6
M  V30 6 1 6 7
M  V30 7 2 7 8
M  V30 8 1 8 9
M  V30 9 1 9 10
M  V30 10 2 10 11
M  V30 11 1 11 12
M  V30 12 2 12 13
M  V30 13 1 13 14
M  V30 14 1 14 15
M  V30 15 1 15 16
M  V30 16 1 16 17
M  V30 17 2 17 18
M  V30 18 1 18 19
M  V30 19 2 19 20
M  V30 20 1 20 21
M  V30 21 2 21 22
M  V30 22 1 22 23
M  V30 23 1 23 24
M  V30 24 2 23 25
M  V30 25 1 22 26
M  V30 26 2 26 27
M  V30 27 1 27 28
M  V30 28 2 28 29
M  V30 29 2 14 30
M  V30 30 1 8 31
M  V30 31 1 31 32
M  V30 32 2 32 33
M  V30 33 1 33 3
M  V30 34 1 32 6
M  V30 35 1 30 10
M  V30 36 1 29 17
M  V30 37 1 29 21
M  V30 38 1 1 34
M  V30 39 1 1 35
M  V30 40 1 1 36
M  V30 41 1 4 37
M  V30 42 1 5 38
M  V30 43 1 9 39
M  V30 44 1 11 40
M  V30 45 1 12 41
M  V30 46 1 13 42
M  V30 47 1 15 43
M  V30 48 1 15 44
M  V30 49 1 16 45
M  V30 50 1 19 46
M  V30 51 1 24 47
M  V30 52 1 24 48
M  V30 53 1 26 49
M  V30 54 1 27 50
M  V30 55 1 28 51
M  V30 56 1 30 52
M  V30 57 1 33 53
M  V30 END BOND
M  V30 END CTAB
M  END
>  <Dataset>  (462) 
ChEMBL_Kinases

>  <Ligand_Instance>  (462) 
nan

>  <PDB_ID>  (462) 
nan

>  <Standardized_SMILES>  (462) 
COc1ccc2nc(Nc3cccc(CNc4ncnc5c(C(N)=O)cccc45)c3)sc2c1

>  <Name>  (462) 
nan

>  <Pocket>  (462) 
nan

>  <ATP_Site>  (462) 
nan

>  <Peripheral>  (462) 
nan

>  <Num_H_Atoms_ProtBoundConf>  (462) 
nan

>  <Num_Resolved_Atoms>  (462) 
nan

>  <Num_Not_Resolved_Atoms>  (462) 
nan

$$$$
CHEMBL3911320
     RDKit          3D

  0  0  0  0  0  0  0  0  0  0999 V3000
M  V30 BEGIN CTAB
M  V30 COUNTS 41 44 0 0 0
M  V30 BEGIN ATOM
M  V30 1 N -0.544539 -5.463050 0.773605 0
M  V30 2 C 0.753318 -5.113226 1.277618 0
M  V30 3 N 1.608739 -5.853935 2.032529 0
M  V30 4 N 2.699217 -5.122809 2.264988 0
M  V30 5 C 2.574467 -3.918096 1.677858 0
M  V30 6 C 3.475394 -2.888001 1.682608 0
M  V30 7 C 3.124641 -1.746900 1.006531 0
M  V30 8 C 1.929739 -1.630652 0.351083 0
M  V30 9 C 1.398388 -0.518919 -0.408527 0
M  V30 10 O 1.293013 -0.708707 -1.668840 0
M  V30 11 N 0.920879 0.801768 -0.219017 0
M  V30 12 C 0.534797 1.332660 -1.522511 0
M  V30 13 C 0.109643 2.757285 -1.264989 0
M  V30 14 C 0.842427 3.065042 0.020629 0
M  V30 15 C 0.681947 1.815299 0.826316 0 CFG=1
M  V30 16 C -0.663522 1.638306 1.401439 0
M  V30 17 C -1.082701 0.362555 1.744731 0
M  V30 18 C -2.341385 0.093059 2.292179 0
M  V30 19 C -3.215791 1.160956 2.501389 0
M  V30 20 Cl -4.799589 0.845216 3.186911 0
M  V30 21 C -2.812951 2.442305 2.164077 0
M  V30 22 C -1.550830 2.676885 1.619998 0
M  V30 23 C 1.035547 -2.707869 0.370382 0
M  V30 24 C 1.337356 -3.895141 1.042407 0
M  V30 25 H -1.331028 -5.283541 1.436970 0
M  V30 26 H -0.841720 -5.866729 -0.140752 0
M  V30 27 H 3.449455 -5.558729 2.834190 0
M  V30 28 H 4.427495 -2.946412 2.188686 0
M  V30 29 H 3.748021 -0.866885 0.933666 0
M  V30 30 H 1.420934 1.396918 -2.189782 0
M  V30 31 H -0.249643 0.762607 -2.025906 0
M  V30 32 H -0.989099 2.804209 -1.178060 0
M  V30 33 H 0.419457 3.461847 -2.041868 0
M  V30 34 H 0.553057 3.997416 0.497026 0
M  V30 35 H 1.929810 3.107966 -0.265812 0
M  V30 36 H 1.461014 1.735433 1.626796 0
M  V30 37 H -0.414913 -0.477674 1.588575 0
M  V30 38 H -2.590041 -0.952267 2.535646 0
M  V30 39 H -3.534802 3.229958 2.346944 0
M  V30 40 H -1.261393 3.688808 1.366074 0
M  V30 41 H 0.048030 -2.753006 -0.110706 0
M  V30 END ATOM
M  V30 BEGIN BOND
M  V30 1 1 1 2
M  V30 2 2 2 3
M  V30 3 1 3 4
M  V30 4 1 4 5
M  V30 5 2 5 6
M  V30 6 1 6 7
M  V30 7 2 7 8
M  V30 8 1 8 9
M  V30 9 2 9 10
M  V30 10 1 9 11
M  V30 11 1 11 12
M  V30 12 1 12 13
M  V30 13 1 13 14
M  V30 14 1 14 15
M  V30 15 1 15 16
M  V30 16 2 16 17
M  V30 17 1 17 18
M  V30 18 2 18 19
M  V30 19 1 19 20
M  V30 20 1 19 21
M  V30 21 2 21 22
M  V30 22 1 8 23
M  V30 23 2 23 24
M  V30 24 1 24 2
M  V30 25 1 24 5
M  V30 26 1 15 11
M  V30 27 1 22 16
M  V30 28 1 1 25
M  V30 29 1 1 26
M  V30 30 1 4 27
M  V30 31 1 6 28
M  V30 32 1 7 29
M  V30 33 1 12 30
M  V30 34 1 12 31
M  V30 35 1 13 32
M  V30 36 1 13 33
M  V30 37 1 14 34
M  V30 38 1 14 35
M  V30 39 1 15 36 CFG=1
M  V30 40 1 17 37
M  V30 41 1 18 38
M  V30 42 1 21 39
M  V30 43 1 22 40
M  V30 44 1 23 41
M  V30 END BOND
M  V30 END CTAB
M  END
>  <Dataset>  (463) 
ChEMBL_Kinases

>  <Ligand_Instance>  (463) 
nan

>  <PDB_ID>  (463) 
nan

>  <Standardized_SMILES>  (463) 
Nc1n[nH]c2ccc(C(=O)N3CCC[C@H]3c3ccc(Cl)cc3)cc12

>  <Name>  (463) 
nan

>  <Pocket>  (463) 
nan

>  <ATP_Site>  (463) 
nan

>  <Peripheral>  (463) 
nan

>  <Num_H_Atoms_ProtBoundConf>  (463) 
nan

>  <Num_Resolved_Atoms>  (463) 
nan

>  <Num_Not_Resolved_Atoms>  (463) 
nan

$$$$
CHEMBL3911431
     RDKit          3D

  0  0  0  0  0  0  0  0  0  0999 V3000
M  V30 BEGIN CTAB
M  V30 COUNTS 30 32 0 0 0
M  V30 BEGIN ATOM
M  V30 1 C -1.492380 -4.143307 3.813834 0
M  V30 2 S -1.380789 -4.987609 2.210903 0
M  V30 3 C -0.135880 -4.219316 1.175103 0
M  V30 4 N 1.161455 -4.575782 1.157008 0
M  V30 5 C 2.033298 -3.930416 0.333549 0
M  V30 6 C 1.640146 -2.904234 -0.502652 0
M  V30 7 C 0.301558 -2.564448 -0.458257 0
M  V30 8 C -0.262978 -1.466947 -1.314050 0
M  V30 9 C 0.512314 -1.226217 -2.500073 0
M  V30 10 N 1.136389 -1.043280 -3.481253 0
M  V30 11 C -0.171075 -0.131154 -0.542948 0
M  V30 12 N 0.615531 0.662391 -0.428002 0
M  V30 13 C 0.668604 1.797362 0.235063 0
M  V30 14 C 1.650885 2.759832 0.361340 0
M  V30 15 C 1.436083 3.876525 1.138086 0
M  V30 16 C 0.249216 4.122866 1.839524 0
M  V30 17 C -0.774309 3.204190 1.758870 0
M  V30 18 C -0.466938 2.092504 0.942158 0
M  V30 19 S -1.547905 0.591624 0.535485 0
M  V30 20 N -0.561097 -3.220989 0.372928 0
M  V30 21 H -0.653582 -4.449686 4.495616 0
M  V30 22 H -2.434138 -4.485900 4.298306 0
M  V30 23 H -1.505517 -3.033013 3.688626 0
M  V30 24 H 3.075009 -4.250956 0.350576 0
M  V30 25 H 2.321624 -2.382718 -1.161944 0
M  V30 26 H -1.340217 -1.653319 -1.528188 0
M  V30 27 H 2.613272 2.702980 -0.120940 0
M  V30 28 H 2.220658 4.649202 1.241384 0
M  V30 29 H 0.036122 4.977762 2.456909 0
M  V30 30 H -1.742483 3.214911 2.215944 0
M  V30 END ATOM
M  V30 BEGIN BOND
M  V30 1 1 1 2
M  V30 2 1 2 3
M  V30 3 2 3 4
M  V30 4 1 4 5
M  V30 5 2 5 6
M  V30 6 1 6 7
M  V30 7 1 7 8
M  V30 8 1 8 9
M  V30 9 3 9 10
M  V30 10 1 8 11
M  V30 11 2 11 12
M  V30 12 1 12 13
M  V30 13 2 13 14
M  V30 14 1 14 15
M  V30 15 2 15 16
M  V30 16 1 16 17
M  V30 17 2 17 18
M  V30 18 1 18 19
M  V30 19 2 7 20
M  V30 20 1 20 3
M  V30 21 1 19 11
M  V30 22 1 18 13
M  V30 23 1 1 21
M  V30 24 1 1 22
M  V30 25 1 1 23
M  V30 26 1 5 24
M  V30 27 1 6 25
M  V30 28 1 8 26
M  V30 29 1 14 27
M  V30 30 1 15 28
M  V30 31 1 16 29
M  V30 32 1 17 30
M  V30 END BOND
M  V30 END CTAB
M  END
>  <Dataset>  (464) 
ChEMBL_Kinases

>  <Ligand_Instance>  (464) 
nan

>  <PDB_ID>  (464) 
nan

>  <Standardized_SMILES>  (464) 
CSc1nccc(C(C#N)c2nc3ccccc3s2)n1

>  <Name>  (464) 
nan

>  <Pocket>  (464) 
nan

>  <ATP_Site>  (464) 
nan

>  <Peripheral>  (464) 
nan

>  <Num_H_Atoms_ProtBoundConf>  (464) 
nan

>  <Num_Resolved_Atoms>  (464) 
nan

>  <Num_Not_Resolved_Atoms>  (464) 
nan

$$$$
CHEMBL4071201
     RDKit          3D

  0  0  0  0  0  0  0  0  0  0999 V3000
M  V30 BEGIN CTAB
M  V30 COUNTS 32 34 0 0 0
M  V30 BEGIN ATOM
M  V30 1 Cl -3.551796 -1.611097 4.572253 0
M  V30 2 C -2.341486 -2.170567 3.430290 0
M  V30 3 C -1.178475 -1.467396 3.324855 0
M  V30 4 C -0.156333 -1.809649 2.464546 0
M  V30 5 C -0.303028 -2.920043 1.660875 0
M  V30 6 C 0.613275 -3.512819 0.653509 0
M  V30 7 N 0.393693 -3.016125 -0.688734 0
M  V30 8 C 0.519291 -1.659586 -1.082961 0
M  V30 9 N 0.853203 -0.580517 -0.357209 0
M  V30 10 C 0.864247 0.543325 -1.098057 0
M  V30 11 C 1.209114 1.810081 -0.455818 0
M  V30 12 C 0.119650 2.585770 -0.097526 0
M  V30 13 C 0.375885 3.804047 0.518166 0
M  V30 14 N 1.634064 4.262695 0.781250 0
M  V30 15 C 2.681644 3.487328 0.422004 0
M  V30 16 C 2.491812 2.258126 -0.197377 0
M  V30 17 N 0.520846 0.123650 -2.329333 0
M  V30 18 N 0.315721 -1.182990 -2.322712 0
M  V30 19 C -1.493021 -3.647571 1.762495 0
M  V30 20 C -2.501392 -3.289767 2.627428 0
M  V30 21 H -0.977700 -0.586564 3.913800 0
M  V30 22 H 0.782701 -1.320453 2.321027 0
M  V30 23 H 1.649984 -3.146748 0.926372 0
M  V30 24 H 0.607019 -4.605134 0.685188 0
M  V30 25 H 0.119419 -3.731922 -1.417501 0
M  V30 26 H -0.917206 2.284273 -0.276121 0
M  V30 27 H -0.495046 4.409991 0.797513 0
M  V30 28 H 3.705297 3.813768 0.612706 0
M  V30 29 H 3.291204 1.597117 -0.506191 0
M  V30 30 H 0.040675 -1.712230 -3.173327 0
M  V30 31 H -1.742345 -4.535638 1.195681 0
M  V30 32 H -3.433031 -3.817652 2.740286 0
M  V30 END ATOM
M  V30 BEGIN BOND
M  V30 1 1 1 2
M  V30 2 2 2 3
M  V30 3 1 3 4
M  V30 4 2 4 5
M  V30 5 1 5 6
M  V30 6 1 6 7
M  V30 7 1 7 8
M  V30 8 2 8 9
M  V30 9 1 9 10
M  V30 10 1 10 11
M  V30 11 2 11 12
M  V30 12 1 12 13
M  V30 13 2 13 14
M  V30 14 1 14 15
M  V30 15 2 15 16
M  V30 16 2 10 17
M  V30 17 1 17 18
M  V30 18 1 5 19
M  V30 19 2 19 20
M  V30 20 1 20 2
M  V30 21 1 18 8
M  V30 22 1 16 11
M  V30 23 1 3 21
M  V30 24 1 4 22
M  V30 25 1 6 23
M  V30 26 1 6 24
M  V30 27 1 7 25
M  V30 28 1 12 26
M  V30 29 1 13 27
M  V30 30 1 15 28
M  V30 31 1 16 29
M  V30 32 1 18 30
M  V30 33 1 19 31
M  V30 34 1 20 32
M  V30 END BOND
M  V30 END CTAB
M  END
>  <Dataset>  (465) 
ChEMBL_Kinases

>  <Ligand_Instance>  (465) 
nan

>  <PDB_ID>  (465) 
nan

>  <Standardized_SMILES>  (465) 
Clc1ccc(CNc2nc(-c3ccncc3)n[nH]2)cc1

>  <Name>  (465) 
nan

>  <Pocket>  (465) 
nan

>  <ATP_Site>  (465) 
nan

>  <Peripheral>  (465) 
nan

>  <Num_H_Atoms_ProtBoundConf>  (465) 
nan

>  <Num_Resolved_Atoms>  (465) 
nan

>  <Num_Not_Resolved_Atoms>  (465) 
nan

$$$$
CHEMBL3639841
     RDKit          3D

  0  0  0  0  0  0  0  0  0  0999 V3000
M  V30 BEGIN CTAB
M  V30 COUNTS 52 56 0 0 0
M  V30 BEGIN ATOM
M  V30 1 N 3.868286 -5.232852 4.032532 0
M  V30 2 C 4.133382 -4.239057 3.051421 0
M  V30 3 O 5.015046 -4.513579 2.165961 0
M  V30 4 C 3.427076 -2.967480 3.062561 0
M  V30 5 C 2.485375 -2.614539 4.016257 0
M  V30 6 C 1.855518 -1.392625 3.952961 0
M  V30 7 C 2.165987 -0.529336 2.941838 0
M  V30 8 C 3.099119 -0.787090 1.931407 0
M  V30 9 C 3.430056 0.060241 0.894115 0
M  V30 10 N 2.705753 1.265456 0.975607 0
M  V30 11 C 1.986022 2.465825 1.054569 0
M  V30 12 C 1.043574 2.737594 -0.091629 0
M  V30 13 C 1.340264 3.399165 -1.260558 0
M  V30 14 C 0.360181 3.564266 -2.226502 0
M  V30 15 C -0.923387 3.089857 -2.072603 0
M  V30 16 C -1.279199 2.420261 -0.924233 0
M  V30 17 N -2.543734 1.843747 -0.562705 0
M  V30 18 C -2.526564 0.478611 -0.997866 0
M  V30 19 O -1.420175 0.184608 -1.569977 0
M  V30 20 C -3.640138 -0.461525 -0.807898 0
M  V30 21 C -4.847393 -0.197660 -0.222821 0
M  V30 22 C -5.785036 -1.202856 -0.115257 0
M  V30 23 C -5.593590 -2.494190 -0.566280 0
M  V30 24 C -4.360049 -2.711733 -1.149384 0
M  V30 25 C -3.392786 -1.741055 -1.279291 0
M  V30 26 O -4.348954 -4.056821 -1.539793 0
M  V30 27 C -5.369539 -4.708527 -0.781808 0
M  V30 28 F -5.866431 -5.789358 -1.441111 0
M  V30 29 F -4.957013 -5.062110 0.470614 0
M  V30 30 O -6.343313 -3.669120 -0.586489 0
M  V30 31 C -0.269654 2.269965 0.029370 0
M  V30 32 N 4.340796 -0.384710 0.034727 0
M  V30 33 C 4.928155 -1.567907 0.124944 0
M  V30 34 N 4.568481 -2.339974 1.144911 0
M  V30 35 C 3.669438 -2.031910 2.087015 0
M  V30 36 H 3.760508 -6.243177 3.721750 0
M  V30 37 H 3.739071 -5.251798 5.049758 0
M  V30 38 H 2.269084 -3.316572 4.792624 0
M  V30 39 H 1.125605 -1.133164 4.700759 0
M  V30 40 H 1.645217 0.411253 2.939498 0
M  V30 41 H 3.119406 1.688577 0.086183 0
M  V30 42 H 1.322295 2.507202 1.995601 0
M  V30 43 H 2.650707 3.355851 1.247640 0
M  V30 44 H 2.339418 3.754998 -1.352793 0
M  V30 45 H 0.597247 4.085173 -3.144369 0
M  V30 46 H -1.731208 3.185346 -2.784277 0
M  V30 47 H -3.383701 2.202667 -0.089567 0
M  V30 48 H -4.985831 0.806392 0.123246 0
M  V30 49 H -6.744180 -0.983981 0.352749 0
M  V30 50 H -2.451174 -2.014505 -1.755396 0
M  V30 51 H -0.500909 1.740087 0.970214 0
M  V30 52 H 5.637233 -1.774475 -0.644537 0
M  V30 END ATOM
M  V30 BEGIN BOND
M  V30 1 1 1 2
M  V30 2 2 2 3
M  V30 3 1 2 4
M  V30 4 2 4 5
M  V30 5 1 5 6
M  V30 6 2 6 7
M  V30 7 1 7 8
M  V30 8 2 8 9
M  V30 9 1 9 10
M  V30 10 1 10 11
M  V30 11 1 11 12
M  V30 12 2 12 13
M  V30 13 1 13 14
M  V30 14 2 14 15
M  V30 15 1 15 16
M  V30 16 1 16 17
M  V30 17 1 17 18
M  V30 18 2 18 19
M  V30 19 1 18 20
M  V30 20 2 20 21
M  V30 21 1 21 22
M  V30 22 2 22 23
M  V30 23 1 23 24
M  V30 24 2 24 25
M  V30 25 1 24 26
M  V30 26 1 26 27
M  V30 27 1 27 28
M  V30 28 1 27 29
M  V30 29 1 27 30
M  V30 30 2 16 31
M  V30 31 1 9 32
M  V30 32 2 32 33
M  V30 33 1 33 34
M  V30 34 2 34 35
M  V30 35 1 35 4
M  V30 36 1 35 8
M  V30 37 1 31 12
M  V30 38 1 25 20
M  V30 39 1 30 23
M  V30 40 1 1 36
M  V30 41 1 1 37
M  V30 42 1 5 38
M  V30 43 1 6 39
M  V30 44 1 7 40
M  V30 45 1 10 41
M  V30 46 1 11 42
M  V30 47 1 11 43
M  V30 48 1 13 44
M  V30 49 1 14 45
M  V30 50 1 15 46
M  V30 51 1 17 47
M  V30 52 1 21 48
M  V30 53 1 22 49
M  V30 54 1 25 50
M  V30 55 1 31 51
M  V30 56 1 33 52
M  V30 END BOND
M  V30 END CTAB
M  END
>  <Dataset>  (466) 
ChEMBL_Kinases

>  <Ligand_Instance>  (466) 
nan

>  <PDB_ID>  (466) 
nan

>  <Standardized_SMILES>  (466) 
NC(=O)c1cccc2c(NCc3cccc(NC(=O)c4ccc5c(c4)OC(F)(F)O5)c3)ncnc12

>  <Name>  (466) 
nan

>  <Pocket>  (466) 
nan

>  <ATP_Site>  (466) 
nan

>  <Peripheral>  (466) 
nan

>  <Num_H_Atoms_ProtBoundConf>  (466) 
nan

>  <Num_Resolved_Atoms>  (466) 
nan

>  <Num_Not_Resolved_Atoms>  (466) 
nan

$$$$
CHEMBL3639862
     RDKit          3D

  0  0  0  0  0  0  0  0  0  0999 V3000
M  V30 BEGIN CTAB
M  V30 COUNTS 65 68 0 0 0
M  V30 BEGIN ATOM
M  V30 1 C 1.229015 -3.173964 2.846472 0
M  V30 2 C 1.986742 -2.431387 1.791368 0 CFG=1
M  V30 3 C 1.290230 -2.401072 0.440469 0
M  V30 4 C 2.417884 -2.007651 -0.523734 0 CFG=1
M  V30 5 C 2.148333 -2.335613 -1.920710 0
M  V30 6 C 2.777718 -3.356362 -2.650122 0
M  V30 7 C 2.530496 -3.655098 -3.967132 0
M  V30 8 N 1.621544 -2.939716 -4.652214 0
M  V30 9 C 0.968329 -1.927996 -4.003455 0
M  V30 10 C 1.231388 -1.637990 -2.665819 0
M  V30 11 N 0.417468 -0.574917 -2.221094 0
M  V30 12 C 0.305092 0.839757 -2.124035 0
M  V30 13 O 1.237418 1.590667 -2.576684 0
M  V30 14 C -0.895256 1.371229 -1.499559 0
M  V30 15 C -0.987277 2.715880 -1.406152 0
M  V30 16 C -2.093453 3.349082 -0.828184 0
M  V30 17 C -3.143635 2.604566 -0.326680 0
M  V30 18 F -4.227498 3.185223 0.238078 0
M  V30 19 C -3.004815 1.230258 -0.444628 0
M  V30 20 C -4.058068 0.349764 0.049435 0
M  V30 21 C -4.989181 0.092996 -0.943370 0
M  V30 22 F -4.967072 0.572534 -2.219125 0
M  V30 23 C -6.089233 -0.725952 -0.701334 0
M  V30 24 C -6.245011 -1.282754 0.542740 0
M  V30 25 C -5.313521 -1.024604 1.532471 0
M  V30 26 C -4.240934 -0.224480 1.292051 0
M  V30 27 F -3.259891 0.109711 2.165274 0
M  V30 28 N -1.924969 0.658025 -1.007101 0
M  V30 29 C 3.073673 -0.725813 -0.221412 0
M  V30 30 C 2.804475 -0.145232 1.137704 0 CFG=1
M  V30 31 N 1.883743 1.002087 1.066674 0
M  V30 32 C 2.489124 -1.095163 2.228634 0 CFG=1
M  V30 33 S 1.512056 -0.316335 3.471120 0
M  V30 34 O 1.369323 -1.275615 4.650905 0
M  V30 35 O 2.339462 0.818209 4.037507 0
M  V30 36 C -0.063456 0.226930 3.047360 0
M  V30 37 C -0.725538 0.869254 4.276572 0
M  V30 38 O -0.836909 -0.034634 5.325677 0
M  V30 39 H 1.942320 -3.327183 3.691006 0
M  V30 40 H 0.260365 -2.772251 3.128031 0
M  V30 41 H 1.022749 -4.212785 2.484566 0
M  V30 42 H 2.873015 -3.109201 1.579463 0
M  V30 43 H 1.012632 -3.429510 0.192620 0
M  V30 44 H 0.469539 -1.666154 0.411918 0
M  V30 45 H 3.201419 -2.799684 -0.223060 0
M  V30 46 H 3.526934 -3.956925 -2.110446 0
M  V30 47 H 3.083360 -4.467072 -4.414177 0
M  V30 48 H 0.265284 -1.427786 -4.654584 0
M  V30 49 H -0.380102 -1.164048 -1.829295 0
M  V30 50 H -0.195421 3.347312 -1.781856 0
M  V30 51 H -2.127782 4.411820 -0.773451 0
M  V30 52 H -6.848470 -0.963996 -1.431990 0
M  V30 53 H -7.055551 -1.938475 0.864189 0
M  V30 54 H -5.392806 -1.440104 2.528108 0
M  V30 55 H 2.794233 0.033364 -0.977620 0
M  V30 56 H 4.194406 -0.830944 -0.389722 0
M  V30 57 H 3.761643 0.402949 1.407292 0
M  V30 58 H 1.957503 1.486171 0.154036 0
M  V30 59 H 2.061109 1.629033 1.874950 0
M  V30 60 H 3.448767 -1.329811 2.790323 0
M  V30 61 H -0.744518 -0.625236 2.802467 0
M  V30 62 H -0.198007 0.944952 2.249328 0
M  V30 63 H -1.706127 1.280857 4.032248 0
M  V30 64 H -0.107662 1.743474 4.610567 0
M  V30 65 H -0.367689 0.279601 6.151911 0
M  V30 END ATOM
M  V30 BEGIN BOND
M  V30 1 1 1 2
M  V30 2 1 2 3
M  V30 3 1 3 4
M  V30 4 1 4 5
M  V30 5 2 5 6
M  V30 6 1 6 7
M  V30 7 2 7 8
M  V30 8 1 8 9
M  V30 9 2 9 10
M  V30 10 1 10 11
M  V30 11 1 11 12
M  V30 12 2 12 13
M  V30 13 1 12 14
M  V30 14 2 14 15
M  V30 15 1 15 16
M  V30 16 2 16 17
M  V30 17 1 17 18
M  V30 18 1 17 19
M  V30 19 1 19 20
M  V30 20 2 20 21
M  V30 21 1 21 22
M  V30 22 1 21 23
M  V30 23 2 23 24
M  V30 24 1 24 25
M  V30 25 2 25 26
M  V30 26 1 26 27
M  V30 27 2 19 28
M  V30 28 1 4 29
M  V30 29 1 29 30
M  V30 30 1 30 31
M  V30 31 1 30 32
M  V30 32 1 32 33
M  V30 33 2 33 34
M  V30 34 2 33 35
M  V30 35 1 33 36
M  V30 36 1 36 37
M  V30 37 1 37 38
M  V30 38 1 32 2
M  V30 39 1 10 5
M  V30 40 1 28 14
M  V30 41 1 26 20
M  V30 42 1 1 39
M  V30 43 1 1 40
M  V30 44 1 1 41
M  V30 45 1 2 42 CFG=3
M  V30 46 1 3 43
M  V30 47 1 3 44
M  V30 48 1 4 45 CFG=1
M  V30 49 1 6 46
M  V30 50 1 7 47
M  V30 51 1 9 48
M  V30 52 1 11 49
M  V30 53 1 15 50
M  V30 54 1 16 51
M  V30 55 1 23 52
M  V30 56 1 24 53
M  V30 57 1 25 54
M  V30 58 1 29 55
M  V30 59 1 29 56
M  V30 60 1 30 57 CFG=1
M  V30 61 1 31 58
M  V30 62 1 31 59
M  V30 63 1 32 60 CFG=1
M  V30 64 1 36 61
M  V30 65 1 36 62
M  V30 66 1 37 63
M  V30 67 1 37 64
M  V30 68 1 38 65
M  V30 END BOND
M  V30 END CTAB
M  END
>  <Dataset>  (467) 
ChEMBL_Kinases

>  <Ligand_Instance>  (467) 
nan

>  <PDB_ID>  (467) 
nan

>  <Standardized_SMILES>  (467) 
C[C@H]1C[C@@H](c2ccncc2NC(=O)c2ccc(F)c(-c3c(F)cccc3F)n2)C[C@@H](N)[C@H]1S(=O)(=O)CCO

>  <Name>  (467) 
nan

>  <Pocket>  (467) 
nan

>  <ATP_Site>  (467) 
nan

>  <Peripheral>  (467) 
nan

>  <Num_H_Atoms_ProtBoundConf>  (467) 
nan

>  <Num_Resolved_Atoms>  (467) 
nan

>  <Num_Not_Resolved_Atoms>  (467) 
nan

$$$$
CHEMBL3639863
     RDKit          3D

  0  0  0  0  0  0  0  0  0  0999 V3000
M  V30 BEGIN CTAB
M  V30 COUNTS 74 78 0 0 0
M  V30 BEGIN ATOM
M  V30 1 C 2.361123 -5.464555 0.563787 0
M  V30 2 O 3.191382 -4.782582 -0.321824 0
M  V30 3 C 2.686235 -3.560927 -0.693003 0 CFG=1
M  V30 4 C 3.665648 -2.480528 -0.281515 0 CFG=2
M  V30 5 N 3.982065 -2.515713 1.113489 0
M  V30 6 C 3.153376 -1.106706 -0.712550 0
M  V30 7 C 3.084696 -1.174303 -2.232713 0 CFG=2
M  V30 8 C 3.069089 0.129968 -2.863097 0
M  V30 9 C 4.269436 0.749618 -3.240473 0
M  V30 10 C 4.377551 1.987746 -3.837516 0
M  V30 11 N 3.257145 2.684781 -4.092840 0
M  V30 12 C 2.061392 2.167234 -3.764697 0
M  V30 13 C 1.989135 0.925728 -3.168582 0
M  V30 14 N 0.681266 0.477265 -2.857803 0
M  V30 15 C -0.320036 -0.229662 -3.584154 0
M  V30 16 O -0.131268 -0.597103 -4.778489 0
M  V30 17 C -1.554411 -0.492098 -2.860761 0
M  V30 18 C -2.546351 -1.169870 -3.537469 0
M  V30 19 C -3.765258 -1.478153 -2.958596 0
M  V30 20 C -4.015542 -1.093424 -1.635251 0
M  V30 21 F -5.178735 -1.353072 -0.991032 0
M  V30 22 C -2.992618 -0.414412 -0.991132 0
M  V30 23 C -3.134352 0.036108 0.389353 0
M  V30 24 C -3.643322 1.287176 0.676030 0
M  V30 25 F -4.031181 2.146538 -0.292993 0
M  V30 26 C -3.780331 1.719712 1.978427 0
M  V30 27 C -3.404566 0.894123 3.017252 0
M  V30 28 C -3.444733 1.110242 4.485196 0
M  V30 29 O -4.355404 0.165846 4.983923 0
M  V30 30 C -3.982775 2.466909 4.834428 0
M  V30 31 C -3.728185 2.888669 6.237464 0
M  V30 32 O -2.945092 1.985187 6.964588 0
M  V30 33 C -1.767987 1.825401 6.203418 0
M  V30 34 C -2.115488 0.818008 5.133224 0
M  V30 35 C -2.888995 -0.373969 2.720103 0
M  V30 36 C -2.750905 -0.809707 1.412578 0
M  V30 37 F -2.258134 -2.025493 1.081267 0
M  V30 38 N -1.792480 -0.114245 -1.570087 0
M  V30 39 C 2.015837 -2.141150 -2.581967 0
M  V30 40 C 2.555899 -3.536966 -2.207430 0 CFG=2
M  V30 41 C 1.503105 -4.533463 -2.645231 0
M  V30 42 H 2.848009 -6.432831 0.804432 0
M  V30 43 H 2.273673 -4.915702 1.539917 0
M  V30 44 H 1.362618 -5.659326 0.152258 0
M  V30 45 H 1.716802 -3.312493 -0.240594 0
M  V30 46 H 4.585759 -2.663024 -0.875592 0
M  V30 47 H 3.179982 -2.179840 1.680495 0
M  V30 48 H 4.318321 -3.471241 1.339208 0
M  V30 49 H 3.894096 -0.359764 -0.392445 0
M  V30 50 H 2.130651 -0.901182 -0.357561 0
M  V30 51 H 4.061231 -1.672510 -2.523782 0
M  V30 52 H 5.217798 0.223427 -3.054723 0
M  V30 53 H 5.348435 2.382820 -4.092256 0
M  V30 54 H 1.183181 2.751141 -3.982596 0
M  V30 55 H 0.529373 0.784083 -1.869143 0
M  V30 56 H -2.394780 -1.486426 -4.563309 0
M  V30 57 H -4.532835 -2.007490 -3.495779 0
M  V30 58 H -4.159624 2.661328 2.325079 0
M  V30 59 H -3.894717 -0.593715 5.423704 0
M  V30 60 H -3.524667 3.248015 4.167926 0
M  V30 61 H -5.072793 2.495190 4.638795 0
M  V30 62 H -4.667843 3.059643 6.839881 0
M  V30 63 H -3.190034 3.857159 6.306862 0
M  V30 64 H -1.517964 2.769746 5.679768 0
M  V30 65 H -0.935669 1.456335 6.808163 0
M  V30 66 H -1.333977 0.878716 4.350515 0
M  V30 67 H -2.082014 -0.210283 5.562267 0
M  V30 68 H -2.553246 -1.128320 3.446125 0
M  V30 69 H 1.121064 -2.048728 -1.897944 0
M  V30 70 H 1.756541 -2.230413 -3.641723 0
M  V30 71 H 3.496354 -3.752512 -2.711333 0
M  V30 72 H 0.581741 -4.450277 -2.015134 0
M  V30 73 H 1.211537 -4.359875 -3.689450 0
M  V30 74 H 1.902979 -5.565010 -2.563892 0
M  V30 END ATOM
M  V30 BEGIN BOND
M  V30 1 1 1 2
M  V30 2 1 2 3
M  V30 3 1 3 4
M  V30 4 1 4 5
M  V30 5 1 4 6
M  V30 6 1 6 7
M  V30 7 1 7 8
M  V30 8 2 8 9
M  V30 9 1 9 10
M  V30 10 2 10 11
M  V30 11 1 11 12
M  V30 12 2 12 13
M  V30 13 1 13 14
M  V30 14 1 14 15
M  V30 15 2 15 16
M  V30 16 1 15 17
M  V30 17 2 17 18
M  V30 18 1 18 19
M  V30 19 2 19 20
M  V30 20 1 20 21
M  V30 21 1 20 22
M  V30 22 1 22 23
M  V30 23 2 23 24
M  V30 24 1 24 25
M  V30 25 1 24 26
M  V30 26 2 26 27
M  V30 27 1 27 28
M  V30 28 1 28 29
M  V30 29 1 28 30
M  V30 30 1 30 31
M  V30 31 1 31 32
M  V30 32 1 32 33
M  V30 33 1 33 34
M  V30 34 1 27 35
M  V30 35 2 35 36
M  V30 36 1 36 37
M  V30 37 2 22 38
M  V30 38 1 7 39
M  V30 39 1 39 40
M  V30 40 1 40 41
M  V30 41 1 40 3
M  V30 42 1 13 8
M  V30 43 1 38 17
M  V30 44 1 36 23
M  V30 45 1 34 28
M  V30 46 1 1 42
M  V30 47 1 1 43
M  V30 48 1 1 44
M  V30 49 1 3 45 CFG=1
M  V30 50 1 4 46 CFG=3
M  V30 51 1 5 47
M  V30 52 1 5 48
M  V30 53 1 6 49
M  V30 54 1 6 50
M  V30 55 1 7 51 CFG=3
M  V30 56 1 9 52
M  V30 57 1 10 53
M  V30 58 1 12 54
M  V30 59 1 14 55
M  V30 60 1 18 56
M  V30 61 1 19 57
M  V30 62 1 26 58
M  V30 63 1 29 59
M  V30 64 1 30 60
M  V30 65 1 30 61
M  V30 66 1 31 62
M  V30 67 1 31 63
M  V30 68 1 33 64
M  V30 69 1 33 65
M  V30 70 1 34 66
M  V30 71 1 34 67
M  V30 72 1 35 68
M  V30 73 1 39 69
M  V30 74 1 39 70
M  V30 75 1 40 71 CFG=3
M  V30 76 1 41 72
M  V30 77 1 41 73
M  V30 78 1 41 74
M  V30 END BOND
M  V30 END CTAB
M  END
>  <Dataset>  (468) 
ChEMBL_Kinases

>  <Ligand_Instance>  (468) 
nan

>  <PDB_ID>  (468) 
nan

>  <Standardized_SMILES>  (468) 
CO[C@H]1[C@H](N)C[C@H](c2ccncc2NC(=O)c2ccc(F)c(-c3c(F)cc(C4(O)CCOCC4)cc3F)n2)C[C@@H]1C

>  <Name>  (468) 
nan

>  <Pocket>  (468) 
nan

>  <ATP_Site>  (468) 
nan

>  <Peripheral>  (468) 
nan

>  <Num_H_Atoms_ProtBoundConf>  (468) 
nan

>  <Num_Resolved_Atoms>  (468) 
nan

>  <Num_Not_Resolved_Atoms>  (468) 
nan

$$$$
CHEMBL4071021
     RDKit          3D

  0  0  0  0  0  0  0  0  0  0999 V3000
M  V30 BEGIN CTAB
M  V30 COUNTS 33 35 0 0 0
M  V30 BEGIN ATOM
M  V30 1 C -0.962113 -1.999497 2.649398 0
M  V30 2 C -0.033133 -2.730871 1.680967 0
M  V30 3 C -0.781279 -3.819394 0.959155 0
M  V30 4 N 1.094618 -3.234184 2.412302 0
M  V30 5 C 2.324008 -2.672867 1.936451 0
M  V30 6 O 3.502706 -2.923855 2.336279 0
M  V30 7 C 1.909175 -1.746222 0.885551 0
M  V30 8 C 2.608370 -0.894707 0.055865 0
M  V30 9 C 1.963662 -0.076539 -0.883426 0
M  V30 10 C 0.567011 -0.160048 -0.943987 0
M  V30 11 N -0.104999 0.675512 -1.919950 0
M  V30 12 C -0.917644 1.529517 -1.125535 0
M  V30 13 C -0.232607 2.742499 -0.964121 0
M  V30 14 C -0.753754 3.794052 -0.227649 0
M  V30 15 N -1.954691 3.605574 0.333263 0
M  V30 16 C -2.646602 2.462187 0.205576 0
M  V30 17 N -2.111846 1.467531 -0.513902 0
M  V30 18 C -0.139397 -1.024722 -0.101737 0
M  V30 19 O -1.392823 -1.065292 -0.191644 0
M  V30 20 N 0.572345 -1.776442 0.771880 0
M  V30 21 H -0.945476 -0.907665 2.418830 0
M  V30 22 H -2.015386 -2.314277 2.528835 0
M  V30 23 H -0.614558 -2.076306 3.700109 0
M  V30 24 H -1.311612 -3.488918 0.059061 0
M  V30 25 H -1.566673 -4.192731 1.667877 0
M  V30 26 H -0.122590 -4.661985 0.742931 0
M  V30 27 H 0.978996 -3.930419 3.191707 0
M  V30 28 H 3.709815 -0.839220 0.117596 0
M  V30 29 H 2.506649 0.609343 -1.551181 0
M  V30 30 H -0.051324 0.700439 -2.974330 0
M  V30 31 H 0.751708 3.025320 -1.368394 0
M  V30 32 H -0.272282 4.745818 -0.067569 0
M  V30 33 H -3.617294 2.196298 0.614899 0
M  V30 END ATOM
M  V30 BEGIN BOND
M  V30 1 1 1 2
M  V30 2 1 2 3
M  V30 3 1 2 4
M  V30 4 1 4 5
M  V30 5 2 5 6
M  V30 6 1 5 7
M  V30 7 2 7 8
M  V30 8 1 8 9
M  V30 9 2 9 10
M  V30 10 1 10 11
M  V30 11 1 11 12
M  V30 12 2 12 13
M  V30 13 1 13 14
M  V30 14 2 14 15
M  V30 15 1 15 16
M  V30 16 2 16 17
M  V30 17 1 10 18
M  V30 18 2 18 19
M  V30 19 1 18 20
M  V30 20 1 20 2
M  V30 21 1 20 7
M  V30 22 1 17 12
M  V30 23 1 1 21
M  V30 24 1 1 22
M  V30 25 1 1 23
M  V30 26 1 3 24
M  V30 27 1 3 25
M  V30 28 1 3 26
M  V30 29 1 4 27
M  V30 30 1 8 28
M  V30 31 1 9 29
M  V30 32 1 11 30
M  V30 33 1 13 31
M  V30 34 1 14 32
M  V30 35 1 16 33
M  V30 END BOND
M  V30 END CTAB
M  END
>  <Dataset>  (469) 
ChEMBL_Kinases

>  <Ligand_Instance>  (469) 
nan

>  <PDB_ID>  (469) 
nan

>  <Standardized_SMILES>  (469) 
CC1(C)NC(=O)c2ccc(Nc3ccncn3)c(=O)n21

>  <Name>  (469) 
nan

>  <Pocket>  (469) 
nan

>  <ATP_Site>  (469) 
nan

>  <Peripheral>  (469) 
nan

>  <Num_H_Atoms_ProtBoundConf>  (469) 
nan

>  <Num_Resolved_Atoms>  (469) 
nan

>  <Num_Not_Resolved_Atoms>  (469) 
nan

$$$$
CHEMBL3639792
     RDKit          3D

  0  0  0  0  0  0  0  0  0  0999 V3000
M  V30 BEGIN CTAB
M  V30 COUNTS 59 62 0 0 0
M  V30 BEGIN ATOM
M  V30 1 C 5.067860 -3.039047 1.459734 0
M  V30 2 O 3.860231 -3.416642 1.985919 0
M  V30 3 C 3.447078 -2.645119 3.077660 0
M  V30 4 C 3.296114 -1.206630 2.704000 0
M  V30 5 C 2.288864 -1.051517 1.624287 0
M  V30 6 N 2.064298 0.254157 1.114649 0
M  V30 7 C 1.844633 1.546108 0.609160 0
M  V30 8 N 2.620737 2.261526 -0.192759 0
M  V30 9 C 2.391440 3.461719 -0.706418 0
M  V30 10 N 1.229308 4.013481 -0.367516 0
M  V30 11 C 0.340190 3.416441 0.434428 0
M  V30 12 C -0.806244 4.128771 0.704724 0
M  V30 13 C -1.049679 5.438764 0.129581 0
M  V30 14 N -2.210262 6.147968 0.546686 0
M  V30 15 O -0.609618 6.285866 -0.665546 0
M  V30 16 C -1.744765 3.581966 1.535948 0
M  V30 17 C -1.495735 2.339151 2.065486 0
M  V30 18 C -0.333150 1.700123 1.745800 0
M  V30 19 C 0.662409 2.173842 0.919905 0
M  V30 20 C 0.942600 -1.631115 2.019333 0
M  V30 21 C 0.383125 -1.882023 3.242589 0
M  V30 22 C -0.868447 -2.426314 3.380732 0
M  V30 23 C -1.637311 -2.750350 2.256631 0
M  V30 24 C -1.141856 -2.525557 0.989545 0
M  V30 25 N -1.821226 -2.791805 -0.227048 0
M  V30 26 C -1.813366 -4.021196 -0.936591 0
M  V30 27 O -1.146601 -4.948881 -0.432338 0
M  V30 28 C -2.548121 -4.181394 -2.185996 0
M  V30 29 C -2.629115 -5.390599 -2.832249 0
M  V30 30 C -3.295801 -5.629260 -4.022865 0
M  V30 31 C -3.927554 -4.546650 -4.597193 0
M  V30 32 C -3.865642 -3.312639 -3.973498 0
M  V30 33 C -3.183429 -3.120283 -2.775617 0
M  V30 34 C 0.122519 -1.977821 0.928547 0
M  V30 35 H 5.855421 -3.094243 2.243434 0
M  V30 36 H 5.083741 -2.061085 0.954430 0
M  V30 37 H 5.412999 -3.763434 0.666228 0
M  V30 38 H 2.575331 -3.096472 3.570003 0
M  V30 39 H 4.301993 -2.776645 3.825812 0
M  V30 40 H 3.016493 -0.587225 3.594989 0
M  V30 41 H 4.270308 -0.841753 2.309143 0
M  V30 42 H 2.607503 -1.790723 0.812630 0
M  V30 43 H 3.069930 0.146496 0.770348 0
M  V30 44 H 3.147709 3.918533 -1.359401 0
M  V30 45 H -3.015209 6.681841 0.105790 0
M  V30 46 H -2.801810 6.477976 1.339341 0
M  V30 47 H -2.661780 4.095175 1.782721 0
M  V30 48 H -2.232247 1.905208 2.724117 0
M  V30 49 H -0.193275 0.754007 2.194808 0
M  V30 50 H 0.996541 -1.591688 4.081739 0
M  V30 51 H -1.234729 -2.592889 4.379035 0
M  V30 52 H -2.624321 -3.178711 2.343258 0
M  V30 53 H -2.346895 -1.950170 -0.550169 0
M  V30 54 H -2.140952 -6.265638 -2.410725 0
M  V30 55 H -3.325508 -6.605362 -4.481742 0
M  V30 56 H -4.473759 -4.639494 -5.533742 0
M  V30 57 H -4.368864 -2.486044 -4.453967 0
M  V30 58 H -3.195015 -2.124926 -2.377574 0
M  V30 59 H 0.511782 -1.802712 -0.080665 0
M  V30 END ATOM
M  V30 BEGIN BOND
M  V30 1 1 1 2
M  V30 2 1 2 3
M  V30 3 1 3 4
M  V30 4 1 4 5
M  V30 5 1 5 6
M  V30 6 1 6 7
M  V30 7 2 7 8
M  V30 8 1 8 9
M  V30 9 2 9 10
M  V30 10 1 10 11
M  V30 11 2 11 12
M  V30 12 1 12 13
M  V30 13 1 13 14
M  V30 14 2 13 15
M  V30 15 1 12 16
M  V30 16 2 16 17
M  V30 17 1 17 18
M  V30 18 2 18 19
M  V30 19 1 5 20
M  V30 20 2 20 21
M  V30 21 1 21 22
M  V30 22 2 22 23
M  V30 23 1 23 24
M  V30 24 1 24 25
M  V30 25 1 25 26
M  V30 26 2 26 27
M  V30 27 1 26 28
M  V30 28 2 28 29
M  V30 29 1 29 30
M  V30 30 2 30 31
M  V30 31 1 31 32
M  V30 32 2 32 33
M  V30 33 2 24 34
M  V30 34 1 19 7
M  V30 35 1 34 20
M  V30 36 1 19 11
M  V30 37 1 33 28
M  V30 38 1 1 35
M  V30 39 1 1 36
M  V30 40 1 1 37
M  V30 41 1 3 38
M  V30 42 1 3 39
M  V30 43 1 4 40
M  V30 44 1 4 41
M  V30 45 1 5 42
M  V30 46 1 6 43
M  V30 47 1 9 44
M  V30 48 1 14 45
M  V30 49 1 14 46
M  V30 50 1 16 47
M  V30 51 1 17 48
M  V30 52 1 18 49
M  V30 53 1 21 50
M  V30 54 1 22 51
M  V30 55 1 23 52
M  V30 56 1 25 53
M  V30 57 1 29 54
M  V30 58 1 30 55
M  V30 59 1 31 56
M  V30 60 1 32 57
M  V30 61 1 33 58
M  V30 62 1 34 59
M  V30 END BOND
M  V30 END CTAB
M  END
>  <Dataset>  (470) 
ChEMBL_Kinases

>  <Ligand_Instance>  (470) 
nan

>  <PDB_ID>  (470) 
nan

>  <Standardized_SMILES>  (470) 
COCCC(Nc1ncnc2c(C(N)=O)cccc12)c1cccc(NC(=O)c2ccccc2)c1

>  <Name>  (470) 
nan

>  <Pocket>  (470) 
nan

>  <ATP_Site>  (470) 
nan

>  <Peripheral>  (470) 
nan

>  <Num_H_Atoms_ProtBoundConf>  (470) 
nan

>  <Num_Resolved_Atoms>  (470) 
nan

>  <Num_Not_Resolved_Atoms>  (470) 
nan

$$$$
CHEMBL3904539
     RDKit          3D

  0  0  0  0  0  0  0  0  0  0999 V3000
M  V30 BEGIN CTAB
M  V30 COUNTS 54 58 0 0 0
M  V30 BEGIN ATOM
M  V30 1 N 3.058735 -5.422152 -1.260892 0
M  V30 2 C 2.260142 -4.233837 -1.334951 0 CFG=2
M  V30 3 C 2.231337 -3.629944 0.068346 0
M  V30 4 N 1.573801 -2.317337 0.075291 0
M  V30 5 C 2.071395 -1.365950 0.986660 0
M  V30 6 C 2.811384 -1.785189 2.084301 0
M  V30 7 C 3.302048 -0.936416 3.051622 0
M  V30 8 N 3.068206 0.388219 2.958720 0
M  V30 9 C 2.360294 0.854339 1.921788 0
M  V30 10 C 1.874959 -0.002661 0.959942 0
M  V30 11 N 1.177673 0.559298 -0.123922 0
M  V30 12 C 0.905229 1.975035 -0.133969 0
M  V30 13 N 1.676958 3.000063 -0.565174 0
M  V30 14 C 0.993183 4.151465 -0.363737 0
M  V30 15 C -0.233040 3.892016 0.200951 0
M  V30 16 C -1.320951 4.632108 0.613954 0
M  V30 17 C -2.416938 3.988836 1.151256 0
M  V30 18 C -2.364017 2.614695 1.248019 0
M  V30 19 C -3.449222 1.795989 1.793347 0
M  V30 20 N -4.156316 2.002906 2.893025 0
M  V30 21 C -5.137069 1.211109 3.332811 0
M  V30 22 C -5.491931 0.064597 2.626768 0
M  V30 23 C -4.804293 -0.242511 1.450674 0
M  V30 24 C -3.814155 0.654704 1.105123 0
M  V30 25 F -3.142209 0.343885 -0.053854 0
M  V30 26 N -1.310426 1.912393 0.847220 0
M  V30 27 N -0.256820 2.531978 0.330484 0
M  V30 28 C 0.491906 -2.256377 -0.857594 0
M  V30 29 C -0.134920 -3.649139 -1.053354 0 CFG=2
M  V30 30 N -0.696721 -4.033636 0.212111 0
M  V30 31 C 0.825116 -4.626407 -1.646858 0 CFG=1
M  V30 32 O 0.722637 -4.730415 -3.038270 0
M  V30 33 H 3.600004 -5.526930 -0.386997 0
M  V30 34 H 3.614697 -5.622481 -2.120649 0
M  V30 35 H 2.609730 -3.472129 -2.029778 0
M  V30 36 H 3.268664 -3.559990 0.460421 0
M  V30 37 H 1.679099 -4.345483 0.704945 0
M  V30 38 H 3.074796 -2.802833 2.300098 0
M  V30 39 H 3.872698 -1.222135 3.905689 0
M  V30 40 H 2.180292 1.925450 1.861373 0
M  V30 41 H 0.740847 0.319339 -1.022484 0
M  V30 42 H 1.345795 5.143404 -0.606041 0
M  V30 43 H -1.309121 5.692108 0.516291 0
M  V30 44 H -3.304517 4.501987 1.496209 0
M  V30 45 H -5.676657 1.435472 4.238847 0
M  V30 46 H -6.278860 -0.629153 2.920835 0
M  V30 47 H -5.026973 -1.103000 0.864895 0
M  V30 48 H 0.871748 -1.903406 -1.828114 0
M  V30 49 H -0.366198 -1.648626 -0.497047 0
M  V30 50 H -0.944365 -3.467519 -1.816053 0
M  V30 51 H -0.599727 -5.033617 0.452572 0
M  V30 52 H -0.488197 -3.385885 0.996790 0
M  V30 53 H 0.579309 -5.628193 -1.229660 0
M  V30 54 H -0.228079 -4.531494 -3.253278 0
M  V30 END ATOM
M  V30 BEGIN BOND
M  V30 1 1 1 2
M  V30 2 1 2 3
M  V30 3 1 3 4
M  V30 4 1 4 5
M  V30 5 2 5 6
M  V30 6 1 6 7
M  V30 7 2 7 8
M  V30 8 1 8 9
M  V30 9 2 9 10
M  V30 10 1 10 11
M  V30 11 1 11 12
M  V30 12 2 12 13
M  V30 13 1 13 14
M  V30 14 2 14 15
M  V30 15 1 15 16
M  V30 16 2 16 17
M  V30 17 1 17 18
M  V30 18 1 18 19
M  V30 19 2 19 20
M  V30 20 1 20 21
M  V30 21 2 21 22
M  V30 22 1 22 23
M  V30 23 2 23 24
M  V30 24 1 24 25
M  V30 25 2 18 26
M  V30 26 1 26 27
M  V30 27 1 4 28
M  V30 28 1 28 29
M  V30 29 1 29 30
M  V30 30 1 29 31
M  V30 31 1 31 32
M  V30 32 1 31 2
M  V30 33 1 10 5
M  V30 34 1 27 12
M  V30 35 1 27 15
M  V30 36 1 24 19
M  V30 37 1 1 33
M  V30 38 1 1 34
M  V30 39 1 2 35 CFG=3
M  V30 40 1 3 36
M  V30 41 1 3 37
M  V30 42 1 6 38
M  V30 43 1 7 39
M  V30 44 1 9 40
M  V30 45 1 11 41
M  V30 46 1 14 42
M  V30 47 1 16 43
M  V30 48 1 17 44
M  V30 49 1 21 45
M  V30 50 1 22 46
M  V30 51 1 23 47
M  V30 52 1 28 48
M  V30 53 1 28 49
M  V30 54 1 29 50 CFG=3
M  V30 55 1 30 51
M  V30 56 1 30 52
M  V30 57 1 31 53 CFG=1
M  V30 58 1 32 54
M  V30 END BOND
M  V30 END CTAB
M  END
>  <Dataset>  (471) 
ChEMBL_Kinases

>  <Ligand_Instance>  (471) 
nan

>  <PDB_ID>  (471) 
nan

>  <Standardized_SMILES>  (471) 
N[C@@H]1CN(c2ccncc2Nc2ncc3ccc(-c4ncccc4F)nn23)C[C@H](N)[C@H]1O

>  <Name>  (471) 
nan

>  <Pocket>  (471) 
nan

>  <ATP_Site>  (471) 
nan

>  <Peripheral>  (471) 
nan

>  <Num_H_Atoms_ProtBoundConf>  (471) 
nan

>  <Num_Resolved_Atoms>  (471) 
nan

>  <Num_Not_Resolved_Atoms>  (471) 
nan

$$$$
CHEMBL3905194
     RDKit          3D

  0  0  0  0  0  0  0  0  0  0999 V3000
M  V30 BEGIN CTAB
M  V30 COUNTS 55 59 0 0 0
M  V30 BEGIN ATOM
M  V30 1 C 2.492037 0.862532 3.042322 0
M  V30 2 C 2.627647 0.730775 1.553224 0 CFG=2
M  V30 3 C 3.794519 1.474293 0.989656 0 CFG=1
M  V30 4 N 4.993116 1.313202 1.784481 0
M  V30 5 C 3.992711 0.923361 -0.422517 0
M  V30 6 C 2.766319 1.271810 -1.230171 0
M  V30 7 C 1.488157 0.836863 -0.557999 0
M  V30 8 N 1.440830 1.222270 0.837806 0
M  V30 9 C 0.503137 1.964700 1.647037 0
M  V30 10 C 0.901983 3.135389 2.257766 0
M  V30 11 C 0.078981 3.918829 3.047979 0
M  V30 12 N -1.195135 3.482057 3.214010 0
M  V30 13 C -1.578954 2.341495 2.617385 0
M  V30 14 C -0.808366 1.521396 1.822105 0
M  V30 15 N -1.269318 0.323140 1.219259 0
M  V30 16 C -2.571746 -0.240461 1.308603 0
M  V30 17 N -3.654691 0.206236 1.963646 0
M  V30 18 C -4.715676 -0.600173 1.816228 0
M  V30 19 C -4.232684 -1.607029 1.011757 0
M  V30 20 C -4.909605 -2.730434 0.531450 0
M  V30 21 C -4.223818 -3.621956 -0.269466 0
M  V30 22 C -2.895532 -3.346861 -0.550856 0
M  V30 23 C -2.239260 -4.329786 -1.399563 0
M  V30 24 C -1.642238 -5.350072 -0.656284 0
M  V30 25 F -1.658632 -5.437801 0.712973 0
M  V30 26 C -0.968253 -6.378419 -1.299847 0
M  V30 27 C -0.872166 -6.417121 -2.687313 0
M  V30 28 C -1.470330 -5.398110 -3.393557 0
M  V30 29 C -2.144995 -4.366565 -2.775286 0
M  V30 30 F -2.758593 -3.330029 -3.394622 0
M  V30 31 N -2.300455 -2.247402 -0.057641 0
M  V30 32 N -2.945048 -1.384831 0.710784 0
M  V30 33 H 1.468777 0.644252 3.357176 0
M  V30 34 H 3.141301 0.053333 3.489952 0
M  V30 35 H 2.917166 1.797515 3.462755 0
M  V30 36 H 2.708245 -0.341276 1.319127 0
M  V30 37 H 3.622516 2.558993 0.841049 0
M  V30 38 H 5.801656 1.584336 1.216071 0
M  V30 39 H 4.907554 1.974226 2.586338 0
M  V30 40 H 4.246788 -0.137859 -0.415483 0
M  V30 41 H 4.840191 1.507027 -0.851353 0
M  V30 42 H 2.842731 0.734625 -2.198091 0
M  V30 43 H 2.808143 2.353639 -1.457509 0
M  V30 44 H 1.462172 -0.272397 -0.590305 0
M  V30 45 H 0.648487 1.227867 -1.160194 0
M  V30 46 H 1.898890 3.537786 2.166183 0
M  V30 47 H 0.402322 4.833073 3.520814 0
M  V30 48 H -2.601722 2.102603 2.822300 0
M  V30 49 H -0.553653 -0.191617 0.647943 0
M  V30 50 H -5.702108 -0.485333 2.227650 0
M  V30 51 H -5.928061 -2.894218 0.777122 0
M  V30 52 H -4.734073 -4.499027 -0.650683 0
M  V30 53 H -0.500249 -7.175742 -0.747058 0
M  V30 54 H -0.349387 -7.214190 -3.193019 0
M  V30 55 H -1.426546 -5.379852 -4.456886 0
M  V30 END ATOM
M  V30 BEGIN BOND
M  V30 1 1 1 2
M  V30 2 1 2 3
M  V30 3 1 3 4
M  V30 4 1 3 5
M  V30 5 1 5 6
M  V30 6 1 6 7
M  V30 7 1 7 8
M  V30 8 1 8 9
M  V30 9 2 9 10
M  V30 10 1 10 11
M  V30 11 2 11 12
M  V30 12 1 12 13
M  V30 13 2 13 14
M  V30 14 1 14 15
M  V30 15 1 15 16
M  V30 16 2 16 17
M  V30 17 1 17 18
M  V30 18 2 18 19
M  V30 19 1 19 20
M  V30 20 2 20 21
M  V30 21 1 21 22
M  V30 22 1 22 23
M  V30 23 2 23 24
M  V30 24 1 24 25
M  V30 25 1 24 26
M  V30 26 2 26 27
M  V30 27 1 27 28
M  V30 28 2 28 29
M  V30 29 1 29 30
M  V30 30 2 22 31
M  V30 31 1 31 32
M  V30 32 1 8 2
M  V30 33 1 14 9
M  V30 34 1 32 16
M  V30 35 1 32 19
M  V30 36 1 29 23
M  V30 37 1 1 33
M  V30 38 1 1 34
M  V30 39 1 1 35
M  V30 40 1 2 36 CFG=1
M  V30 41 1 3 37 CFG=3
M  V30 42 1 4 38
M  V30 43 1 4 39
M  V30 44 1 5 40
M  V30 45 1 5 41
M  V30 46 1 6 42
M  V30 47 1 6 43
M  V30 48 1 7 44
M  V30 49 1 7 45
M  V30 50 1 10 46
M  V30 51 1 11 47
M  V30 52 1 13 48
M  V30 53 1 15 49
M  V30 54 1 18 50
M  V30 55 1 20 51
M  V30 56 1 21 52
M  V30 57 1 26 53
M  V30 58 1 27 54
M  V30 59 1 28 55
M  V30 END BOND
M  V30 END CTAB
M  END
>  <Dataset>  (472) 
ChEMBL_Kinases

>  <Ligand_Instance>  (472) 
nan

>  <PDB_ID>  (472) 
nan

>  <Standardized_SMILES>  (472) 
C[C@@H]1[C@@H](N)CCCN1c1ccncc1Nc1ncc2ccc(-c3c(F)cccc3F)nn12

>  <Name>  (472) 
nan

>  <Pocket>  (472) 
nan

>  <ATP_Site>  (472) 
nan

>  <Peripheral>  (472) 
nan

>  <Num_H_Atoms_ProtBoundConf>  (472) 
nan

>  <Num_Resolved_Atoms>  (472) 
nan

>  <Num_Not_Resolved_Atoms>  (472) 
nan

$$$$
CHEMBL3905239
     RDKit          3D

  0  0  0  0  0  0  0  0  0  0999 V3000
M  V30 BEGIN CTAB
M  V30 COUNTS 51 55 0 0 0
M  V30 BEGIN ATOM
M  V30 1 N 2.040843 -2.818074 0.577230 0
M  V30 2 C 2.156880 -2.789469 2.029189 0 CFG=1
M  V30 3 C 3.594267 -2.768086 2.421180 0
M  V30 4 C 3.893183 -1.834278 3.565420 0
M  V30 5 C 3.425553 -0.440836 3.331737 0
M  V30 6 N 2.379679 -0.424832 2.292823 0
M  V30 7 C 2.491254 0.597964 1.311707 0
M  V30 8 C 3.765768 0.757579 0.809151 0
M  V30 9 C 3.870512 1.725562 -0.200777 0
M  V30 10 N 2.827977 2.432827 -0.640263 0
M  V30 11 C 1.575711 2.271811 -0.142357 0
M  V30 12 C 1.443077 1.326799 0.853719 0
M  V30 13 N 0.148690 1.204885 1.416075 0
M  V30 14 C -1.014882 1.879153 0.909078 0
M  V30 15 N -1.306315 3.197188 1.031117 0
M  V30 16 C -2.478994 3.462616 0.444618 0
M  V30 17 C -2.983840 2.314953 -0.076631 0
M  V30 18 C -4.103634 1.881424 -0.770698 0
M  V30 19 C -4.188427 0.523540 -1.095291 0
M  V30 20 C -3.244130 -0.428371 -0.780269 0
M  V30 21 C -3.399949 -1.813170 -1.135674 0
M  V30 22 C -4.469891 -2.349580 -1.814014 0
M  V30 23 C -4.529635 -3.716387 -2.104608 0
M  V30 24 C -3.505712 -4.583728 -1.716467 0
M  V30 25 N -2.442540 -4.057295 -1.043913 0
M  V30 26 C -2.426485 -2.722938 -0.782580 0
M  V30 27 F -1.342783 -2.245865 -0.106407 0
M  V30 28 N -2.186428 0.067838 -0.108050 0
M  V30 29 N -2.069406 1.351460 0.218763 0
M  V30 30 C 1.442780 -1.539205 2.509959 0
M  V30 31 H 1.310826 -2.150441 0.257013 0
M  V30 32 H 1.857850 -3.767570 0.193325 0
M  V30 33 H 1.599274 -3.652426 2.462278 0
M  V30 34 H 4.254187 -2.576619 1.527047 0
M  V30 35 H 3.864637 -3.793382 2.747827 0
M  V30 36 H 4.991032 -1.915389 3.755516 0
M  V30 37 H 3.433175 -2.294481 4.481702 0
M  V30 38 H 4.187294 0.317495 3.170824 0
M  V30 39 H 2.883517 -0.121948 4.271329 0
M  V30 40 H 4.626230 0.199977 1.145891 0
M  V30 41 H 4.859607 1.884962 -0.624408 0
M  V30 42 H 0.775080 2.862652 -0.529166 0
M  V30 43 H -0.279547 0.698894 2.219009 0
M  V30 44 H -3.047072 4.374914 0.326888 0
M  V30 45 H -4.838767 2.604964 -1.019832 0
M  V30 46 H -5.091978 0.277484 -1.631401 0
M  V30 47 H -5.266107 -1.690243 -2.118837 0
M  V30 48 H -5.382256 -4.103101 -2.636200 0
M  V30 49 H -3.575987 -5.635194 -1.951180 0
M  V30 50 H 1.191625 -1.644231 3.567200 0
M  V30 51 H 0.531958 -1.466508 1.906068 0
M  V30 END ATOM
M  V30 BEGIN BOND
M  V30 1 1 1 2
M  V30 2 1 2 3
M  V30 3 1 3 4
M  V30 4 1 4 5
M  V30 5 1 5 6
M  V30 6 1 6 7
M  V30 7 2 7 8
M  V30 8 1 8 9
M  V30 9 2 9 10
M  V30 10 1 10 11
M  V30 11 2 11 12
M  V30 12 1 12 13
M  V30 13 1 13 14
M  V30 14 2 14 15
M  V30 15 1 15 16
M  V30 16 2 16 17
M  V30 17 1 17 18
M  V30 18 2 18 19
M  V30 19 1 19 20
M  V30 20 1 20 21
M  V30 21 2 21 22
M  V30 22 1 22 23
M  V30 23 2 23 24
M  V30 24 1 24 25
M  V30 25 2 25 26
M  V30 26 1 26 27
M  V30 27 2 20 28
M  V30 28 1 28 29
M  V30 29 1 6 30
M  V30 30 1 30 2
M  V30 31 1 12 7
M  V30 32 1 29 14
M  V30 33 1 29 17
M  V30 34 1 26 21
M  V30 35 1 1 31
M  V30 36 1 1 32
M  V30 37 1 2 33 CFG=1
M  V30 38 1 3 34
M  V30 39 1 3 35
M  V30 40 1 4 36
M  V30 41 1 4 37
M  V30 42 1 5 38
M  V30 43 1 5 39
M  V30 44 1 8 40
M  V30 45 1 9 41
M  V30 46 1 11 42
M  V30 47 1 13 43
M  V30 48 1 16 44
M  V30 49 1 18 45
M  V30 50 1 19 46
M  V30 51 1 22 47
M  V30 52 1 23 48
M  V30 53 1 24 49
M  V30 54 1 30 50
M  V30 55 1 30 51
M  V30 END BOND
M  V30 END CTAB
M  END
>  <Dataset>  (473) 
ChEMBL_Kinases

>  <Ligand_Instance>  (473) 
nan

>  <PDB_ID>  (473) 
nan

>  <Standardized_SMILES>  (473) 
N[C@H]1CCCN(c2ccncc2Nc2ncc3ccc(-c4cccnc4F)nn23)C1

>  <Name>  (473) 
nan

>  <Pocket>  (473) 
nan

>  <ATP_Site>  (473) 
nan

>  <Peripheral>  (473) 
nan

>  <Num_H_Atoms_ProtBoundConf>  (473) 
nan

>  <Num_Resolved_Atoms>  (473) 
nan

>  <Num_Not_Resolved_Atoms>  (473) 
nan

$$$$
CHEMBL3905696
     RDKit          3D

  0  0  0  0  0  0  0  0  0  0999 V3000
M  V30 BEGIN CTAB
M  V30 COUNTS 82 86 0 0 0
M  V30 BEGIN ATOM
M  V30 1 C 0.402477 -3.653872 -0.363313 0
M  V30 2 O 1.432007 -3.927125 0.565248 0
M  V30 3 C 2.545341 -4.335971 -0.180011 0
M  V30 4 C 3.683921 -4.635180 0.783426 0
M  V30 5 C 3.970216 -3.369806 1.544315 0
M  V30 6 N 4.357482 -2.264721 0.674759 0
M  V30 7 C 4.566300 -1.107502 1.515203 0
M  V30 8 C 4.963276 0.102756 0.791301 0
M  V30 9 O 5.200159 0.469289 -0.406179 0
M  V30 10 N 5.153990 1.239595 1.623958 0
M  V30 11 C 5.546828 2.549191 1.128284 0
M  V30 12 C 4.682531 3.608513 1.806823 0
M  V30 13 N 3.454213 2.914902 2.198699 0
M  V30 14 C 2.169982 2.984116 1.592233 0
M  V30 15 C 1.138677 2.113128 1.868410 0
M  V30 16 C -0.077667 2.313384 1.203096 0
M  V30 17 C -0.320743 3.327367 0.284239 0
M  V30 18 N -1.593299 3.447680 -0.341476 0
M  V30 19 C -2.521313 2.434801 0.042559 0
M  V30 20 N -3.290533 2.408372 1.154738 0
M  V30 21 C -4.128807 1.379609 1.389041 0
M  V30 22 C -4.191009 0.342310 0.467154 0
M  V30 23 C -5.030159 -0.732997 0.663180 0
M  V30 24 C -5.886606 -0.773775 1.891902 0
M  V30 25 C -5.112597 -1.787402 -0.241711 0
M  V30 26 C -6.003968 -2.941690 -0.037582 0
M  V30 27 C -5.604050 -4.195161 0.686712 0
M  V30 28 O -7.179328 -2.900292 -0.488629 0
M  V30 29 C -4.287108 -1.688743 -1.368643 0
M  V30 30 O -4.370689 -2.635229 -2.166305 0
M  V30 31 N -3.468547 -0.625639 -1.545486 0
M  V30 32 C -2.660152 -0.599536 -2.745457 0
M  V30 33 C -3.514585 -0.674370 -3.992404 0
M  V30 34 C -2.863324 -1.658773 -4.923266 0
M  V30 35 C -1.606742 -2.168722 -4.248451 0
M  V30 36 C -1.709279 -1.746535 -2.798910 0
M  V30 37 C -3.390453 0.407125 -0.654143 0
M  V30 38 N -2.558007 1.440708 -0.875319 0
M  V30 39 N 0.710818 4.157071 0.041434 0
M  V30 40 C 1.883119 3.971566 0.676433 0
M  V30 41 C 3.735120 2.105500 3.369034 0
M  V30 42 C 4.978861 1.265442 3.074142 0
M  V30 43 H 0.761137 -2.849267 -1.041117 0
M  V30 44 H -0.500777 -3.346853 0.207306 0
M  V30 45 H 0.226517 -4.592210 -0.910313 0
M  V30 46 H 2.281664 -5.251149 -0.755388 0
M  V30 47 H 2.827857 -3.514297 -0.851859 0
M  V30 48 H 4.568313 -4.988051 0.218316 0
M  V30 49 H 3.312428 -5.371826 1.516333 0
M  V30 50 H 4.829294 -3.562010 2.221648 0
M  V30 51 H 3.109507 -3.054955 2.158625 0
M  V30 52 H 5.265434 -2.478169 0.191083 0
M  V30 53 H 3.615554 -0.930338 2.077695 0
M  V30 54 H 5.328394 -1.352606 2.296025 0
M  V30 55 H 5.288373 2.571148 0.051443 0
M  V30 56 H 6.623741 2.759951 1.230118 0
M  V30 57 H 5.230301 4.022101 2.680288 0
M  V30 58 H 4.461212 4.380580 1.048379 0
M  V30 59 H 1.274872 1.321698 2.562088 0
M  V30 60 H -0.837607 1.591141 1.472040 0
M  V30 61 H -1.727737 4.251862 -1.011256 0
M  V30 62 H -4.718358 1.392127 2.273195 0
M  V30 63 H -5.237204 -0.672940 2.803682 0
M  V30 64 H -6.370080 -1.770468 1.987390 0
M  V30 65 H -6.589671 0.076184 1.921769 0
M  V30 66 H -6.397994 -4.527232 1.385198 0
M  V30 67 H -4.682808 -4.019486 1.302355 0
M  V30 68 H -5.431825 -4.973389 -0.098382 0
M  V30 69 H -2.112406 0.382861 -2.801969 0
M  V30 70 H -3.582807 0.303099 -4.515231 0
M  V30 71 H -4.564931 -0.972952 -3.793050 0
M  V30 72 H -3.539452 -2.494985 -5.207104 0
M  V30 73 H -2.563289 -1.196185 -5.897059 0
M  V30 74 H -0.709333 -1.679244 -4.706595 0
M  V30 75 H -1.553101 -3.251480 -4.350401 0
M  V30 76 H -2.039192 -2.607838 -2.191232 0
M  V30 77 H -0.695736 -1.408715 -2.453620 0
M  V30 78 H 2.596655 4.730797 0.358296 0
M  V30 79 H 2.911501 1.486537 3.715579 0
M  V30 80 H 4.037744 2.791437 4.215487 0
M  V30 81 H 5.887934 1.732585 3.498151 0
M  V30 82 H 4.903141 0.253993 3.506773 0
M  V30 END ATOM
M  V30 BEGIN BOND
M  V30 1 1 1 2
M  V30 2 1 2 3
M  V30 3 1 3 4
M  V30 4 1 4 5
M  V30 5 1 5 6
M  V30 6 1 6 7
M  V30 7 1 7 8
M  V30 8 2 8 9
M  V30 9 1 8 10
M  V30 10 1 10 11
M  V30 11 1 11 12
M  V30 12 1 12 13
M  V30 13 1 13 14
M  V30 14 2 14 15
M  V30 15 1 15 16
M  V30 16 2 16 17
M  V30 17 1 17 18
M  V30 18 1 18 19
M  V30 19 2 19 20
M  V30 20 1 20 21
M  V30 21 2 21 22
M  V30 22 1 22 23
M  V30 23 1 23 24
M  V30 24 2 23 25
M  V30 25 1 25 26
M  V30 26 1 26 27
M  V30 27 2 26 28
M  V30 28 1 25 29
M  V30 29 2 29 30
M  V30 30 1 29 31
M  V30 31 1 31 32
M  V30 32 1 32 33
M  V30 33 1 33 34
M  V30 34 1 34 35
M  V30 35 1 35 36
M  V30 36 1 31 37
M  V30 37 2 37 38
M  V30 38 1 17 39
M  V30 39 2 39 40
M  V30 40 1 13 41
M  V30 41 1 41 42
M  V30 42 1 42 10
M  V30 43 1 40 14
M  V30 44 1 38 19
M  V30 45 1 37 22
M  V30 46 1 36 32
M  V30 47 1 1 43
M  V30 48 1 1 44
M  V30 49 1 1 45
M  V30 50 1 3 46
M  V30 51 1 3 47
M  V30 52 1 4 48
M  V30 53 1 4 49
M  V30 54 1 5 50
M  V30 55 1 5 51
M  V30 56 1 6 52
M  V30 57 1 7 53
M  V30 58 1 7 54
M  V30 59 1 11 55
M  V30 60 1 11 56
M  V30 61 1 12 57
M  V30 62 1 12 58
M  V30 63 1 15 59
M  V30 64 1 16 60
M  V30 65 1 18 61
M  V30 66 1 21 62
M  V30 67 1 24 63
M  V30 68 1 24 64
M  V30 69 1 24 65
M  V30 70 1 27 66
M  V30 71 1 27 67
M  V30 72 1 27 68
M  V30 73 1 32 69
M  V30 74 1 33 70
M  V30 75 1 33 71
M  V30 76 1 34 72
M  V30 77 1 34 73
M  V30 78 1 35 74
M  V30 79 1 35 75
M  V30 80 1 36 76
M  V30 81 1 36 77
M  V30 82 1 40 78
M  V30 83 1 41 79
M  V30 84 1 41 80
M  V30 85 1 42 81
M  V30 86 1 42 82
M  V30 END BOND
M  V30 END CTAB
M  END
>  <Dataset>  (474) 
ChEMBL_Kinases

>  <Ligand_Instance>  (474) 
nan

>  <PDB_ID>  (474) 
nan

>  <Standardized_SMILES>  (474) 
COCCCNCC(=O)N1CCN(c2ccc(Nc3ncc4c(C)c(C(C)=O)c(=O)n(C5CCCC5)c4n3)nc2)CC1

>  <Name>  (474) 
nan

>  <Pocket>  (474) 
nan

>  <ATP_Site>  (474) 
nan

>  <Peripheral>  (474) 
nan

>  <Num_H_Atoms_ProtBoundConf>  (474) 
nan

>  <Num_Resolved_Atoms>  (474) 
nan

>  <Num_Not_Resolved_Atoms>  (474) 
nan

$$$$
CHEMBL3906353
     RDKit          3D

  0  0  0  0  0  0  0  0  0  0999 V3000
M  V30 BEGIN CTAB
M  V30 COUNTS 37 40 0 0 0
M  V30 BEGIN ATOM
M  V30 1 F 0.810737 -3.514936 5.129876 0
M  V30 2 C 0.947482 -3.106661 3.846423 0
M  V30 3 C 0.441023 -3.826106 2.790639 0
M  V30 4 C 0.613175 -3.356975 1.506618 0
M  V30 5 C 1.288433 -2.163373 1.200718 0
M  V30 6 C 1.346972 -1.945355 -0.222779 0
M  V30 7 C 2.038566 -2.872072 -1.022310 0
M  V30 8 N 2.005860 -2.456626 -2.324003 0
M  V30 9 C 1.323954 -1.299714 -2.419014 0
M  V30 10 N 0.937793 -0.428951 -3.364502 0
M  V30 11 C 0.212539 0.667898 -3.103567 0
M  V30 12 N -0.159456 0.928681 -1.827073 0
M  V30 13 C 0.206369 0.077041 -0.822851 0
M  V30 14 N -0.310459 0.610052 0.388547 0
M  V30 15 C 0.056769 1.271865 1.642839 0
M  V30 16 C -0.677669 2.554131 1.857832 0
M  V30 17 O -1.963132 2.602234 1.396383 0
M  V30 18 C -2.241354 1.912623 0.267524 0
M  V30 19 C -1.777825 0.474342 0.458400 0
M  V30 20 C 0.946485 -1.028533 -1.137834 0
M  V30 21 C 1.768178 -1.496761 2.303604 0
M  V30 22 C 1.615950 -1.932425 3.593512 0
M  V30 23 H -0.074145 -4.739804 3.047192 0
M  V30 24 H 0.159600 -4.030455 0.773984 0
M  V30 25 H 2.539037 -3.784866 -0.728263 0
M  V30 26 H 2.433194 -2.934568 -3.154895 0
M  V30 27 H -0.017687 1.267314 -3.971912 0
M  V30 28 H 1.143287 1.463682 1.726767 0
M  V30 29 H -0.203044 0.554740 2.444338 0
M  V30 30 H -0.116799 3.392228 1.391407 0
M  V30 31 H -0.700595 2.775369 2.946551 0
M  V30 32 H -3.329581 1.936675 0.085448 0
M  V30 33 H -1.705106 2.367032 -0.579657 0
M  V30 34 H -2.100840 0.055995 1.418373 0
M  V30 35 H -2.198666 -0.075562 -0.408937 0
M  V30 36 H 2.286009 -0.584238 1.970242 0
M  V30 37 H 2.052593 -1.290343 4.343350 0
M  V30 END ATOM
M  V30 BEGIN BOND
M  V30 1 1 1 2
M  V30 2 2 2 3
M  V30 3 1 3 4
M  V30 4 2 4 5
M  V30 5 1 5 6
M  V30 6 2 6 7
M  V30 7 1 7 8
M  V30 8 1 8 9
M  V30 9 2 9 10
M  V30 10 1 10 11
M  V30 11 2 11 12
M  V30 12 1 12 13
M  V30 13 1 13 14
M  V30 14 1 14 15
M  V30 15 1 15 16
M  V30 16 1 16 17
M  V30 17 1 17 18
M  V30 18 1 18 19
M  V30 19 2 13 20
M  V30 20 1 5 21
M  V30 21 2 21 22
M  V30 22 1 22 2
M  V30 23 1 20 6
M  V30 24 1 20 9
M  V30 25 1 19 14
M  V30 26 1 3 23
M  V30 27 1 4 24
M  V30 28 1 7 25
M  V30 29 1 8 26
M  V30 30 1 11 27
M  V30 31 1 15 28
M  V30 32 1 15 29
M  V30 33 1 16 30
M  V30 34 1 16 31
M  V30 35 1 18 32
M  V30 36 1 18 33
M  V30 37 1 19 34
M  V30 38 1 19 35
M  V30 39 1 21 36
M  V30 40 1 22 37
M  V30 END BOND
M  V30 END CTAB
M  END
>  <Dataset>  (475) 
ChEMBL_Kinases

>  <Ligand_Instance>  (475) 
nan

>  <PDB_ID>  (475) 
nan

>  <Standardized_SMILES>  (475) 
Fc1ccc(-c2c[nH]c3ncnc(N4CCOCC4)c23)cc1

>  <Name>  (475) 
nan

>  <Pocket>  (475) 
nan

>  <ATP_Site>  (475) 
nan

>  <Peripheral>  (475) 
nan

>  <Num_H_Atoms_ProtBoundConf>  (475) 
nan

>  <Num_Resolved_Atoms>  (475) 
nan

>  <Num_Not_Resolved_Atoms>  (475) 
nan

$$$$
CHEMBL3907133
     RDKit          3D

  0  0  0  0  0  0  0  0  0  0999 V3000
M  V30 BEGIN CTAB
M  V30 COUNTS 47 49 0 0 0
M  V30 BEGIN ATOM
M  V30 1 C -0.958808 -5.757535 -2.016088 0
M  V30 2 O -1.149420 -4.411632 -1.668568 0
M  V30 3 C -0.359639 -3.424725 -2.281637 0
M  V30 4 C 0.595642 -3.801003 -3.221093 0
M  V30 5 C 1.372816 -2.821817 -3.823426 0
M  V30 6 C 1.174832 -1.511260 -3.473365 0
M  V30 7 C 0.232995 -1.112639 -2.543542 0
M  V30 8 C 0.026157 0.332144 -2.168060 0 CFG=1
M  V30 9 C -1.137093 0.866216 -2.940563 0
M  V30 10 N -0.070923 0.390927 -0.758990 0
M  V30 11 C 0.823980 1.037420 0.120459 0
M  V30 12 O 1.754810 1.575785 -0.525632 0
M  V30 13 C 0.787898 1.138633 1.566315 0
M  V30 14 C 1.806255 1.841068 2.180220 0
M  V30 15 C 1.860989 1.993868 3.549984 0
M  V30 16 C 0.901662 1.453724 4.383562 0
M  V30 17 C 0.930318 1.596941 5.834283 0
M  V30 18 C 0.438703 0.661106 6.740236 0
M  V30 19 N 0.625653 1.112606 8.008266 0
M  V30 20 N 1.217827 2.300155 7.933057 0
M  V30 21 C 1.415836 2.620933 6.621489 0
M  V30 22 C -0.126003 0.747375 3.793350 0
M  V30 23 C -0.151852 0.612668 2.420404 0
M  V30 24 O -1.191055 -0.095130 1.898444 0
M  V30 25 C -2.240824 -0.706079 2.580334 0
M  V30 26 C -0.537887 -2.093739 -1.947385 0
M  V30 27 H 0.100523 -6.063678 -2.018514 0
M  V30 28 H -1.365469 -5.975460 -3.026075 0
M  V30 29 H -1.495688 -6.401150 -1.266265 0
M  V30 30 H 0.762832 -4.834194 -3.507172 0
M  V30 31 H 2.128253 -3.048952 -4.557560 0
M  V30 32 H 1.759837 -0.738923 -3.922515 0
M  V30 33 H 0.952465 0.899435 -2.469191 0
M  V30 34 H -1.783789 1.510092 -2.309480 0
M  V30 35 H -0.765011 1.405783 -3.836380 0
M  V30 36 H -1.743466 0.013060 -3.330240 0
M  V30 37 H -0.888686 -0.094765 -0.336889 0
M  V30 38 H 2.605381 2.299505 1.583883 0
M  V30 39 H 2.682613 2.554254 3.971725 0
M  V30 40 H -0.028793 -0.292747 6.525916 0
M  V30 41 H 1.500110 2.916242 8.738794 0
M  V30 42 H 1.874556 3.522023 6.245604 0
M  V30 43 H -0.878226 0.320645 4.411885 0
M  V30 44 H -2.614354 -0.094860 3.414053 0
M  V30 45 H -3.084450 -0.791091 1.859747 0
M  V30 46 H -1.885621 -1.707780 2.911306 0
M  V30 47 H -1.285799 -1.887718 -1.223090 0
M  V30 END ATOM
M  V30 BEGIN BOND
M  V30 1 1 1 2
M  V30 2 1 2 3
M  V30 3 2 3 4
M  V30 4 1 4 5
M  V30 5 2 5 6
M  V30 6 1 6 7
M  V30 7 1 7 8
M  V30 8 1 8 9
M  V30 9 1 8 10
M  V30 10 1 10 11
M  V30 11 2 11 12
M  V30 12 1 11 13
M  V30 13 2 13 14
M  V30 14 1 14 15
M  V30 15 2 15 16
M  V30 16 1 16 17
M  V30 17 1 17 18
M  V30 18 2 18 19
M  V30 19 1 19 20
M  V30 20 1 20 21
M  V30 21 1 16 22
M  V30 22 2 22 23
M  V30 23 1 23 24
M  V30 24 1 24 25
M  V30 25 2 7 26
M  V30 26 1 26 3
M  V30 27 1 23 13
M  V30 28 2 21 17
M  V30 29 1 1 27
M  V30 30 1 1 28
M  V30 31 1 1 29
M  V30 32 1 4 30
M  V30 33 1 5 31
M  V30 34 1 6 32
M  V30 35 1 8 33 CFG=3
M  V30 36 1 9 34
M  V30 37 1 9 35
M  V30 38 1 9 36
M  V30 39 1 10 37
M  V30 40 1 14 38
M  V30 41 1 15 39
M  V30 42 1 18 40
M  V30 43 1 20 41
M  V30 44 1 21 42
M  V30 45 1 22 43
M  V30 46 1 25 44
M  V30 47 1 25 45
M  V30 48 1 25 46
M  V30 49 1 26 47
M  V30 END BOND
M  V30 END CTAB
M  END
>  <Dataset>  (476) 
ChEMBL_Kinases

>  <Ligand_Instance>  (476) 
nan

>  <PDB_ID>  (476) 
nan

>  <Standardized_SMILES>  (476) 
COc1cccc([C@@H](C)NC(=O)c2ccc(-c3cn[nH]c3)cc2OC)c1

>  <Name>  (476) 
nan

>  <Pocket>  (476) 
nan

>  <ATP_Site>  (476) 
nan

>  <Peripheral>  (476) 
nan

>  <Num_H_Atoms_ProtBoundConf>  (476) 
nan

>  <Num_Resolved_Atoms>  (476) 
nan

>  <Num_Not_Resolved_Atoms>  (476) 
nan

$$$$
CHEMBL3907325
     RDKit          3D

  0  0  0  0  0  0  0  0  0  0999 V3000
M  V30 BEGIN CTAB
M  V30 COUNTS 52 55 0 0 0
M  V30 BEGIN ATOM
M  V30 1 C -4.784008 -0.680976 3.026626 0
M  V30 2 C -3.543999 -0.048797 2.506776 0
M  V30 3 N -3.335889 1.263656 2.708386 0
M  V30 4 C -2.200598 1.795020 2.221147 0
M  V30 5 C -2.059981 3.146330 2.467402 0
M  V30 6 C -0.923075 3.770472 2.000465 0
M  V30 7 C 0.004501 3.006522 1.315892 0
M  V30 8 C -0.170279 1.640704 1.084785 0
M  V30 9 C 0.876664 0.940056 0.353595 0
M  V30 10 C 1.055205 -0.349055 -0.029814 0
M  V30 11 C 2.231476 -0.509419 -0.707706 0
M  V30 12 C 2.808155 0.734369 -0.746636 0
M  V30 13 N 1.986702 1.567432 -0.113278 0
M  V30 14 C 4.114778 1.035212 -1.393347 0
M  V30 15 C 5.101221 0.009681 -0.866131 0
M  V30 16 C 5.203524 -1.199351 -1.759574 0
M  V30 17 N 4.010958 -2.023522 -1.709926 0
M  V30 18 C 2.673577 -1.795417 -1.234446 0
M  V30 19 O 1.853874 -2.740297 -1.274143 0
M  V30 20 C -1.300889 0.998162 1.543515 0
M  V30 21 N -1.503273 -0.303717 1.341179 0
M  V30 22 C -2.630950 -0.861100 1.817973 0
M  V30 23 N -2.911034 -2.245398 1.642396 0
M  V30 24 C -2.066306 -3.171041 0.958085 0
M  V30 25 C -1.921905 -2.736012 -0.503630 0
M  V30 26 C -2.717766 -4.537605 0.922763 0
M  V30 27 C -0.731431 -3.377657 1.627469 0
M  V30 28 H -5.304856 0.047672 3.678200 0
M  V30 29 H -5.456213 -0.885516 2.176397 0
M  V30 30 H -4.562621 -1.574373 3.644383 0
M  V30 31 H -2.795350 3.727093 3.004316 0
M  V30 32 H -0.794017 4.826865 2.182495 0
M  V30 33 H 0.866710 3.585078 0.986951 0
M  V30 34 H 0.365478 -1.127351 0.176091 0
M  V30 35 H 2.294339 2.582057 -0.056139 0
M  V30 36 H 4.074414 0.856194 -2.501243 0
M  V30 37 H 4.441577 2.076303 -1.233827 0
M  V30 38 H 4.825486 -0.349213 0.147987 0
M  V30 39 H 6.133582 0.438659 -0.781623 0
M  V30 40 H 6.063629 -1.797959 -1.371371 0
M  V30 41 H 5.428258 -0.941874 -2.808416 0
M  V30 42 H 4.180961 -2.962854 -2.102005 0
M  V30 43 H -3.821575 -2.613237 2.055142 0
M  V30 44 H -1.844718 -1.633560 -0.602502 0
M  V30 45 H -2.854640 -3.104273 -1.014175 0
M  V30 46 H -1.034760 -3.209433 -0.954742 0
M  V30 47 H -3.496490 -4.611117 1.736288 0
M  V30 48 H -2.011356 -5.365763 1.104694 0
M  V30 49 H -3.290733 -4.699184 -0.014216 0
M  V30 50 H -0.274650 -2.487368 2.048151 0
M  V30 51 H -0.834452 -4.162775 2.418883 0
M  V30 52 H -0.052915 -3.838867 0.864148 0
M  V30 END ATOM
M  V30 BEGIN BOND
M  V30 1 1 1 2
M  V30 2 2 2 3
M  V30 3 1 3 4
M  V30 4 2 4 5
M  V30 5 1 5 6
M  V30 6 2 6 7
M  V30 7 1 7 8
M  V30 8 1 8 9
M  V30 9 2 9 10
M  V30 10 1 10 11
M  V30 11 2 11 12
M  V30 12 1 12 13
M  V30 13 1 12 14
M  V30 14 1 14 15
M  V30 15 1 15 16
M  V30 16 1 16 17
M  V30 17 1 17 18
M  V30 18 2 18 19
M  V30 19 2 8 20
M  V30 20 1 20 21
M  V30 21 2 21 22
M  V30 22 1 22 23
M  V30 23 1 23 24
M  V30 24 1 24 25
M  V30 25 1 24 26
M  V30 26 1 24 27
M  V30 27 1 22 2
M  V30 28 1 20 4
M  V30 29 1 13 9
M  V30 30 1 18 11
M  V30 31 1 1 28
M  V30 32 1 1 29
M  V30 33 1 1 30
M  V30 34 1 5 31
M  V30 35 1 6 32
M  V30 36 1 7 33
M  V30 37 1 10 34
M  V30 38 1 13 35
M  V30 39 1 14 36
M  V30 40 1 14 37
M  V30 41 1 15 38
M  V30 42 1 15 39
M  V30 43 1 16 40
M  V30 44 1 16 41
M  V30 45 1 17 42
M  V30 46 1 23 43
M  V30 47 1 25 44
M  V30 48 1 25 45
M  V30 49 1 25 46
M  V30 50 1 26 47
M  V30 51 1 26 48
M  V30 52 1 26 49
M  V30 53 1 27 50
M  V30 54 1 27 51
M  V30 55 1 27 52
M  V30 END BOND
M  V30 END CTAB
M  END
>  <Dataset>  (477) 
ChEMBL_Kinases

>  <Ligand_Instance>  (477) 
nan

>  <PDB_ID>  (477) 
nan

>  <Standardized_SMILES>  (477) 
Cc1nc2cccc(-c3cc4c([nH]3)CCCNC4=O)c2nc1NC(C)(C)C

>  <Name>  (477) 
nan

>  <Pocket>  (477) 
nan

>  <ATP_Site>  (477) 
nan

>  <Peripheral>  (477) 
nan

>  <Num_H_Atoms_ProtBoundConf>  (477) 
nan

>  <Num_Resolved_Atoms>  (477) 
nan

>  <Num_Not_Resolved_Atoms>  (477) 
nan

$$$$
CHEMBL3634791
     RDKit          3D

  0  0  0  0  0  0  0  0  0  0999 V3000
M  V30 BEGIN CTAB
M  V30 COUNTS 32 35 0 0 0
M  V30 BEGIN ATOM
M  V30 1 C -1.302666 -3.914406 3.874783 0
M  V30 2 C -1.042113 -4.876093 2.916436 0
M  V30 3 C -0.565858 -4.483045 1.670699 0
M  V30 4 C -0.344858 -3.153212 1.362563 0
M  V30 5 C 0.157537 -2.832859 0.026334 0
M  V30 6 N 0.445409 -3.695281 -0.985525 0
M  V30 7 N 0.874899 -3.007332 -2.030323 0
M  V30 8 C 0.883395 -1.689832 -1.744035 0
M  V30 9 C 1.214014 -0.519947 -2.397574 0
M  V30 10 N 1.112056 0.691797 -1.825841 0
M  V30 11 C 0.678016 0.869562 -0.564461 0
M  V30 12 C 0.570725 2.192752 0.048537 0
M  V30 13 C 0.132098 2.420266 1.334419 0
M  V30 14 C 0.077762 3.726207 1.794613 0
M  V30 15 C 0.446842 4.800296 1.010639 0
M  V30 16 N 0.879109 4.557680 -0.260926 0
M  V30 17 C 0.935558 3.278187 -0.720831 0
M  V30 18 C 0.346307 -0.297115 0.092894 0
M  V30 19 C 0.432712 -1.556015 -0.446243 0
M  V30 20 N -0.603664 -2.229748 2.307009 0
M  V30 21 C -1.064339 -2.596833 3.515078 0
M  V30 22 H -1.673722 -4.184337 4.853896 0
M  V30 23 H -1.226471 -5.906909 3.191988 0
M  V30 24 H -0.384269 -5.288729 0.970907 0
M  V30 25 H 1.167844 -3.409589 -2.948116 0
M  V30 26 H 1.571988 -0.603968 -3.423163 0
M  V30 27 H -0.151770 1.591918 1.936872 0
M  V30 28 H -0.269554 3.868017 2.803748 0
M  V30 29 H 0.389819 5.795886 1.405306 0
M  V30 30 H 1.293756 3.222108 -1.740354 0
M  V30 31 H -0.009915 -0.260083 1.102507 0
M  V30 32 H -1.272760 -1.853641 4.275536 0
M  V30 END ATOM
M  V30 BEGIN BOND
M  V30 1 2 1 2
M  V30 2 1 2 3
M  V30 3 2 3 4
M  V30 4 1 4 5
M  V30 5 2 5 6
M  V30 6 1 6 7
M  V30 7 1 7 8
M  V30 8 2 8 9
M  V30 9 1 9 10
M  V30 10 2 10 11
M  V30 11 1 11 12
M  V30 12 2 12 13
M  V30 13 1 13 14
M  V30 14 2 14 15
M  V30 15 1 15 16
M  V30 16 2 16 17
M  V30 17 1 11 18
M  V30 18 2 18 19
M  V30 19 1 4 20
M  V30 20 2 20 21
M  V30 21 1 21 1
M  V30 22 1 19 5
M  V30 23 1 19 8
M  V30 24 1 17 12
M  V30 25 1 1 22
M  V30 26 1 2 23
M  V30 27 1 3 24
M  V30 28 1 7 25
M  V30 29 1 9 26
M  V30 30 1 13 27
M  V30 31 1 14 28
M  V30 32 1 15 29
M  V30 33 1 17 30
M  V30 34 1 18 31
M  V30 35 1 21 32
M  V30 END BOND
M  V30 END CTAB
M  END
>  <Dataset>  (478) 
ChEMBL_Kinases

>  <Ligand_Instance>  (478) 
nan

>  <PDB_ID>  (478) 
nan

>  <Standardized_SMILES>  (478) 
c1ccc(-c2n[nH]c3cnc(-c4cccnc4)cc23)nc1

>  <Name>  (478) 
nan

>  <Pocket>  (478) 
nan

>  <ATP_Site>  (478) 
nan

>  <Peripheral>  (478) 
nan

>  <Num_H_Atoms_ProtBoundConf>  (478) 
nan

>  <Num_Resolved_Atoms>  (478) 
nan

>  <Num_Not_Resolved_Atoms>  (478) 
nan

$$$$
CHEMBL3907932
     RDKit          3D

  0  0  0  0  0  0  0  0  0  0999 V3000
M  V30 BEGIN CTAB
M  V30 COUNTS 68 72 0 0 0
M  V30 BEGIN ATOM
M  V30 1 C 2.036005 -2.829629 2.703600 0
M  V30 2 C 3.272160 -2.427847 2.504934 0
M  V30 3 C 3.705956 -2.196458 1.139501 0
M  V30 4 O 4.872195 -1.811091 0.883885 0
M  V30 5 N 2.830066 -2.397120 0.051457 0
M  V30 6 C 2.799320 -2.309484 -1.353642 0
M  V30 7 C 3.166334 -3.462674 -2.036399 0
M  V30 8 C 3.147232 -3.432102 -3.414342 0
M  V30 9 C 2.766368 -2.263441 -4.033844 0
M  V30 10 C 2.391338 -1.085727 -3.376827 0
M  V30 11 N 2.029232 0.012764 -4.177487 0
M  V30 12 S 0.662822 1.025434 -3.913999 0
M  V30 13 O 0.658150 2.115372 -4.941694 0
M  V30 14 O 0.794493 1.673095 -2.570215 0
M  V30 15 C -0.830627 0.181546 -3.994937 0
M  V30 16 C -1.423673 0.049698 -5.233265 0
M  V30 17 C -2.619036 -0.626904 -5.332078 0
M  V30 18 C -3.209799 -1.160201 -4.221616 0
M  V30 19 C -2.672049 -1.065012 -2.955899 0
M  V30 20 N -3.324748 -1.647845 -1.839803 0
M  V30 21 C -3.014990 -1.534638 -0.457640 0
M  V30 22 N -3.747344 -2.221828 0.429716 0
M  V30 23 C -3.561786 -2.185680 1.744147 0
M  V30 24 C -2.571061 -1.409926 2.257892 0
M  V30 25 C -1.806606 -0.697828 1.387906 0
M  V30 26 N -2.029496 -0.763777 0.060045 0
M  V30 27 N -0.730456 0.178275 1.697527 0
M  V30 28 C 0.262401 0.380876 0.673422 0
M  V30 29 C -0.539653 0.880074 2.924444 0
M  V30 30 C 0.239471 2.024240 2.719260 0
M  V30 31 C 0.539394 2.850771 3.800864 0
M  V30 32 C 0.065670 2.530205 5.055784 0
M  V30 33 C 0.383634 3.409506 6.211925 0
M  V30 34 C -0.700178 1.411187 5.275278 0
M  V30 35 C -1.002157 0.581618 4.191923 0
M  V30 36 C -1.832648 -0.584817 4.557876 0
M  V30 37 O -1.935792 -0.781523 5.791738 0
M  V30 38 N -2.515495 -1.491713 3.669480 0
M  V30 39 C -3.208364 -2.586430 4.285699 0
M  V30 40 C -1.478693 -0.378784 -2.918232 0
M  V30 41 C 2.421191 -1.149316 -1.995078 0
M  V30 42 H 1.065445 -3.156375 3.021689 0
M  V30 43 H 1.429510 -3.086183 3.547300 0
M  V30 44 H 3.980631 -2.261360 3.297585 0
M  V30 45 H 1.855332 -2.719297 0.269917 0
M  V30 46 H 3.469485 -4.390404 -1.575356 0
M  V30 47 H 3.423506 -4.301337 -3.981332 0
M  V30 48 H 2.766992 -2.284622 -5.115149 0
M  V30 49 H 2.675657 0.193943 -4.993729 0
M  V30 50 H -0.966063 0.465855 -6.115476 0
M  V30 51 H -3.087459 -0.731840 -6.301888 0
M  V30 52 H -4.151708 -1.682536 -4.362933 0
M  V30 53 H -4.162039 -2.255398 -2.088691 0
M  V30 54 H -4.192924 -2.766389 2.395126 0
M  V30 55 H 1.299618 0.434577 1.119100 0
M  V30 56 H 0.030954 1.244123 0.020373 0
M  V30 57 H 0.291916 -0.528156 0.042481 0
M  V30 58 H 0.589315 2.237011 1.713593 0
M  V30 59 H 1.139899 3.731063 3.632386 0
M  V30 60 H 0.122877 4.462786 5.917386 0
M  V30 61 H -0.175105 3.100561 7.115468 0
M  V30 62 H 1.483662 3.409250 6.346692 0
M  V30 63 H -1.093360 1.127243 6.258204 0
M  V30 64 H -2.959894 -3.583803 3.828234 0
M  V30 65 H -2.809802 -2.684610 5.333088 0
M  V30 66 H -4.294555 -2.452570 4.406103 0
M  V30 67 H -0.974845 -0.250128 -1.974201 0
M  V30 68 H 2.136952 -0.255131 -1.472506 0
M  V30 END ATOM
M  V30 BEGIN BOND
M  V30 1 2 1 2
M  V30 2 1 2 3
M  V30 3 2 3 4
M  V30 4 1 3 5
M  V30 5 1 5 6
M  V30 6 2 6 7
M  V30 7 1 7 8
M  V30 8 2 8 9
M  V30 9 1 9 10
M  V30 10 1 10 11
M  V30 11 1 11 12
M  V30 12 2 12 13
M  V30 13 2 12 14
M  V30 14 1 12 15
M  V30 15 2 15 16
M  V30 16 1 16 17
M  V30 17 2 17 18
M  V30 18 1 18 19
M  V30 19 1 19 20
M  V30 20 1 20 21
M  V30 21 2 21 22
M  V30 22 1 22 23
M  V30 23 2 23 24
M  V30 24 1 24 25
M  V30 25 2 25 26
M  V30 26 1 25 27
M  V30 27 1 27 28
M  V30 28 1 27 29
M  V30 29 2 29 30
M  V30 30 1 30 31
M  V30 31 2 31 32
M  V30 32 1 32 33
M  V30 33 1 32 34
M  V30 34 2 34 35
M  V30 35 1 35 36
M  V30 36 2 36 37
M  V30 37 1 36 38
M  V30 38 1 38 39
M  V30 39 2 19 40
M  V30 40 2 10 41
M  V30 41 1 41 6
M  V30 42 1 40 15
M  V30 43 1 26 21
M  V30 44 1 35 29
M  V30 45 1 38 24
M  V30 46 1 1 42
M  V30 47 1 1 43
M  V30 48 1 2 44
M  V30 49 1 5 45
M  V30 50 1 7 46
M  V30 51 1 8 47
M  V30 52 1 9 48
M  V30 53 1 11 49
M  V30 54 1 16 50
M  V30 55 1 17 51
M  V30 56 1 18 52
M  V30 57 1 20 53
M  V30 58 1 23 54
M  V30 59 1 28 55
M  V30 60 1 28 56
M  V30 61 1 28 57
M  V30 62 1 30 58
M  V30 63 1 31 59
M  V30 64 1 33 60
M  V30 65 1 33 61
M  V30 66 1 33 62
M  V30 67 1 34 63
M  V30 68 1 39 64
M  V30 69 1 39 65
M  V30 70 1 39 66
M  V30 71 1 40 67
M  V30 72 1 41 68
M  V30 END BOND
M  V30 END CTAB
M  END
>  <Dataset>  (479) 
ChEMBL_Kinases

>  <Ligand_Instance>  (479) 
nan

>  <PDB_ID>  (479) 
nan

>  <Standardized_SMILES>  (479) 
C=CC(=O)Nc1cccc(NS(=O)(=O)c2cccc(Nc3ncc4c(n3)N(C)c3ccc(C)cc3C(=O)N4C)c2)c1

>  <Name>  (479) 
nan

>  <Pocket>  (479) 
nan

>  <ATP_Site>  (479) 
nan

>  <Peripheral>  (479) 
nan

>  <Num_H_Atoms_ProtBoundConf>  (479) 
nan

>  <Num_Resolved_Atoms>  (479) 
nan

>  <Num_Not_Resolved_Atoms>  (479) 
nan

$$$$
CHEMBL4071926
     RDKit          3D

  0  0  0  0  0  0  0  0  0  0999 V3000
M  V30 BEGIN CTAB
M  V30 COUNTS 44 46 0 0 0
M  V30 BEGIN ATOM
M  V30 1 C -0.540261 -3.821810 1.009205 0
M  V30 2 C 0.829507 -3.657902 1.492496 0
M  V30 3 C 1.175459 -4.790895 2.393394 0
M  V30 4 C 1.722984 -2.698180 1.255201 0
M  V30 5 C 1.725946 -1.491961 0.481148 0
M  V30 6 C 2.717359 -1.306957 -0.497850 0
M  V30 7 Cl 4.016888 -2.395551 -0.960364 0
M  V30 8 C 2.502519 -0.078154 -1.068685 0
M  V30 9 C 3.161650 0.596953 -2.070242 0
M  V30 10 Cl 4.546824 -0.059411 -2.875058 0
M  V30 11 C 2.706099 1.840709 -2.449262 0
M  V30 12 C 1.616800 2.306697 -1.785587 0
M  V30 13 C 1.065424 3.592678 -2.130550 0
M  V30 14 N -0.084627 4.117299 -1.506688 0
M  V30 15 O 1.103895 4.619179 -2.802886 0
M  V30 16 N 0.999991 1.630718 -0.820110 0
M  V30 17 C 1.411585 0.408648 -0.415056 0
M  V30 18 N 0.907841 -0.429825 0.544212 0
M  V30 19 C -0.198909 -0.084578 1.361595 0
M  V30 20 C -0.081978 -0.417046 2.823608 0
M  V30 21 C -1.493291 -0.220036 3.392879 0
M  V30 22 C -2.175538 0.893585 2.670815 0
M  V30 23 N -2.516999 0.583241 1.298991 0
M  V30 24 C -1.559188 -0.459366 0.874364 0
M  V30 25 H -1.266452 -3.680313 1.835360 0
M  V30 26 H -0.684175 -4.887233 0.651560 0
M  V30 27 H -0.787615 -3.123845 0.172976 0
M  V30 28 H 2.083543 -4.561767 3.007527 0
M  V30 29 H 0.377345 -5.059465 3.100008 0
M  V30 30 H 1.371697 -5.702684 1.760080 0
M  V30 31 H 2.684795 -2.865555 1.782476 0
M  V30 32 H 3.110803 2.482050 -3.207167 0
M  V30 33 H -0.970589 4.548828 -1.236161 0
M  V30 34 H -0.484604 4.195751 -0.527356 0
M  V30 35 H -0.231429 1.068367 1.387588 0
M  V30 36 H 0.234233 -1.409164 3.089241 0
M  V30 37 H 0.634398 0.304184 3.297254 0
M  V30 38 H -2.084309 -1.134463 3.370482 0
M  V30 39 H -1.369432 0.059609 4.455239 0
M  V30 40 H -3.146740 1.082088 3.209455 0
M  V30 41 H -1.614860 1.833778 2.696354 0
M  V30 42 H -2.387144 1.437376 0.675642 0
M  V30 43 H -1.961006 -1.377246 1.353910 0
M  V30 44 H -1.670551 -0.559153 -0.212451 0
M  V30 END ATOM
M  V30 BEGIN BOND
M  V30 1 1 1 2
M  V30 2 1 2 3
M  V30 3 2 2 4 CFG=2
M  V30 4 1 4 5
M  V30 5 2 5 6
M  V30 6 1 6 7
M  V30 7 1 6 8
M  V30 8 2 8 9
M  V30 9 1 9 10
M  V30 10 1 9 11
M  V30 11 2 11 12
M  V30 12 1 12 13
M  V30 13 1 13 14
M  V30 14 2 13 15
M  V30 15 1 12 16
M  V30 16 2 16 17
M  V30 17 1 17 18
M  V30 18 1 18 19
M  V30 19 1 19 20
M  V30 20 1 20 21
M  V30 21 1 21 22
M  V30 22 1 22 23
M  V30 23 1 23 24
M  V30 24 1 18 5
M  V30 25 1 24 19
M  V30 26 1 17 8
M  V30 27 1 1 25
M  V30 28 1 1 26
M  V30 29 1 1 27
M  V30 30 1 3 28
M  V30 31 1 3 29
M  V30 32 1 3 30
M  V30 33 1 4 31
M  V30 34 1 11 32
M  V30 35 1 14 33
M  V30 36 1 14 34
M  V30 37 1 19 35
M  V30 38 1 20 36
M  V30 39 1 20 37
M  V30 40 1 21 38
M  V30 41 1 21 39
M  V30 42 1 22 40
M  V30 43 1 22 41
M  V30 44 1 23 42
M  V30 45 1 24 43
M  V30 46 1 24 44
M  V30 END BOND
M  V30 END CTAB
M  END
>  <Dataset>  (480) 
ChEMBL_Kinases

>  <Ligand_Instance>  (480) 
nan

>  <PDB_ID>  (480) 
nan

>  <Standardized_SMILES>  (480) 
CC(C)=Cc1c(Cl)c2c(Cl)cc(C(N)=O)nc2n1C1CCCNC1

>  <Name>  (480) 
nan

>  <Pocket>  (480) 
nan

>  <ATP_Site>  (480) 
nan

>  <Peripheral>  (480) 
nan

>  <Num_H_Atoms_ProtBoundConf>  (480) 
nan

>  <Num_Resolved_Atoms>  (480) 
nan

>  <Num_Not_Resolved_Atoms>  (480) 
nan

$$$$
CHEMBL3634800
     RDKit          3D

  0  0  0  0  0  0  0  0  0  0999 V3000
M  V30 BEGIN CTAB
M  V30 COUNTS 52 56 0 0 0
M  V30 BEGIN ATOM
M  V30 1 C 3.242120 -5.506584 -1.917057 0
M  V30 2 C 2.368204 -4.297910 -1.959616 0
M  V30 3 N 2.254346 -3.529764 -0.880585 0
M  V30 4 C 1.476632 -2.415767 -0.847310 0
M  V30 5 C 1.297836 -1.523953 0.290474 0
M  V30 6 N 2.145661 -0.732706 0.969304 0
M  V30 7 C 1.502021 -0.073193 1.977108 0
M  V30 8 C 2.355594 0.828307 2.795996 0
M  V30 9 N 2.409183 2.157621 2.220046 0
M  V30 10 C 1.379136 3.113640 2.055150 0
M  V30 11 C 1.620450 4.349708 1.447291 0
M  V30 12 C 0.605893 5.258062 1.309492 0
M  V30 13 C -0.674299 5.022098 1.745418 0
M  V30 14 C -0.945766 3.812946 2.349311 0
M  V30 15 C -2.297664 3.537782 2.820854 0
M  V30 16 N -2.659703 2.325616 3.444902 0
M  V30 17 O -3.177439 4.418347 2.664507 0
M  V30 18 C 0.084266 2.913210 2.479476 0
M  V30 19 N 0.234695 -0.499478 1.876826 0
M  V30 20 C 0.063241 -1.368483 0.882608 0
M  V30 21 C -1.257910 -1.918462 0.650248 0
M  V30 22 C -2.387101 -1.192697 0.323919 0
M  V30 23 C -3.559478 -1.897424 0.141192 0
M  V30 24 C -3.571766 -3.275481 0.285982 0
M  V30 25 N -4.585218 -4.150099 0.156473 0
M  V30 26 C -4.115172 -5.396923 0.393485 0
M  V30 27 N -2.795545 -5.271549 0.670622 0
M  V30 28 N -2.456033 -3.980098 0.607096 0
M  V30 29 C -1.303480 -3.307463 0.788904 0
M  V30 30 C 0.767295 -2.064934 -1.998071 0
M  V30 31 C 0.861281 -2.842351 -3.143429 0
M  V30 32 C 1.671251 -3.974528 -3.128270 0
M  V30 33 F 1.790698 -4.763450 -4.230627 0
M  V30 34 H 4.292521 -5.157369 -1.927922 0
M  V30 35 H 3.087124 -6.121697 -2.815319 0
M  V30 36 H 2.988660 -6.133402 -1.034045 0
M  V30 37 H 3.136718 -0.747344 0.627358 0
M  V30 38 H 1.804249 0.887220 3.789377 0
M  V30 39 H 3.348180 0.415027 2.993179 0
M  V30 40 H 3.370883 2.447127 1.872337 0
M  V30 41 H 2.608966 4.566341 1.095451 0
M  V30 42 H 0.866316 6.202086 0.825445 0
M  V30 43 H -1.439393 5.773980 1.611812 0
M  V30 44 H -3.123954 2.187671 4.354411 0
M  V30 45 H -2.404115 1.487056 2.873479 0
M  V30 46 H -0.202081 1.994507 2.966457 0
M  V30 47 H -2.254379 -0.110399 0.237441 0
M  V30 48 H -4.430434 -1.312369 -0.113306 0
M  V30 49 H -4.616031 -6.370853 0.387511 0
M  V30 50 H -0.448284 -3.921602 1.042853 0
M  V30 51 H 0.131210 -1.180651 -2.018386 0
M  V30 52 H 0.304959 -2.555911 -4.026164 0
M  V30 END ATOM
M  V30 BEGIN BOND
M  V30 1 1 1 2
M  V30 2 2 2 3
M  V30 3 1 3 4
M  V30 4 1 4 5
M  V30 5 1 5 6
M  V30 6 1 6 7
M  V30 7 1 7 8
M  V30 8 1 8 9
M  V30 9 1 9 10
M  V30 10 2 10 11
M  V30 11 1 11 12
M  V30 12 2 12 13
M  V30 13 1 13 14
M  V30 14 1 14 15
M  V30 15 1 15 16
M  V30 16 2 15 17
M  V30 17 2 14 18
M  V30 18 2 7 19
M  V30 19 1 19 20
M  V30 20 1 20 21
M  V30 21 1 21 22
M  V30 22 2 22 23
M  V30 23 1 23 24
M  V30 24 2 24 25
M  V30 25 1 25 26
M  V30 26 2 26 27
M  V30 27 1 27 28
M  V30 28 1 28 29
M  V30 29 2 4 30
M  V30 30 1 30 31
M  V30 31 2 31 32
M  V30 32 1 32 33
M  V30 33 1 32 2
M  V30 34 2 20 5
M  V30 35 2 29 21
M  V30 36 1 18 10
M  V30 37 1 28 24
M  V30 38 1 1 34
M  V30 39 1 1 35
M  V30 40 1 1 36
M  V30 41 1 6 37
M  V30 42 1 8 38
M  V30 43 1 8 39
M  V30 44 1 9 40
M  V30 45 1 11 41
M  V30 46 1 12 42
M  V30 47 1 13 43
M  V30 48 1 16 44
M  V30 49 1 16 45
M  V30 50 1 18 46
M  V30 51 1 22 47
M  V30 52 1 23 48
M  V30 53 1 26 49
M  V30 54 1 29 50
M  V30 55 1 30 51
M  V30 56 1 31 52
M  V30 END BOND
M  V30 END CTAB
M  END
>  <Dataset>  (481) 
ChEMBL_Kinases

>  <Ligand_Instance>  (481) 
nan

>  <PDB_ID>  (481) 
nan

>  <Standardized_SMILES>  (481) 
Cc1nc(-c2[nH]c(CNc3cccc(C(N)=O)c3)nc2-c2ccc3ncnn3c2)ccc1F

>  <Name>  (481) 
nan

>  <Pocket>  (481) 
nan

>  <ATP_Site>  (481) 
nan

>  <Peripheral>  (481) 
nan

>  <Num_H_Atoms_ProtBoundConf>  (481) 
nan

>  <Num_Resolved_Atoms>  (481) 
nan

>  <Num_Not_Resolved_Atoms>  (481) 
nan

$$$$
CHEMBL3634801
     RDKit          3D

  0  0  0  0  0  0  0  0  0  0999 V3000
M  V30 BEGIN CTAB
M  V30 COUNTS 52 56 0 0 0
M  V30 BEGIN ATOM
M  V30 1 C 4.172588 -5.333491 4.798639 0
M  V30 2 C 5.244817 -4.649043 4.434076 0
M  V30 3 C 5.213138 -3.486742 3.559821 0
M  V30 4 C 6.364933 -2.815314 3.215193 0
M  V30 5 C 6.238211 -1.719009 2.377819 0
M  V30 6 C 5.030369 -1.250852 1.862461 0
M  V30 7 C 3.909839 -1.959027 2.238942 0
M  V30 8 N 2.642422 -1.536651 1.750378 0
M  V30 9 C 2.563826 -0.382332 0.877577 0
M  V30 10 C 1.138627 -0.111536 0.482208 0
M  V30 11 N 0.291760 0.682923 1.160792 0
M  V30 12 C -0.913550 0.702616 0.524712 0
M  V30 13 C -2.176214 1.374413 0.797368 0
M  V30 14 C -2.526848 2.272671 -0.205259 0
M  V30 15 C -3.695218 3.005013 -0.121132 0
M  V30 16 C -4.500823 2.816237 0.988039 0
M  V30 17 N -5.666790 3.310414 1.430763 0
M  V30 18 C -6.025477 2.773698 2.610464 0
M  V30 19 N -5.037748 1.893406 2.934869 0
M  V30 20 N -4.139627 1.936518 1.951843 0
M  V30 21 C -3.002668 1.211919 1.887922 0
M  V30 22 C -0.750309 -0.122179 -0.574408 0
M  V30 23 C -1.720679 -0.450089 -1.582621 0
M  V30 24 C -2.848090 -1.127571 -1.107502 0
M  V30 25 C -3.869632 -1.507426 -1.978837 0
M  V30 26 C -3.781244 -1.217126 -3.335843 0
M  V30 27 F -4.767669 -1.582938 -4.183284 0
M  V30 28 C -2.637437 -0.540341 -3.759225 0
M  V30 29 C -2.480149 -0.199496 -5.198237 0
M  V30 30 N -1.652782 -0.177532 -2.900469 0
M  V30 31 N 0.504762 -0.608022 -0.583026 0
M  V30 32 C 4.000217 -3.055067 3.071054 0
M  V30 33 H 4.154507 -6.207771 5.450539 0
M  V30 34 H 3.130766 -5.204522 4.558448 0
M  V30 35 H 6.164413 -5.034214 4.849153 0
M  V30 36 H 7.335745 -3.122593 3.578050 0
M  V30 37 H 7.126282 -1.174401 2.091942 0
M  V30 38 H 5.019172 -0.384774 1.213121 0
M  V30 39 H 1.771062 -2.051466 2.015923 0
M  V30 40 H 2.922379 0.533558 1.403665 0
M  V30 41 H 3.130610 -0.575286 -0.061367 0
M  V30 42 H -1.933469 2.470772 -1.111285 0
M  V30 43 H -4.025403 3.719398 -0.866376 0
M  V30 44 H -6.950705 3.087494 3.080157 0
M  V30 45 H -2.659981 0.504816 2.609043 0
M  V30 46 H -2.971085 -1.383509 -0.043159 0
M  V30 47 H -4.738051 -2.037408 -1.566256 0
M  V30 48 H -1.874177 -0.976180 -5.721130 0
M  V30 49 H -1.897303 0.740652 -5.269388 0
M  V30 50 H -3.468407 -0.125285 -5.691905 0
M  V30 51 H 0.934673 -1.259406 -1.285331 0
M  V30 52 H 3.070761 -3.564465 3.324747 0
M  V30 END ATOM
M  V30 BEGIN BOND
M  V30 1 2 1 2
M  V30 2 1 2 3
M  V30 3 2 3 4
M  V30 4 1 4 5
M  V30 5 2 5 6
M  V30 6 1 6 7
M  V30 7 1 7 8
M  V30 8 1 8 9
M  V30 9 1 9 10
M  V30 10 2 10 11
M  V30 11 1 11 12
M  V30 12 1 12 13
M  V30 13 1 13 14
M  V30 14 2 14 15
M  V30 15 1 15 16
M  V30 16 2 16 17
M  V30 17 1 17 18
M  V30 18 2 18 19
M  V30 19 1 19 20
M  V30 20 1 20 21
M  V30 21 2 12 22
M  V30 22 1 22 23
M  V30 23 2 23 24
M  V30 24 1 24 25
M  V30 25 2 25 26
M  V30 26 1 26 27
M  V30 27 1 26 28
M  V30 28 1 28 29
M  V30 29 2 28 30
M  V30 30 1 22 31
M  V30 31 2 7 32
M  V30 32 1 32 3
M  V30 33 1 31 10
M  V30 34 2 21 13
M  V30 35 1 30 23
M  V30 36 1 20 16
M  V30 37 1 1 33
M  V30 38 1 1 34
M  V30 39 1 2 35
M  V30 40 1 4 36
M  V30 41 1 5 37
M  V30 42 1 6 38
M  V30 43 1 8 39
M  V30 44 1 9 40
M  V30 45 1 9 41
M  V30 46 1 14 42
M  V30 47 1 15 43
M  V30 48 1 18 44
M  V30 49 1 21 45
M  V30 50 1 24 46
M  V30 51 1 25 47
M  V30 52 1 29 48
M  V30 53 1 29 49
M  V30 54 1 29 50
M  V30 55 1 31 51
M  V30 56 1 32 52
M  V30 END BOND
M  V30 END CTAB
M  END
>  <Dataset>  (482) 
ChEMBL_Kinases

>  <Ligand_Instance>  (482) 
nan

>  <PDB_ID>  (482) 
nan

>  <Standardized_SMILES>  (482) 
C=Cc1cccc(NCc2nc(-c3ccc4ncnn4c3)c(-c3ccc(F)c(C)n3)[nH]2)c1

>  <Name>  (482) 
nan

>  <Pocket>  (482) 
nan

>  <ATP_Site>  (482) 
nan

>  <Peripheral>  (482) 
nan

>  <Num_H_Atoms_ProtBoundConf>  (482) 
nan

>  <Num_Resolved_Atoms>  (482) 
nan

>  <Num_Not_Resolved_Atoms>  (482) 
nan

$$$$
CHEMBL363648
     RDKit          3D

  0  0  0  0  0  0  0  0  0  0999 V3000
M  V30 BEGIN CTAB
M  V30 COUNTS 50 53 0 0 0
M  V30 BEGIN ATOM
M  V30 1 C -0.316277 -1.819553 6.485810 0
M  V30 2 C 1.088036 -1.604326 5.998745 0
M  V30 3 C 1.158312 -1.096510 4.607300 0
M  V30 4 N 1.982788 -0.784949 3.812193 0
M  V30 5 C 1.740995 -0.344981 2.581638 0
M  V30 6 C 2.924339 -0.010193 1.756325 0
M  V30 7 C 3.214423 -0.675427 0.581637 0
M  V30 8 C 4.301874 -0.391521 -0.207483 0
M  V30 9 C 5.158190 0.629028 0.208017 0
M  V30 10 C 4.897834 1.314040 1.376498 0
M  V30 11 C 5.867148 2.377473 1.727630 0
M  V30 12 C 3.789065 1.001835 2.151593 0
M  V30 13 C 0.404553 -0.224678 2.147635 0
M  V30 14 C 0.076984 0.262917 0.775711 0
M  V30 15 C 0.466268 1.534660 0.482991 0
M  V30 16 C 0.114460 1.898863 -0.819906 0
M  V30 17 N -0.533707 1.074041 -1.671429 0
M  V30 18 C -0.889014 -0.173981 -1.313844 0
M  V30 19 N -1.574862 -1.115877 -2.139499 0
M  V30 20 C -2.980149 -0.976501 -1.977196 0
M  V30 21 O -3.358228 -0.087999 -1.171811 0
M  V30 22 C -3.986351 -1.765695 -2.656740 0
M  V30 23 C -5.307695 -1.485283 -2.373909 0
M  V30 24 C -6.340926 -2.190980 -2.978081 0
M  V30 25 C -6.080594 -3.194066 -3.879638 0
M  V30 26 C -4.751179 -3.470208 -4.159009 0
M  V30 27 C -3.701597 -2.767495 -3.557860 0
M  V30 28 C -0.573658 -0.617116 -0.025003 0
M  V30 29 S -0.498741 -0.806365 3.681319 0
M  V30 30 H -0.679414 -0.834257 6.879714 0
M  V30 31 H -0.986069 -2.155135 5.642993 0
M  V30 32 H -0.317132 -2.613245 7.228909 0
M  V30 33 H 1.615087 -2.601100 6.076348 0
M  V30 34 H 1.618199 -0.940790 6.718784 0
M  V30 35 H 2.552339 -1.468188 0.255847 0
M  V30 36 H 4.488493 -0.941502 -1.122038 0
M  V30 37 H 6.027967 0.857639 -0.421819 0
M  V30 38 H 6.733800 2.000722 2.327904 0
M  V30 39 H 5.417866 3.200565 2.324840 0
M  V30 40 H 6.277665 2.860067 0.794054 0
M  V30 41 H 3.619340 1.568618 3.070054 0
M  V30 42 H 0.982990 2.212039 1.140985 0
M  V30 43 H 0.360222 2.895321 -1.205628 0
M  V30 44 H -1.230413 -1.842231 -2.799008 0
M  V30 45 H -5.615647 -0.701568 -1.666910 0
M  V30 46 H -7.393443 -2.009479 -2.790046 0
M  V30 47 H -6.853658 -3.779622 -4.382976 0
M  V30 48 H -4.494740 -4.257130 -4.867423 0
M  V30 49 H -2.675643 -2.981662 -3.774334 0
M  V30 50 H -0.838574 -1.599654 0.295385 0
M  V30 END ATOM
M  V30 BEGIN BOND
M  V30 1 1 1 2
M  V30 2 1 2 3
M  V30 3 2 3 4
M  V30 4 1 4 5
M  V30 5 1 5 6
M  V30 6 2 6 7
M  V30 7 1 7 8
M  V30 8 2 8 9
M  V30 9 1 9 10
M  V30 10 1 10 11
M  V30 11 2 10 12
M  V30 12 2 5 13
M  V30 13 1 13 14
M  V30 14 2 14 15
M  V30 15 1 15 16
M  V30 16 2 16 17
M  V30 17 1 17 18
M  V30 18 1 18 19
M  V30 19 1 19 20
M  V30 20 2 20 21
M  V30 21 1 20 22
M  V30 22 2 22 23
M  V30 23 1 23 24
M  V30 24 2 24 25
M  V30 25 1 25 26
M  V30 26 2 26 27
M  V30 27 2 18 28
M  V30 28 1 13 29
M  V30 29 1 29 3
M  V30 30 1 12 6
M  V30 31 1 28 14
M  V30 32 1 27 22
M  V30 33 1 1 30
M  V30 34 1 1 31
M  V30 35 1 1 32
M  V30 36 1 2 33
M  V30 37 1 2 34
M  V30 38 1 7 35
M  V30 39 1 8 36
M  V30 40 1 9 37
M  V30 41 1 11 38
M  V30 42 1 11 39
M  V30 43 1 11 40
M  V30 44 1 12 41
M  V30 45 1 15 42
M  V30 46 1 16 43
M  V30 47 1 19 44
M  V30 48 1 23 45
M  V30 49 1 24 46
M  V30 50 1 25 47
M  V30 51 1 26 48
M  V30 52 1 27 49
M  V30 53 1 28 50
M  V30 END BOND
M  V30 END CTAB
M  END
>  <Dataset>  (483) 
ChEMBL_Kinases

>  <Ligand_Instance>  (483) 
nan

>  <PDB_ID>  (483) 
nan

>  <Standardized_SMILES>  (483) 
CCc1nc(-c2cccc(C)c2)c(-c2ccnc(NC(=O)c3ccccc3)c2)s1

>  <Name>  (483) 
TAK-715

>  <Pocket>  (483) 
nan

>  <ATP_Site>  (483) 
nan

>  <Peripheral>  (483) 
nan

>  <Num_H_Atoms_ProtBoundConf>  (483) 
nan

>  <Num_Resolved_Atoms>  (483) 
nan

>  <Num_Not_Resolved_Atoms>  (483) 
nan

$$$$
CHEMBL4072362
     RDKit          3D

  0  0  0  0  0  0  0  0  0  0999 V3000
M  V30 BEGIN CTAB
M  V30 COUNTS 49 52 0 0 0
M  V30 BEGIN ATOM
M  V30 1 O 0.556562 -1.455038 0.727463 0
M  V30 2 C 0.910232 -1.125982 1.899907 0
M  V30 3 N 1.427324 -2.132444 2.740959 0
M  V30 4 C 1.624939 -3.524448 2.472680 0
M  V30 5 C 2.836965 -3.674163 1.627049 0
M  V30 6 C 2.841975 -3.695325 0.247456 0
M  V30 7 C 3.969192 -3.831366 -0.524972 0
M  V30 8 C 5.187362 -3.956626 0.102729 0
M  V30 9 C 5.250802 -3.943152 1.484813 0
M  V30 10 C 4.078971 -3.802909 2.208888 0
M  V30 11 C 0.762764 0.266111 2.309733 0
M  V30 12 C 1.111176 0.730012 3.558113 0
M  V30 13 C 0.954670 2.049515 3.913876 0
M  V30 14 C 0.439834 2.961202 3.027146 0
M  V30 15 C 0.070179 2.541816 1.745908 0
M  V30 16 N -0.453293 3.487460 0.832956 0
M  V30 17 C -0.946933 3.421515 -0.520736 0
M  V30 18 C -2.216157 2.612624 -0.634158 0
M  V30 19 C -3.486929 3.327348 -0.419325 0
M  V30 20 S -4.692757 1.968322 -0.674204 0
M  V30 21 C -3.368478 0.718503 -1.011783 0
M  V30 22 C -3.641149 -0.666288 -1.312392 0
M  V30 23 C -2.598480 -1.509307 -1.552369 0
M  V30 24 C -2.832389 -2.843562 -1.843284 0
M  V30 25 N -4.113727 -3.300778 -1.886224 0
M  V30 26 C -5.154981 -2.460633 -1.646914 0
M  V30 27 C -4.924718 -1.147786 -1.360709 0
M  V30 28 N -2.312940 1.341174 -0.916303 0
M  V30 29 C 0.249196 1.204550 1.441796 0
M  V30 30 H 1.713254 -1.842551 3.700845 0
M  V30 31 H 0.797382 -3.974815 1.878569 0
M  V30 32 H 1.753016 -4.141451 3.359926 0
M  V30 33 H 1.910855 -3.603298 -0.271926 0
M  V30 34 H 3.918019 -3.841732 -1.608736 0
M  V30 35 H 6.058593 -4.062531 -0.533852 0
M  V30 36 H 6.238031 -4.046069 1.915861 0
M  V30 37 H 4.239424 -3.804747 3.267792 0
M  V30 38 H 1.518454 0.072078 4.297579 0
M  V30 39 H 1.230298 2.411139 4.898417 0
M  V30 40 H 0.325142 4.001313 3.333266 0
M  V30 41 H -0.513695 4.488936 1.191885 0
M  V30 42 H -0.137862 2.904332 -1.118687 0
M  V30 43 H -1.043169 4.404801 -1.009994 0
M  V30 44 H -3.513941 4.477635 -0.158794 0
M  V30 45 H -1.583646 -1.111268 -1.510153 0
M  V30 46 H -1.949514 -3.438838 -2.019928 0
M  V30 47 H -6.127050 -2.913689 -1.703613 0
M  V30 48 H -5.758469 -0.480932 -1.169969 0
M  V30 49 H -0.011433 0.833891 0.469013 0
M  V30 END ATOM
M  V30 BEGIN BOND
M  V30 1 2 1 2
M  V30 2 1 2 3
M  V30 3 1 3 4
M  V30 4 1 4 5
M  V30 5 2 5 6
M  V30 6 1 6 7
M  V30 7 2 7 8
M  V30 8 1 8 9
M  V30 9 2 9 10
M  V30 10 1 2 11
M  V30 11 2 11 12
M  V30 12 1 12 13
M  V30 13 2 13 14
M  V30 14 1 14 15
M  V30 15 1 15 16
M  V30 16 1 16 17
M  V30 17 1 17 18
M  V30 18 2 18 19
M  V30 19 1 19 20
M  V30 20 1 20 21
M  V30 21 1 21 22
M  V30 22 2 22 23
M  V30 23 1 23 24
M  V30 24 2 24 25
M  V30 25 1 25 26
M  V30 26 2 26 27
M  V30 27 2 21 28
M  V30 28 2 15 29
M  V30 29 1 10 5
M  V30 30 1 29 11
M  V30 31 1 28 18
M  V30 32 1 27 22
M  V30 33 1 3 30
M  V30 34 1 4 31
M  V30 35 1 4 32
M  V30 36 1 6 33
M  V30 37 1 7 34
M  V30 38 1 8 35
M  V30 39 1 9 36
M  V30 40 1 10 37
M  V30 41 1 12 38
M  V30 42 1 13 39
M  V30 43 1 14 40
M  V30 44 1 16 41
M  V30 45 1 17 42
M  V30 46 1 17 43
M  V30 47 1 19 44
M  V30 48 1 23 45
M  V30 49 1 24 46
M  V30 50 1 26 47
M  V30 51 1 27 48
M  V30 52 1 29 49
M  V30 END BOND
M  V30 END CTAB
M  END
>  <Dataset>  (484) 
ChEMBL_Kinases

>  <Ligand_Instance>  (484) 
nan

>  <PDB_ID>  (484) 
nan

>  <Standardized_SMILES>  (484) 
O=C(NCc1ccccc1)c1cccc(NCc2csc(-c3ccncc3)n2)c1

>  <Name>  (484) 
nan

>  <Pocket>  (484) 
nan

>  <ATP_Site>  (484) 
nan

>  <Peripheral>  (484) 
nan

>  <Num_H_Atoms_ProtBoundConf>  (484) 
nan

>  <Num_Resolved_Atoms>  (484) 
nan

>  <Num_Not_Resolved_Atoms>  (484) 
nan

$$$$
CHEMBL3908596
     RDKit          3D

  0  0  0  0  0  0  0  0  0  0999 V3000
M  V30 BEGIN CTAB
M  V30 COUNTS 30 32 0 0 0
M  V30 BEGIN ATOM
M  V30 1 N 1.546990 -0.530924 4.928556 0
M  V30 2 C 0.880753 -1.777427 4.769164 0
M  V30 3 O 0.839398 -2.473015 5.816977 0
M  V30 4 C 0.358541 -2.046068 3.432152 0
M  V30 5 C 0.472823 -1.194796 2.366374 0
M  V30 6 C -0.087933 -1.630984 1.183914 0
M  V30 7 C 0.018399 -0.742902 0.027841 0
M  V30 8 C 0.613777 0.498643 -0.052313 0
M  V30 9 N 0.508743 1.011466 -1.292599 0
M  V30 10 C 0.957093 2.197983 -1.783933 0
M  V30 11 C 0.683102 2.427924 -3.120019 0
M  V30 12 Br 1.292934 4.089275 -3.869824 0
M  V30 13 C -0.005207 1.513300 -3.919812 0
M  V30 14 C -0.428206 0.324556 -3.337636 0
M  V30 15 C -0.159037 0.086483 -2.004129 0
M  V30 16 N -0.455725 -0.965844 -1.220914 0
M  V30 17 C -0.735182 -2.838527 1.025920 0
M  V30 18 C -0.839678 -3.684015 2.115555 0
M  V30 19 C -0.285699 -3.268386 3.309871 0
M  V30 20 O -0.424356 -4.167608 4.374165 0
M  V30 21 H 1.895849 0.188308 4.258986 0
M  V30 22 H 1.913044 0.098227 5.641995 0
M  V30 23 H 0.974170 -0.264729 2.497689 0
M  V30 24 H 1.094621 0.987682 0.763702 0
M  V30 25 H 1.487489 2.898486 -1.160756 0
M  V30 26 H -0.157713 1.805800 -4.945325 0
M  V30 27 H -0.953169 -0.369869 -3.952904 0
M  V30 28 H -1.143580 -3.091786 0.054163 0
M  V30 29 H -1.355029 -4.621877 1.949212 0
M  V30 30 H -1.304337 -4.476518 4.726833 0
M  V30 END ATOM
M  V30 BEGIN BOND
M  V30 1 1 1 2
M  V30 2 2 2 3
M  V30 3 1 2 4
M  V30 4 2 4 5
M  V30 5 1 5 6
M  V30 6 1 6 7
M  V30 7 2 7 8
M  V30 8 1 8 9
M  V30 9 1 9 10
M  V30 10 2 10 11
M  V30 11 1 11 12
M  V30 12 1 11 13
M  V30 13 2 13 14
M  V30 14 1 14 15
M  V30 15 2 15 16
M  V30 16 2 6 17
M  V30 17 1 17 18
M  V30 18 2 18 19
M  V30 19 1 19 20
M  V30 20 1 19 4
M  V30 21 1 16 7
M  V30 22 1 15 9
M  V30 23 1 1 21
M  V30 24 1 1 22
M  V30 25 1 5 23
M  V30 26 1 8 24
M  V30 27 1 10 25
M  V30 28 1 13 26
M  V30 29 1 14 27
M  V30 30 1 17 28
M  V30 31 1 18 29
M  V30 32 1 20 30
M  V30 END BOND
M  V30 END CTAB
M  END
>  <Dataset>  (485) 
ChEMBL_Kinases

>  <Ligand_Instance>  (485) 
nan

>  <PDB_ID>  (485) 
nan

>  <Standardized_SMILES>  (485) 
NC(=O)c1cc(-c2cn3cc(Br)ccc3n2)ccc1O

>  <Name>  (485) 
nan

>  <Pocket>  (485) 
nan

>  <ATP_Site>  (485) 
nan

>  <Peripheral>  (485) 
nan

>  <Num_H_Atoms_ProtBoundConf>  (485) 
nan

>  <Num_Resolved_Atoms>  (485) 
nan

>  <Num_Not_Resolved_Atoms>  (485) 
nan

$$$$
CHEMBL365847
     RDKit          3D

  0  0  0  0  0  0  0  0  0  0999 V3000
M  V30 BEGIN CTAB
M  V30 COUNTS 63 67 0 0 0
M  V30 BEGIN ATOM
M  V30 1 C 4.855970 -4.243049 4.377911 0
M  V30 2 C 3.748756 -3.405453 3.890136 0
M  V30 3 O 2.757477 -3.333535 4.678593 0
M  V30 4 C 3.280031 -2.559206 2.796459 0
M  V30 5 C 3.565888 -1.221345 2.844156 0
M  V30 6 C 4.324278 -0.566540 3.938866 0
M  V30 7 C 3.084986 -0.491815 1.763391 0
M  V30 8 C 3.325369 0.863376 1.741307 0
M  V30 9 N 2.865300 1.613440 0.703347 0
M  V30 10 C 2.178439 1.052101 -0.303962 0
M  V30 11 N 1.571826 1.567863 -1.483600 0
M  V30 12 C 0.150251 1.711929 -1.369067 0
M  V30 13 C -0.507842 1.414638 -0.191989 0
M  V30 14 C -1.896496 1.516117 -0.024617 0
M  V30 15 C -2.624874 1.939035 -1.111687 0
M  V30 16 N -4.035141 2.069166 -1.021746 0
M  V30 17 C -4.833107 2.019600 0.189298 0
M  V30 18 C -5.497679 0.663519 0.176405 0
M  V30 19 N -6.072769 0.342587 -1.103947 0
M  V30 20 C -6.192066 1.462947 -1.992298 0
M  V30 21 C -4.926307 2.266278 -2.146452 0
M  V30 22 C -2.003763 2.242548 -2.294156 0
M  V30 23 C -0.635314 2.130634 -2.420749 0
M  V30 24 N 1.963117 -0.272536 -0.248212 0
M  V30 25 C 2.382815 -1.087129 0.741637 0
M  V30 26 N 2.119672 -2.432965 0.736685 0
M  V30 27 C 1.380202 -2.857598 -0.401316 0
M  V30 28 C 1.106167 -4.257498 -0.652984 0
M  V30 29 C -0.283535 -4.584378 -0.174865 0
M  V30 30 C -0.931905 -3.260325 0.060255 0
M  V30 31 C 0.033518 -2.174536 -0.348974 0
M  V30 32 C 2.584213 -3.129925 1.778300 0
M  V30 33 O 2.342529 -4.344981 1.765829 0
M  V30 34 H 4.428342 -5.269937 4.571716 0
M  V30 35 H 5.653141 -4.252397 3.611970 0
M  V30 36 H 5.228103 -3.821056 5.352900 0
M  V30 37 H 4.572568 -1.335739 4.689646 0
M  V30 38 H 3.630018 0.174916 4.394259 0
M  V30 39 H 5.252257 -0.062600 3.572029 0
M  V30 40 H 3.864892 1.413244 2.495332 0
M  V30 41 H 2.005225 1.847558 -2.387355 0
M  V30 42 H 0.040002 1.073017 0.699236 0
M  V30 43 H -2.335373 1.262002 0.924708 0
M  V30 44 H -4.186639 2.070984 1.074844 0
M  V30 45 H -5.569057 2.850293 0.248292 0
M  V30 46 H -6.194282 0.623906 1.024227 0
M  V30 47 H -4.693537 -0.082091 0.379868 0
M  V30 48 H -7.031577 -0.034381 -0.937372 0
M  V30 49 H -7.056918 2.101363 -1.718419 0
M  V30 50 H -6.432839 1.046994 -3.002896 0
M  V30 51 H -5.216759 3.337501 -2.110752 0
M  V30 52 H -4.448157 2.119089 -3.131493 0
M  V30 53 H -2.471573 2.578590 -3.188735 0
M  V30 54 H -0.082489 2.358907 -3.336583 0
M  V30 55 H 1.904713 -2.396560 -1.296170 0
M  V30 56 H 1.873540 -5.013079 -0.389010 0
M  V30 57 H 1.042441 -4.394280 -1.781970 0
M  V30 58 H -0.906089 -5.124362 -0.951165 0
M  V30 59 H -0.304824 -5.277794 0.691168 0
M  V30 60 H -1.835087 -3.110909 -0.601697 0
M  V30 61 H -1.318575 -3.141003 1.094903 0
M  V30 62 H -0.235784 -1.718180 -1.326168 0
M  V30 63 H -0.011155 -1.409529 0.463022 0
M  V30 END ATOM
M  V30 BEGIN BOND
M  V30 1 1 1 2
M  V30 2 2 2 3
M  V30 3 1 2 4
M  V30 4 2 4 5
M  V30 5 1 5 6
M  V30 6 1 5 7
M  V30 7 2 7 8
M  V30 8 1 8 9
M  V30 9 2 9 10
M  V30 10 1 10 11
M  V30 11 1 11 12
M  V30 12 2 12 13
M  V30 13 1 13 14
M  V30 14 2 14 15
M  V30 15 1 15 16
M  V30 16 1 16 17
M  V30 17 1 17 18
M  V30 18 1 18 19
M  V30 19 1 19 20
M  V30 20 1 20 21
M  V30 21 1 15 22
M  V30 22 2 22 23
M  V30 23 1 10 24
M  V30 24 2 24 25
M  V30 25 1 25 26
M  V30 26 1 26 27
M  V30 27 1 27 28
M  V30 28 1 28 29
M  V30 29 1 29 30
M  V30 30 1 30 31
M  V30 31 1 26 32
M  V30 32 2 32 33
M  V30 33 1 32 4
M  V30 34 1 25 7
M  V30 35 1 31 27
M  V30 36 1 23 12
M  V30 37 1 21 16
M  V30 38 1 1 34
M  V30 39 1 1 35
M  V30 40 1 1 36
M  V30 41 1 6 37
M  V30 42 1 6 38
M  V30 43 1 6 39
M  V30 44 1 8 40
M  V30 45 1 11 41
M  V30 46 1 13 42
M  V30 47 1 14 43
M  V30 48 1 17 44
M  V30 49 1 17 45
M  V30 50 1 18 46
M  V30 51 1 18 47
M  V30 52 1 19 48
M  V30 53 1 20 49
M  V30 54 1 20 50
M  V30 55 1 21 51
M  V30 56 1 21 52
M  V30 57 1 22 53
M  V30 58 1 23 54
M  V30 59 1 27 55
M  V30 60 1 28 56
M  V30 61 1 28 57
M  V30 62 1 29 58
M  V30 63 1 29 59
M  V30 64 1 30 60
M  V30 65 1 30 61
M  V30 66 1 31 62
M  V30 67 1 31 63
M  V30 END BOND
M  V30 END CTAB
M  END
>  <Dataset>  (486) 
ChEMBL_Kinases

>  <Ligand_Instance>  (486) 
nan

>  <PDB_ID>  (486) 
nan

>  <Standardized_SMILES>  (486) 
CC(=O)c1c(C)c2cnc(Nc3ccc(N4CCNCC4)cc3)nc2n(C2CCCC2)c1=O

>  <Name>  (486) 
nan

>  <Pocket>  (486) 
nan

>  <ATP_Site>  (486) 
nan

>  <Peripheral>  (486) 
nan

>  <Num_H_Atoms_ProtBoundConf>  (486) 
nan

>  <Num_Resolved_Atoms>  (486) 
nan

>  <Num_Not_Resolved_Atoms>  (486) 
nan

$$$$
CHEMBL3639469
     RDKit          3D

  0  0  0  0  0  0  0  0  0  0999 V3000
M  V30 BEGIN CTAB
M  V30 COUNTS 50 51 0 0 0
M  V30 BEGIN ATOM
M  V30 1 C -0.880267 -5.132902 2.690517 0
M  V30 2 C -0.950621 -4.312486 1.458980 0
M  V30 3 C -0.428314 -3.040728 1.466485 0
M  V30 4 C -0.451921 -2.208487 0.361720 0
M  V30 5 N 0.098313 -0.906368 0.416715 0
M  V30 6 C 0.155079 0.064152 -0.615299 0
M  V30 7 N -0.310696 -0.071900 -1.861927 0
M  V30 8 C -0.223882 0.888995 -2.790389 0
M  V30 9 C 0.366440 2.076536 -2.469953 0
M  V30 10 Br 0.557300 3.531122 -3.694983 0
M  V30 11 C 0.866501 2.268636 -1.188693 0
M  V30 12 N 1.516317 3.442580 -0.708498 0
M  V30 13 C 2.079399 3.811156 0.559211 0 CFG=2
M  V30 14 C 3.088751 2.746655 0.978962 0
M  V30 15 C 1.106621 4.162915 1.630043 0
M  V30 16 C 1.880120 4.678375 2.861615 0
M  V30 17 C 0.291966 3.000683 2.146099 0
M  V30 18 O 0.288342 5.242266 1.270921 0
M  V30 19 N 0.716459 1.239997 -0.368313 0
M  V30 20 C -1.047770 -2.778600 -0.740144 0
M  V30 21 C -1.584603 -4.044271 -0.799323 0
M  V30 22 C -1.537424 -4.837045 0.328089 0
M  V30 23 S -2.193808 -6.443993 0.330221 0
M  V30 24 C -0.993636 -7.672712 0.696775 0
M  V30 25 N -2.801664 -6.739010 -1.069567 0
M  V30 26 O -3.343606 -6.473113 1.296673 0
M  V30 27 H 0.089512 -5.686994 2.762342 0
M  V30 28 H -1.744300 -5.787321 2.856778 0
M  V30 29 H -0.863042 -4.433962 3.556848 0
M  V30 30 H 0.022740 -2.685415 2.395279 0
M  V30 31 H 0.515163 -0.641853 1.354278 0
M  V30 32 H -0.592672 0.789538 -3.787740 0
M  V30 33 H 1.561794 4.149144 -1.487620 0
M  V30 34 H 2.709728 4.731614 0.387569 0
M  V30 35 H 3.616187 3.024899 1.907439 0
M  V30 36 H 3.874966 2.767043 0.174154 0
M  V30 37 H 2.659214 1.740005 0.990317 0
M  V30 38 H 2.581837 5.474219 2.497506 0
M  V30 39 H 2.406817 3.869411 3.374160 0
M  V30 40 H 1.185453 5.165910 3.576994 0
M  V30 41 H -0.599412 2.771230 1.529749 0
M  V30 42 H -0.151029 3.266872 3.156768 0
M  V30 43 H 0.902098 2.093135 2.256063 0
M  V30 44 H -0.522005 5.145246 1.841882 0
M  V30 45 H -1.125305 -2.233476 -1.652306 0
M  V30 46 H -2.042245 -4.450190 -1.685392 0
M  V30 47 H -0.837847 -8.346782 -0.166698 0
M  V30 48 H 0.001491 -7.169865 0.842422 0
M  V30 49 H -1.267940 -8.311674 1.555728 0
M  V30 50 H -3.743075 -6.374624 -1.253194 0
M  V30 END ATOM
M  V30 BEGIN BOND
M  V30 1 1 1 2
M  V30 2 2 2 3
M  V30 3 1 3 4
M  V30 4 1 4 5
M  V30 5 1 5 6
M  V30 6 2 6 7
M  V30 7 1 7 8
M  V30 8 2 8 9
M  V30 9 1 9 10
M  V30 10 1 9 11
M  V30 11 1 11 12
M  V30 12 1 12 13
M  V30 13 1 13 14
M  V30 14 1 13 15
M  V30 15 1 15 16
M  V30 16 1 15 17
M  V30 17 1 15 18
M  V30 18 2 11 19
M  V30 19 2 4 20
M  V30 20 1 20 21
M  V30 21 2 21 22
M  V30 22 1 22 23
M  V30 23 1 23 24
M  V30 24 2 23 25
M  V30 25 2 23 26
M  V30 26 1 22 2
M  V30 27 1 19 6
M  V30 28 1 1 27
M  V30 29 1 1 28
M  V30 30 1 1 29
M  V30 31 1 3 30
M  V30 32 1 5 31
M  V30 33 1 8 32
M  V30 34 1 12 33
M  V30 35 1 13 34 CFG=3
M  V30 36 1 14 35
M  V30 37 1 14 36
M  V30 38 1 14 37
M  V30 39 1 16 38
M  V30 40 1 16 39
M  V30 41 1 16 40
M  V30 42 1 17 41
M  V30 43 1 17 42
M  V30 44 1 17 43
M  V30 45 1 18 44
M  V30 46 1 20 45
M  V30 47 1 21 46
M  V30 48 1 24 47
M  V30 49 1 24 48
M  V30 50 1 24 49
M  V30 51 1 25 50
M  V30 END BOND
M  V30 END CTAB
M  END
>  <Dataset>  (487) 
ChEMBL_Kinases

>  <Ligand_Instance>  (487) 
nan

>  <PDB_ID>  (487) 
nan

>  <Standardized_SMILES>  (487) 
Cc1cc(Nc2ncc(Br)c(N[C@H](C)C(C)(C)O)n2)ccc1S(C)(=N)=O

>  <Name>  (487) 
nan

>  <Pocket>  (487) 
nan

>  <ATP_Site>  (487) 
nan

>  <Peripheral>  (487) 
nan

>  <Num_H_Atoms_ProtBoundConf>  (487) 
nan

>  <Num_Resolved_Atoms>  (487) 
nan

>  <Num_Not_Resolved_Atoms>  (487) 
nan

$$$$
CHEMBL3639508
     RDKit          3D

  0  0  0  0  0  0  0  0  0  0999 V3000
M  V30 BEGIN CTAB
M  V30 COUNTS 64 67 0 0 0
M  V30 BEGIN ATOM
M  V30 1 C 1.430738 2.145045 4.530578 0
M  V30 2 C 0.625495 1.382297 3.510279 0 CFG=1
M  V30 3 C 1.463430 1.054998 2.301077 0
M  V30 4 C 1.996481 -0.356813 2.339506 0 CFG=1
M  V30 5 C 3.220524 -0.568120 1.560096 0
M  V30 6 C 4.420775 -0.453124 2.271766 0
M  V30 7 C 5.675800 -0.632172 1.680454 0
M  V30 8 N 5.694731 -0.930051 0.354428 0
M  V30 9 C 4.519683 -1.033227 -0.301001 0
M  V30 10 C 3.270956 -0.870727 0.216844 0
M  V30 11 N 2.068127 -0.980631 -0.488279 0
M  V30 12 C 1.839524 -1.288336 -1.854071 0
M  V30 13 O 2.823740 -1.507536 -2.603822 0
M  V30 14 C 0.529493 -1.377108 -2.490071 0
M  V30 15 N -0.627577 -1.170998 -1.833398 0
M  V30 16 C -1.824267 -1.253672 -2.421925 0
M  V30 17 C -3.109455 -1.027894 -1.706049 0
M  V30 18 C -3.924332 -2.323691 -1.691874 0
M  V30 19 C -5.041887 -2.130865 -0.701523 0
M  V30 20 C -5.883738 -0.947264 -1.078645 0
M  V30 21 C -5.421891 -0.341523 -2.382245 0
M  V30 22 C -3.962301 0.015528 -2.381729 0
M  V30 23 C -1.948267 -1.563052 -3.771903 0
M  V30 24 C -0.772627 -1.781932 -4.479638 0
M  V30 25 C 0.460112 -1.686609 -3.829808 0
M  V30 26 N 1.621641 -1.924018 -4.619263 0
M  V30 27 C 2.189815 -0.699358 3.805992 0
M  V30 28 C 0.848634 -0.846905 4.503195 0 CFG=1
M  V30 29 N 1.077636 -0.698177 5.924517 0
M  V30 30 C -0.124209 0.210844 4.070840 0 CFG=2
M  V30 31 O -0.944226 -0.266976 3.034375 0
M  V30 32 H 1.003657 3.161273 4.758712 0
M  V30 33 H 1.426680 1.611456 5.495562 0
M  V30 34 H 2.472267 2.389898 4.169650 0
M  V30 35 H -0.161298 2.114028 3.156191 0
M  V30 36 H 0.823464 1.135611 1.400564 0
M  V30 37 H 2.285850 1.801857 2.274577 0
M  V30 38 H 1.213518 -1.062838 1.962547 0
M  V30 39 H 4.504748 -0.224619 3.304433 0
M  V30 40 H 6.606649 -0.544398 2.226032 0
M  V30 41 H 4.670563 -1.268273 -1.325794 0
M  V30 42 H 1.148536 -0.827018 -0.020849 0
M  V30 43 H -2.894888 -0.789769 -0.642414 0
M  V30 44 H -4.313234 -2.483985 -2.715047 0
M  V30 45 H -3.329460 -3.187225 -1.388112 0
M  V30 46 H -5.660577 -3.046393 -0.608302 0
M  V30 47 H -4.590301 -1.931001 0.292335 0
M  V30 48 H -5.898738 -0.175333 -0.275091 0
M  V30 49 H -6.938336 -1.250509 -1.217106 0
M  V30 50 H -5.993355 0.612929 -2.513069 0
M  V30 51 H -5.706429 -0.985466 -3.233400 0
M  V30 52 H -3.660416 0.065393 -3.460813 0
M  V30 53 H -3.827342 1.011150 -1.927056 0
M  V30 54 H -2.866147 -1.649307 -4.321184 0
M  V30 55 H -0.804839 -2.024957 -5.527351 0
M  V30 56 H 2.091805 -1.029427 -4.884021 0
M  V30 57 H 2.141714 -2.752185 -5.012681 0
M  V30 58 H 2.811005 0.023148 4.349574 0
M  V30 59 H 2.686653 -1.685554 3.853888 0
M  V30 60 H 0.480549 -1.860106 4.310018 0
M  V30 61 H 1.234450 -1.622407 6.398202 0
M  V30 62 H 0.223894 -0.286205 6.364666 0
M  V30 63 H -0.784884 0.549541 4.872855 0
M  V30 64 H -1.377849 0.477377 2.547496 0
M  V30 END ATOM
M  V30 BEGIN BOND
M  V30 1 1 1 2
M  V30 2 1 2 3
M  V30 3 1 3 4
M  V30 4 1 4 5
M  V30 5 2 5 6
M  V30 6 1 6 7
M  V30 7 2 7 8
M  V30 8 1 8 9
M  V30 9 2 9 10
M  V30 10 1 10 11
M  V30 11 1 11 12
M  V30 12 2 12 13
M  V30 13 1 12 14
M  V30 14 2 14 15
M  V30 15 1 15 16
M  V30 16 1 16 17
M  V30 17 1 17 18
M  V30 18 1 18 19
M  V30 19 1 19 20
M  V30 20 1 20 21
M  V30 21 1 21 22
M  V30 22 2 16 23
M  V30 23 1 23 24
M  V30 24 2 24 25
M  V30 25 1 25 26
M  V30 26 1 4 27
M  V30 27 1 27 28
M  V30 28 1 28 29
M  V30 29 1 28 30
M  V30 30 1 30 31
M  V30 31 1 30 2
M  V30 32 1 10 5
M  V30 33 1 25 14
M  V30 34 1 22 17
M  V30 35 1 1 32
M  V30 36 1 1 33
M  V30 37 1 1 34
M  V30 38 1 2 35 CFG=3
M  V30 39 1 3 36
M  V30 40 1 3 37
M  V30 41 1 4 38 CFG=3
M  V30 42 1 6 39
M  V30 43 1 7 40
M  V30 44 1 9 41
M  V30 45 1 11 42
M  V30 46 1 17 43
M  V30 47 1 18 44
M  V30 48 1 18 45
M  V30 49 1 19 46
M  V30 50 1 19 47
M  V30 51 1 20 48
M  V30 52 1 20 49
M  V30 53 1 21 50
M  V30 54 1 21 51
M  V30 55 1 22 52
M  V30 56 1 22 53
M  V30 57 1 23 54
M  V30 58 1 24 55
M  V30 59 1 26 56
M  V30 60 1 26 57
M  V30 61 1 27 58
M  V30 62 1 27 59
M  V30 63 1 28 60 CFG=1
M  V30 64 1 29 61
M  V30 65 1 29 62
M  V30 66 1 30 63 CFG=1
M  V30 67 1 31 64
M  V30 END BOND
M  V30 END CTAB
M  END
>  <Dataset>  (488) 
ChEMBL_Kinases

>  <Ligand_Instance>  (488) 
nan

>  <PDB_ID>  (488) 
nan

>  <Standardized_SMILES>  (488) 
C[C@H]1C[C@@H](c2ccncc2NC(=O)c2nc(C3CCCCC3)ccc2N)C[C@@H](N)[C@@H]1O

>  <Name>  (488) 
nan

>  <Pocket>  (488) 
nan

>  <ATP_Site>  (488) 
nan

>  <Peripheral>  (488) 
nan

>  <Num_H_Atoms_ProtBoundConf>  (488) 
nan

>  <Num_Resolved_Atoms>  (488) 
nan

>  <Num_Not_Resolved_Atoms>  (488) 
nan

$$$$
CHEMBL4072138
     RDKit          3D

  0  0  0  0  0  0  0  0  0  0999 V3000
M  V30 BEGIN CTAB
M  V30 COUNTS 27 29 0 0 0
M  V30 BEGIN ATOM
M  V30 1 N 1.809110 -5.933272 1.902965 0
M  V30 2 C 1.502990 -4.831511 1.985094 0
M  V30 3 C 1.127070 -3.449174 2.077074 0
M  V30 4 C 1.033143 -2.799604 3.290635 0
M  V30 5 C 0.680982 -1.478770 3.477697 0
M  V30 6 C 0.393974 -0.731235 2.342533 0
M  V30 7 C 0.479372 -1.354789 1.110067 0
M  V30 8 C 0.251434 -0.859068 -0.174917 0
M  V30 9 C -0.149346 0.509737 -0.488239 0
M  V30 10 C -0.334963 0.839862 -1.821931 0
M  V30 11 C -0.713430 2.125715 -2.143817 0
M  V30 12 N -0.900318 3.051919 -1.163223 0
M  V30 13 C -0.716232 2.719376 0.139382 0
M  V30 14 N -0.888836 3.621257 1.226925 0
M  V30 15 N -0.350998 1.472988 0.428543 0
M  V30 16 C 0.477589 -1.900345 -1.050684 0
M  V30 17 N 0.830072 -2.996887 -0.355145 0
M  V30 18 C 0.832980 -2.673886 0.950323 0
M  V30 19 H 1.262579 -3.403423 4.173290 0
M  V30 20 H 0.645977 -1.090044 4.504228 0
M  V30 21 H 0.116552 0.304871 2.472566 0
M  V30 22 H -0.202200 0.150689 -2.640842 0
M  V30 23 H -0.874863 2.443620 -3.183552 0
M  V30 24 H -1.744033 3.531079 1.823383 0
M  V30 25 H -0.174420 4.370149 1.436731 0
M  V30 26 H 0.382010 -1.831435 -2.133818 0
M  V30 27 H 1.069465 -3.952181 -0.707032 0
M  V30 END ATOM
M  V30 BEGIN BOND
M  V30 1 3 1 2
M  V30 2 1 2 3
M  V30 3 2 3 4
M  V30 4 1 4 5
M  V30 5 2 5 6
M  V30 6 1 6 7
M  V30 7 1 7 8
M  V30 8 1 8 9
M  V30 9 2 9 10
M  V30 10 1 10 11
M  V30 11 2 11 12
M  V30 12 1 12 13
M  V30 13 1 13 14
M  V30 14 2 13 15
M  V30 15 2 8 16
M  V30 16 1 16 17
M  V30 17 1 17 18
M  V30 18 1 18 3
M  V30 19 2 18 7
M  V30 20 1 15 9
M  V30 21 1 4 19
M  V30 22 1 5 20
M  V30 23 1 6 21
M  V30 24 1 10 22
M  V30 25 1 11 23
M  V30 26 1 14 24
M  V30 27 1 14 25
M  V30 28 1 16 26
M  V30 29 1 17 27
M  V30 END BOND
M  V30 END CTAB
M  END
>  <Dataset>  (489) 
ChEMBL_Kinases

>  <Ligand_Instance>  (489) 
nan

>  <PDB_ID>  (489) 
nan

>  <Standardized_SMILES>  (489) 
N#Cc1cccc2c(-c3ccnc(N)n3)c[nH]c12

>  <Name>  (489) 
nan

>  <Pocket>  (489) 
nan

>  <ATP_Site>  (489) 
nan

>  <Peripheral>  (489) 
nan

>  <Num_H_Atoms_ProtBoundConf>  (489) 
nan

>  <Num_Resolved_Atoms>  (489) 
nan

>  <Num_Not_Resolved_Atoms>  (489) 
nan

$$$$
CHEMBL3634799
     RDKit          3D

  0  0  0  0  0  0  0  0  0  0999 V3000
M  V30 BEGIN CTAB
M  V30 COUNTS 49 53 0 0 0
M  V30 BEGIN ATOM
M  V30 1 C -0.788132 0.743152 -3.573885 0
M  V30 2 C -0.671281 -0.597480 -2.900703 0
M  V30 3 N -0.245343 -0.718773 -1.629100 0
M  V30 4 C -0.144546 -1.939146 -1.027569 0
M  V30 5 C 0.335818 -1.787198 0.340959 0
M  V30 6 N 1.561894 -1.323400 0.603921 0
M  V30 7 C 1.823217 -1.252759 1.918981 0
M  V30 8 C 2.951692 -0.827728 2.794594 0
M  V30 9 N 2.840944 0.542298 3.236281 0
M  V30 10 C 2.897818 1.746899 2.501561 0
M  V30 11 C 3.103665 1.867129 1.164014 0
M  V30 12 C 3.152592 3.032323 0.452599 0
M  V30 13 C 2.975873 4.210758 1.157909 0
M  V30 14 C 2.765834 4.162528 2.498308 0
M  V30 15 C 2.584614 5.381637 3.228353 0
M  V30 16 N 2.425620 6.369775 3.836343 0
M  V30 17 C 2.728267 2.954272 3.152093 0
M  V30 18 N 0.672804 -1.706945 2.503033 0
M  V30 19 C -0.233888 -2.033474 1.571461 0
M  V30 20 C -1.583698 -2.556328 1.744315 0
M  V30 21 C -2.471755 -1.684238 2.349422 0
M  V30 22 C -3.785490 -2.027586 2.587946 0
M  V30 23 C -4.244597 -3.291533 2.211853 0
M  V30 24 N -5.434326 -3.925781 2.298511 0
M  V30 25 C -5.268433 -5.161566 1.754922 0
M  V30 26 N -3.980456 -5.224284 1.360395 0
M  V30 27 N -3.346266 -4.092686 1.632343 0
M  V30 28 C -2.062575 -3.797155 1.383057 0
M  V30 29 C -0.484041 -3.042925 -1.740596 0
M  V30 30 C -0.921998 -2.932623 -3.044558 0
M  V30 31 C -1.025526 -1.695772 -3.657706 0
M  V30 32 F -1.460811 -1.667191 -4.937656 0
M  V30 33 H -0.364491 1.529534 -2.905396 0
M  V30 34 H -1.896860 0.951509 -3.598819 0
M  V30 35 H -0.336233 0.763645 -4.564781 0
M  V30 36 H 2.284797 -1.038779 -0.075567 0
M  V30 37 H 3.930102 -1.008824 2.275566 0
M  V30 38 H 2.987195 -1.504828 3.671087 0
M  V30 39 H 2.690657 0.650954 4.288556 0
M  V30 40 H 3.252772 0.981013 0.579583 0
M  V30 41 H 3.317331 3.074225 -0.615342 0
M  V30 42 H 3.003446 5.161714 0.657835 0
M  V30 43 H 2.555266 2.990525 4.225415 0
M  V30 44 H -2.231430 -0.676520 2.685312 0
M  V30 45 H -4.516054 -1.380966 3.056857 0
M  V30 46 H -5.871236 -6.042218 1.574883 0
M  V30 47 H -1.344840 -4.446799 0.918828 0
M  V30 48 H -0.373630 -3.947514 -1.197653 0
M  V30 49 H -1.161382 -3.888317 -3.502164 0
M  V30 END ATOM
M  V30 BEGIN BOND
M  V30 1 1 1 2
M  V30 2 2 2 3
M  V30 3 1 3 4
M  V30 4 1 4 5
M  V30 5 1 5 6
M  V30 6 1 6 7
M  V30 7 1 7 8
M  V30 8 1 8 9
M  V30 9 1 9 10
M  V30 10 2 10 11
M  V30 11 1 11 12
M  V30 12 2 12 13
M  V30 13 1 13 14
M  V30 14 1 14 15
M  V30 15 3 15 16
M  V30 16 2 14 17
M  V30 17 2 7 18
M  V30 18 1 18 19
M  V30 19 1 19 20
M  V30 20 1 20 21
M  V30 21 2 21 22
M  V30 22 1 22 23
M  V30 23 2 23 24
M  V30 24 1 24 25
M  V30 25 2 25 26
M  V30 26 1 26 27
M  V30 27 1 27 28
M  V30 28 2 4 29
M  V30 29 1 29 30
M  V30 30 2 30 31
M  V30 31 1 31 32
M  V30 32 1 31 2
M  V30 33 2 19 5
M  V30 34 2 28 20
M  V30 35 1 17 10
M  V30 36 1 27 23
M  V30 37 1 1 33
M  V30 38 1 1 34
M  V30 39 1 1 35
M  V30 40 1 6 36
M  V30 41 1 8 37
M  V30 42 1 8 38
M  V30 43 1 9 39
M  V30 44 1 11 40
M  V30 45 1 12 41
M  V30 46 1 13 42
M  V30 47 1 17 43
M  V30 48 1 21 44
M  V30 49 1 22 45
M  V30 50 1 25 46
M  V30 51 1 28 47
M  V30 52 1 29 48
M  V30 53 1 30 49
M  V30 END BOND
M  V30 END CTAB
M  END
>  <Dataset>  (490) 
ChEMBL_Kinases

>  <Ligand_Instance>  (490) 
nan

>  <PDB_ID>  (490) 
nan

>  <Standardized_SMILES>  (490) 
Cc1nc(-c2[nH]c(CNc3cccc(C#N)c3)nc2-c2ccc3ncnn3c2)ccc1F

>  <Name>  (490) 
nan

>  <Pocket>  (490) 
nan

>  <ATP_Site>  (490) 
nan

>  <Peripheral>  (490) 
nan

>  <Num_H_Atoms_ProtBoundConf>  (490) 
nan

>  <Num_Resolved_Atoms>  (490) 
nan

>  <Num_Not_Resolved_Atoms>  (490) 
nan

$$$$
CHEMBL406845
     RDKit          3D

  0  0  0  0  0  0  0  0  0  0999 V3000
M  V30 BEGIN CTAB
M  V30 COUNTS 37 39 0 0 0
M  V30 BEGIN ATOM
M  V30 1 C -0.384049 -1.722578 3.766403 0
M  V30 2 C -0.368630 -2.557232 2.508956 0
M  V30 3 C -1.744508 -3.099156 2.265653 0
M  V30 4 C 0.603783 -3.695355 2.712417 0
M  V30 5 N 0.024448 -1.716552 1.396987 0
M  V30 6 N -0.232778 -0.448638 1.246871 0
M  V30 7 C 0.291281 0.023213 0.076523 0
M  V30 8 C 0.110985 1.425825 -0.260390 0
M  V30 9 C -0.338964 1.988228 -1.433953 0
M  V30 10 C -0.434992 3.350790 -1.604864 0
M  V30 11 C -0.079149 4.214875 -0.591114 0
M  V30 12 Cl -0.221349 5.940215 -0.863037 0
M  V30 13 C 0.376015 3.712315 0.602219 0
M  V30 14 C 0.450799 2.347287 0.714878 0
M  V30 15 C 0.894389 -1.089082 -0.468296 0
M  V30 16 C 1.574196 -1.109719 -1.666201 0
M  V30 17 N 1.753429 0.006629 -2.494094 0
M  V30 18 N 2.110360 -2.286472 -2.051341 0
M  V30 19 C 1.961011 -3.385921 -1.254742 0
M  V30 20 N 1.283698 -3.339452 -0.071810 0
M  V30 21 C 0.731675 -2.184932 0.352721 0
M  V30 22 H -1.260960 -1.035224 3.803679 0
M  V30 23 H -0.380623 -2.420838 4.641920 0
M  V30 24 H 0.538203 -1.090172 3.751063 0
M  V30 25 H -1.756917 -4.204571 2.488543 0
M  V30 26 H -2.096621 -2.905594 1.237460 0
M  V30 27 H -2.504959 -2.670544 2.953492 0
M  V30 28 H 0.562988 -4.067944 3.756341 0
M  V30 29 H 1.624913 -3.281930 2.538757 0
M  V30 30 H 0.372358 -4.526025 2.014545 0
M  V30 31 H -0.626512 1.300998 -2.213764 0
M  V30 32 H -0.800151 3.718722 -2.564415 0
M  V30 33 H 0.658338 4.376360 1.405853 0
M  V30 34 H 0.821289 1.999552 1.690215 0
M  V30 35 H 2.276551 0.724519 -1.936397 0
M  V30 36 H 1.431971 0.124059 -3.490728 0
M  V30 37 H 2.376130 -4.372081 -1.517380 0
M  V30 END ATOM
M  V30 BEGIN BOND
M  V30 1 1 1 2
M  V30 2 1 2 3
M  V30 3 1 2 4
M  V30 4 1 2 5
M  V30 5 1 5 6
M  V30 6 2 6 7
M  V30 7 1 7 8
M  V30 8 2 8 9
M  V30 9 1 9 10
M  V30 10 2 10 11
M  V30 11 1 11 12
M  V30 12 1 11 13
M  V30 13 2 13 14
M  V30 14 1 7 15
M  V30 15 2 15 16
M  V30 16 1 16 17
M  V30 17 1 16 18
M  V30 18 2 18 19
M  V30 19 1 19 20
M  V30 20 2 20 21
M  V30 21 1 21 5
M  V30 22 1 14 8
M  V30 23 1 21 15
M  V30 24 1 1 22
M  V30 25 1 1 23
M  V30 26 1 1 24
M  V30 27 1 3 25
M  V30 28 1 3 26
M  V30 29 1 3 27
M  V30 30 1 4 28
M  V30 31 1 4 29
M  V30 32 1 4 30
M  V30 33 1 9 31
M  V30 34 1 10 32
M  V30 35 1 13 33
M  V30 36 1 14 34
M  V30 37 1 17 35
M  V30 38 1 17 36
M  V30 39 1 19 37
M  V30 END BOND
M  V30 END CTAB
M  END
>  <Dataset>  (491) 
ChEMBL_Kinases

>  <Ligand_Instance>  (491) 
nan

>  <PDB_ID>  (491) 
nan

>  <Standardized_SMILES>  (491) 
CC(C)(C)n1nc(-c2ccc(Cl)cc2)c2c(N)ncnc21

>  <Name>  (491) 
nan

>  <Pocket>  (491) 
nan

>  <ATP_Site>  (491) 
nan

>  <Peripheral>  (491) 
nan

>  <Num_H_Atoms_ProtBoundConf>  (491) 
nan

>  <Num_Resolved_Atoms>  (491) 
nan

>  <Num_Not_Resolved_Atoms>  (491) 
nan

$$$$
CHEMBL3655775
     RDKit          3D

  0  0  0  0  0  0  0  0  0  0999 V3000
M  V30 BEGIN CTAB
M  V30 COUNTS 48 50 0 0 0
M  V30 BEGIN ATOM
M  V30 1 C 0.098847 -5.778620 0.981327 0
M  V30 2 C -0.113715 -4.465710 1.732736 0
M  V30 3 C -1.566256 -4.099318 1.593043 0
M  V30 4 N 0.769565 -3.457320 1.169378 0
M  V30 5 C 2.021071 -3.728650 0.771745 0
M  V30 6 N 2.522641 -2.546764 0.308270 0
M  V30 7 C 1.568699 -1.614925 0.440523 0
M  V30 8 C 1.601861 -0.257061 0.108336 0
M  V30 9 N 2.719657 0.406721 -0.462178 0
M  V30 10 C 2.875997 1.784314 -0.843630 0
M  V30 11 C 2.726050 2.742142 0.278914 0
M  V30 12 C 1.599041 3.406954 0.713883 0
M  V30 13 C 1.664003 4.258694 1.792169 0
M  V30 14 C 2.815134 4.510396 2.501293 0
M  V30 15 N 3.919941 3.860784 2.077094 0
M  V30 16 C 3.877382 3.023906 1.025150 0
M  V30 17 N 0.487272 0.446020 0.353735 0
M  V30 18 C -0.632211 -0.066354 0.887344 0
M  V30 19 N -1.764564 0.766928 1.108601 0
M  V30 20 C -2.760318 0.917811 0.073383 0
M  V30 21 C -3.412904 -0.401745 -0.315656 0 CFG=1
M  V30 22 C -4.174064 -0.901577 0.884036 0
M  V30 23 O -4.370390 -0.165564 -1.329156 0
M  V30 24 N -0.641487 -1.393004 1.203370 0
M  V30 25 C 0.435913 -2.166960 0.988383 0
M  V30 26 H -0.227644 -5.606049 -0.062944 0
M  V30 27 H 1.130347 -6.148785 1.054040 0
M  V30 28 H -0.586343 -6.523407 1.430221 0
M  V30 29 H 0.103410 -4.615920 2.811488 0
M  V30 30 H -1.963960 -3.478970 2.398211 0
M  V30 31 H -1.784371 -3.586341 0.627462 0
M  V30 32 H -2.143167 -5.052414 1.589358 0
M  V30 33 H 2.555273 -4.665808 0.795553 0
M  V30 34 H 3.539312 -0.257936 -0.610118 0
M  V30 35 H 3.885456 1.927317 -1.267179 0
M  V30 36 H 2.170233 2.051489 -1.685602 0
M  V30 37 H 0.707632 3.198010 0.139059 0
M  V30 38 H 0.710967 4.714071 2.027921 0
M  V30 39 H 2.712700 5.200337 3.321256 0
M  V30 40 H 4.823533 2.561485 0.778260 0
M  V30 41 H -1.518917 1.066436 2.075653 0
M  V30 42 H -3.491861 1.684149 0.328560 0
M  V30 43 H -2.244069 1.273458 -0.858325 0
M  V30 44 H -2.699821 -1.104664 -0.744203 0
M  V30 45 H -4.970400 -1.612975 0.553073 0
M  V30 46 H -3.536537 -1.305342 1.674355 0
M  V30 47 H -4.732385 -0.002250 1.275103 0
M  V30 48 H -3.962526 0.035797 -2.198571 0
M  V30 END ATOM
M  V30 BEGIN BOND
M  V30 1 1 1 2
M  V30 2 1 2 3
M  V30 3 1 2 4
M  V30 4 1 4 5
M  V30 5 2 5 6
M  V30 6 1 6 7
M  V30 7 2 7 8
M  V30 8 1 8 9
M  V30 9 1 9 10
M  V30 10 1 10 11
M  V30 11 2 11 12
M  V30 12 1 12 13
M  V30 13 2 13 14
M  V30 14 1 14 15
M  V30 15 2 15 16
M  V30 16 1 8 17
M  V30 17 2 17 18
M  V30 18 1 18 19
M  V30 19 1 19 20
M  V30 20 1 20 21
M  V30 21 1 21 22
M  V30 22 1 21 23
M  V30 23 1 18 24
M  V30 24 2 24 25
M  V30 25 1 25 4
M  V30 26 1 25 7
M  V30 27 1 16 11
M  V30 28 1 1 26
M  V30 29 1 1 27
M  V30 30 1 1 28
M  V30 31 1 2 29
M  V30 32 1 3 30
M  V30 33 1 3 31
M  V30 34 1 3 32
M  V30 35 1 5 33
M  V30 36 1 9 34
M  V30 37 1 10 35
M  V30 38 1 10 36
M  V30 39 1 12 37
M  V30 40 1 13 38
M  V30 41 1 14 39
M  V30 42 1 16 40
M  V30 43 1 19 41
M  V30 44 1 20 42
M  V30 45 1 20 43
M  V30 46 1 21 44 CFG=3
M  V30 47 1 22 45
M  V30 48 1 22 46
M  V30 49 1 22 47
M  V30 50 1 23 48
M  V30 END BOND
M  V30 END CTAB
M  END
>  <Dataset>  (492) 
ChEMBL_Kinases

>  <Ligand_Instance>  (492) 
nan

>  <PDB_ID>  (492) 
nan

>  <Standardized_SMILES>  (492) 
CC(C)n1cnc2c(NCc3cccnc3)nc(NC[C@@H](C)O)nc21

>  <Name>  (492) 
nan

>  <Pocket>  (492) 
nan

>  <ATP_Site>  (492) 
nan

>  <Peripheral>  (492) 
nan

>  <Num_H_Atoms_ProtBoundConf>  (492) 
nan

>  <Num_Resolved_Atoms>  (492) 
nan

>  <Num_Not_Resolved_Atoms>  (492) 
nan

$$$$
CHEMBL3655774
     RDKit          3D

  0  0  0  0  0  0  0  0  0  0999 V3000
M  V30 BEGIN CTAB
M  V30 COUNTS 57 59 0 0 0
M  V30 BEGIN ATOM
M  V30 1 C 0.351169 0.125862 -3.348258 0
M  V30 2 C 0.562022 -0.774335 -2.122698 0
M  V30 3 C -0.091312 -2.101061 -2.308293 0 CFG=2
M  V30 4 N 0.126442 -2.921905 -1.140557 0
M  V30 5 C -0.429684 -2.270892 -0.007663 0
M  V30 6 N 0.423896 -1.485243 0.654136 0
M  V30 7 C 0.082694 -0.782263 1.741394 0
M  V30 8 N 0.780659 0.108929 2.592811 0
M  V30 9 C 1.472894 0.992419 3.436735 0
M  V30 10 C 2.098595 2.186650 2.798106 0
M  V30 11 N 1.453314 3.387805 2.869418 0
M  V30 12 C 1.993781 4.483283 2.277505 0
M  V30 13 C 3.204788 4.427746 1.586741 0
M  V30 14 C 3.851883 3.196829 1.522091 0
M  V30 15 C 3.296272 2.077879 2.128921 0
M  V30 16 C 4.077635 0.820835 2.013738 0
M  V30 17 C -1.238757 -0.858831 2.232232 0
M  V30 18 N -2.002246 -0.353689 3.246217 0
M  V30 19 C -3.239753 -0.861583 3.126226 0
M  V30 20 N -3.355877 -1.681891 2.087917 0
M  V30 21 C -4.515921 -2.425001 1.620103 0
M  V30 22 C -4.982350 -3.440137 2.610829 0
M  V30 23 C -4.243021 -3.133425 0.328570 0
M  V30 24 C -2.131047 -1.683016 1.537165 0
M  V30 25 N -1.664779 -2.318397 0.483380 0
M  V30 26 C 0.311227 -2.790952 -3.587069 0 CFG=1
M  V30 27 C 1.766968 -3.083866 -3.702886 0
M  V30 28 O -0.426910 -3.959408 -3.752872 0
M  V30 29 H 0.265843 1.187411 -3.089148 0
M  V30 30 H -0.641894 -0.140820 -3.813708 0
M  V30 31 H 1.131672 -0.041643 -4.123661 0
M  V30 32 H 0.068729 -0.196747 -1.287217 0
M  V30 33 H 1.632600 -0.797239 -1.892768 0
M  V30 34 H -1.193990 -1.898023 -2.388128 0
M  V30 35 H 0.594307 -3.840334 -1.042173 0
M  V30 36 H 1.682475 0.018475 2.062626 0
M  V30 37 H 2.206599 0.432204 4.092743 0
M  V30 38 H 0.728787 1.364965 4.236093 0
M  V30 39 H 1.367194 5.377471 2.415641 0
M  V30 40 H 3.549725 5.357673 1.150626 0
M  V30 41 H 4.768546 3.243705 0.973896 0
M  V30 42 H 5.178956 1.076806 1.958969 0
M  V30 43 H 3.910238 0.139122 2.853726 0
M  V30 44 H 3.805044 0.327616 1.068683 0
M  V30 45 H -4.016883 -0.594356 3.829309 0
M  V30 46 H -5.373563 -1.727270 1.417656 0
M  V30 47 H -5.169160 -3.024056 3.635317 0
M  V30 48 H -6.009928 -3.751292 2.256757 0
M  V30 49 H -4.374709 -4.351352 2.634897 0
M  V30 50 H -3.864375 -2.395863 -0.407918 0
M  V30 51 H -3.624890 -4.037441 0.437916 0
M  V30 52 H -5.241567 -3.482892 -0.066926 0
M  V30 53 H 0.022456 -2.138651 -4.459624 0
M  V30 54 H 2.248264 -3.455142 -2.794727 0
M  V30 55 H 2.301382 -2.210289 -4.155089 0
M  V30 56 H 1.866008 -3.906870 -4.465836 0
M  V30 57 H -1.288433 -3.931263 -3.270778 0
M  V30 END ATOM
M  V30 BEGIN BOND
M  V30 1 1 1 2
M  V30 2 1 2 3
M  V30 3 1 3 4
M  V30 4 1 4 5
M  V30 5 2 5 6
M  V30 6 1 6 7
M  V30 7 1 7 8
M  V30 8 1 8 9
M  V30 9 1 9 10
M  V30 10 2 10 11
M  V30 11 1 11 12
M  V30 12 2 12 13
M  V30 13 1 13 14
M  V30 14 2 14 15
M  V30 15 1 15 16
M  V30 16 2 7 17
M  V30 17 1 17 18
M  V30 18 2 18 19
M  V30 19 1 19 20
M  V30 20 1 20 21
M  V30 21 1 21 22
M  V30 22 1 21 23
M  V30 23 1 20 24
M  V30 24 2 24 25
M  V30 25 1 3 26
M  V30 26 1 26 27
M  V30 27 1 26 28
M  V30 28 1 25 5
M  V30 29 1 15 10
M  V30 30 1 24 17
M  V30 31 1 1 29
M  V30 32 1 1 30
M  V30 33 1 1 31
M  V30 34 1 2 32
M  V30 35 1 2 33
M  V30 36 1 3 34 CFG=3
M  V30 37 1 4 35
M  V30 38 1 8 36
M  V30 39 1 9 37
M  V30 40 1 9 38
M  V30 41 1 12 39
M  V30 42 1 13 40
M  V30 43 1 14 41
M  V30 44 1 16 42
M  V30 45 1 16 43
M  V30 46 1 16 44
M  V30 47 1 19 45
M  V30 48 1 21 46
M  V30 49 1 22 47
M  V30 50 1 22 48
M  V30 51 1 22 49
M  V30 52 1 23 50
M  V30 53 1 23 51
M  V30 54 1 23 52
M  V30 55 1 26 53 CFG=3
M  V30 56 1 27 54
M  V30 57 1 27 55
M  V30 58 1 27 56
M  V30 59 1 28 57
M  V30 END BOND
M  V30 END CTAB
M  END
>  <Dataset>  (493) 
ChEMBL_Kinases

>  <Ligand_Instance>  (493) 
nan

>  <PDB_ID>  (493) 
nan

>  <Standardized_SMILES>  (493) 
CC[C@H](Nc1nc(NCc2ncccc2C)c2ncn(C(C)C)c2n1)[C@@H](C)O

>  <Name>  (493) 
nan

>  <Pocket>  (493) 
nan

>  <ATP_Site>  (493) 
nan

>  <Peripheral>  (493) 
nan

>  <Num_H_Atoms_ProtBoundConf>  (493) 
nan

>  <Num_Resolved_Atoms>  (493) 
nan

>  <Num_Not_Resolved_Atoms>  (493) 
nan

$$$$
CHEMBL3655773
     RDKit          3D

  0  0  0  0  0  0  0  0  0  0999 V3000
M  V30 BEGIN CTAB
M  V30 COUNTS 57 59 0 0 0
M  V30 BEGIN ATOM
M  V30 1 C -0.831811 2.281229 -2.851263 0
M  V30 2 C -0.796295 0.974171 -3.616463 0
M  V30 3 C -1.125314 -0.127226 -2.629049 0 CFG=2
M  V30 4 N -0.221669 -0.228929 -1.529841 0
M  V30 5 C -0.130359 -0.996291 -0.334699 0
M  V30 6 N 0.912862 -0.864592 0.500248 0
M  V30 7 C 1.066147 -1.529777 1.627224 0
M  V30 8 N 2.207769 -1.306627 2.421632 0
M  V30 9 C 3.314748 -0.410391 2.199432 0
M  V30 10 C 2.935312 1.004333 2.132580 0
M  V30 11 C 2.601367 1.787309 1.061840 0
M  V30 12 C 2.259208 3.117569 1.176901 0
M  V30 13 C 2.257722 3.677147 2.445842 0
M  V30 14 C 2.595077 2.883941 3.520637 0
M  V30 15 C 2.554974 3.602437 4.820512 0
M  V30 16 N 2.925609 1.580394 3.368219 0
M  V30 17 C 0.067851 -2.418498 1.946994 0
M  V30 18 N -0.071569 -3.239784 3.014398 0
M  V30 19 C -1.211152 -3.946358 2.927706 0
M  V30 20 N -1.782004 -3.547774 1.780191 0
M  V30 21 C -3.039304 -4.019584 1.233120 0
M  V30 22 C -4.006266 -4.406479 2.344744 0
M  V30 23 C -2.892764 -5.170210 0.281851 0
M  V30 24 C -1.029504 -2.621780 1.163593 0
M  V30 25 N -1.056883 -1.881495 0.050662 0
M  V30 26 C -1.296403 -1.450543 -3.292702 0 CFG=1
M  V30 27 C -0.017744 -2.027288 -3.831337 0
M  V30 28 O -1.815806 -2.364551 -2.392565 0
M  V30 29 H -1.152759 2.157418 -1.794284 0
M  V30 30 H 0.189724 2.726414 -2.826335 0
M  V30 31 H -1.557517 3.011884 -3.294469 0
M  V30 32 H -1.638034 0.998112 -4.330726 0
M  V30 33 H 0.177779 0.854572 -4.088294 0
M  V30 34 H -2.112946 0.160975 -2.200938 0
M  V30 35 H 0.580314 0.454583 -1.663999 0
M  V30 36 H 2.250383 -1.886152 3.309913 0
M  V30 37 H 3.766476 -0.688254 1.201257 0
M  V30 38 H 4.143314 -0.592873 2.919985 0
M  V30 39 H 2.632532 1.278059 0.122260 0
M  V30 40 H 2.009227 3.650738 0.255557 0
M  V30 41 H 1.986600 4.721700 2.514263 0
M  V30 42 H 1.477897 3.748090 5.055102 0
M  V30 43 H 3.077893 3.012790 5.588240 0
M  V30 44 H 3.012179 4.612868 4.751156 0
M  V30 45 H -1.616011 -4.686476 3.614470 0
M  V30 46 H -3.565928 -3.196343 0.679405 0
M  V30 47 H -4.008796 -3.594135 3.099511 0
M  V30 48 H -5.003416 -4.487473 1.883083 0
M  V30 49 H -3.712764 -5.386236 2.767653 0
M  V30 50 H -3.014338 -4.842782 -0.789846 0
M  V30 51 H -3.727612 -5.914539 0.424499 0
M  V30 52 H -1.970229 -5.765532 0.422649 0
M  V30 53 H -2.076592 -1.350882 -4.100604 0
M  V30 54 H -0.293493 -2.639600 -4.724876 0
M  V30 55 H 0.721565 -1.260070 -4.126468 0
M  V30 56 H 0.492569 -2.717949 -3.127430 0
M  V30 57 H -1.379801 -3.243013 -2.390049 0
M  V30 END ATOM
M  V30 BEGIN BOND
M  V30 1 1 1 2
M  V30 2 1 2 3
M  V30 3 1 3 4
M  V30 4 1 4 5
M  V30 5 2 5 6
M  V30 6 1 6 7
M  V30 7 1 7 8
M  V30 8 1 8 9
M  V30 9 1 9 10
M  V30 10 2 10 11
M  V30 11 1 11 12
M  V30 12 2 12 13
M  V30 13 1 13 14
M  V30 14 1 14 15
M  V30 15 2 14 16
M  V30 16 2 7 17
M  V30 17 1 17 18
M  V30 18 2 18 19
M  V30 19 1 19 20
M  V30 20 1 20 21
M  V30 21 1 21 22
M  V30 22 1 21 23
M  V30 23 1 20 24
M  V30 24 2 24 25
M  V30 25 1 3 26
M  V30 26 1 26 27
M  V30 27 1 26 28
M  V30 28 1 25 5
M  V30 29 1 16 10
M  V30 30 1 24 17
M  V30 31 1 1 29
M  V30 32 1 1 30
M  V30 33 1 1 31
M  V30 34 1 2 32
M  V30 35 1 2 33
M  V30 36 1 3 34 CFG=1
M  V30 37 1 4 35
M  V30 38 1 8 36
M  V30 39 1 9 37
M  V30 40 1 9 38
M  V30 41 1 11 39
M  V30 42 1 12 40
M  V30 43 1 13 41
M  V30 44 1 15 42
M  V30 45 1 15 43
M  V30 46 1 15 44
M  V30 47 1 19 45
M  V30 48 1 21 46
M  V30 49 1 22 47
M  V30 50 1 22 48
M  V30 51 1 22 49
M  V30 52 1 23 50
M  V30 53 1 23 51
M  V30 54 1 23 52
M  V30 55 1 26 53 CFG=3
M  V30 56 1 27 54
M  V30 57 1 27 55
M  V30 58 1 27 56
M  V30 59 1 28 57
M  V30 END BOND
M  V30 END CTAB
M  END
>  <Dataset>  (494) 
ChEMBL_Kinases

>  <Ligand_Instance>  (494) 
nan

>  <PDB_ID>  (494) 
nan

>  <Standardized_SMILES>  (494) 
CC[C@H](Nc1nc(NCc2cccc(C)n2)c2ncn(C(C)C)c2n1)[C@@H](C)O

>  <Name>  (494) 
nan

>  <Pocket>  (494) 
nan

>  <ATP_Site>  (494) 
nan

>  <Peripheral>  (494) 
nan

>  <Num_H_Atoms_ProtBoundConf>  (494) 
nan

>  <Num_Resolved_Atoms>  (494) 
nan

>  <Num_Not_Resolved_Atoms>  (494) 
nan

$$$$
CHEMBL3655772
     RDKit          3D

  0  0  0  0  0  0  0  0  0  0999 V3000
M  V30 BEGIN CTAB
M  V30 COUNTS 57 59 0 0 0
M  V30 BEGIN ATOM
M  V30 1 C -0.910003 0.288234 -2.847974 0
M  V30 2 C -0.068844 -0.444554 -1.829603 0
M  V30 3 C -0.311033 -1.925260 -1.818026 0 CFG=2
M  V30 4 N 0.549463 -2.509151 -0.804695 0
M  V30 5 C 0.407333 -2.101539 0.548901 0
M  V30 6 N 1.049640 -1.093761 1.145644 0
M  V30 7 C 0.908730 -0.717626 2.425201 0
M  V30 8 N 1.635011 0.368345 2.985481 0
M  V30 9 C 2.584557 1.212994 2.339073 0
M  V30 10 C 2.065677 1.992670 1.197949 0
M  V30 11 C 1.488865 3.243628 1.457323 0
M  V30 12 C 0.962240 4.095118 0.485628 0
M  V30 13 C 1.029570 3.638852 -0.834698 0
M  V30 14 C 0.457369 4.576685 -1.833697 0
M  V30 15 F -0.670256 5.219040 -1.304024 0
M  V30 16 F 1.338703 5.580174 -2.166379 0
M  V30 17 F 0.052370 3.957777 -2.992655 0
M  V30 18 N 1.574986 2.455015 -1.084969 0
M  V30 19 C 2.077721 1.647752 -0.134809 0
M  V30 20 C -0.009402 -1.492370 3.144401 0
M  V30 21 N -0.386457 -1.388004 4.436878 0
M  V30 22 C -1.298921 -2.339749 4.721814 0
M  V30 23 N -1.469702 -3.024482 3.579235 0
M  V30 24 C -2.370407 -4.134043 3.459248 0
M  V30 25 C -3.794833 -3.696573 3.763627 0
M  V30 26 C -2.393966 -4.727849 2.075923 0
M  V30 27 C -0.701249 -2.542091 2.585909 0
M  V30 28 N -0.478914 -2.830874 1.286669 0
M  V30 29 C -0.061121 -2.485257 -3.178323 0 CFG=1
M  V30 30 C 1.328972 -2.178347 -3.676738 0
M  V30 31 O -0.286162 -3.870824 -3.190237 0
M  V30 32 H -1.793348 -0.301054 -3.106951 0
M  V30 33 H -0.264945 0.568973 -3.688075 0
M  V30 34 H -1.289054 1.255095 -2.405475 0
M  V30 35 H -0.319103 -0.044419 -0.839750 0
M  V30 36 H 1.021376 -0.287138 -2.012942 0
M  V30 37 H -1.381290 -2.081348 -1.561347 0
M  V30 38 H 1.292395 -3.214634 -0.913014 0
M  V30 39 H 1.408192 0.524743 3.998315 0
M  V30 40 H 2.961828 1.952191 3.074377 0
M  V30 41 H 3.507496 0.631457 2.046364 0
M  V30 42 H 1.445052 3.582912 2.491946 0
M  V30 43 H 0.540848 5.038464 0.796390 0
M  V30 44 H 2.510725 0.706627 -0.378470 0
M  V30 45 H -1.802955 -2.530006 5.671502 0
M  V30 46 H -2.109022 -4.909882 4.197410 0
M  V30 47 H -4.216353 -3.114383 2.911165 0
M  V30 48 H -3.827328 -3.094934 4.701398 0
M  V30 49 H -4.414857 -4.581188 3.894781 0
M  V30 50 H -1.434863 -5.240576 1.823830 0
M  V30 51 H -3.155256 -5.555127 2.121396 0
M  V30 52 H -2.722209 -3.993101 1.335854 0
M  V30 53 H -0.784533 -2.038775 -3.874989 0
M  V30 54 H 1.645410 -3.056218 -4.311621 0
M  V30 55 H 1.293364 -1.260491 -4.278197 0
M  V30 56 H 2.007826 -2.034874 -2.821319 0
M  V30 57 H -0.357317 -4.209996 -4.123562 0
M  V30 END ATOM
M  V30 BEGIN BOND
M  V30 1 1 1 2
M  V30 2 1 2 3
M  V30 3 1 3 4
M  V30 4 1 4 5
M  V30 5 2 5 6
M  V30 6 1 6 7
M  V30 7 1 7 8
M  V30 8 1 8 9
M  V30 9 1 9 10
M  V30 10 2 10 11
M  V30 11 1 11 12
M  V30 12 2 12 13
M  V30 13 1 13 14
M  V30 14 1 14 15
M  V30 15 1 14 16
M  V30 16 1 14 17
M  V30 17 1 13 18
M  V30 18 2 18 19
M  V30 19 2 7 20
M  V30 20 1 20 21
M  V30 21 2 21 22
M  V30 22 1 22 23
M  V30 23 1 23 24
M  V30 24 1 24 25
M  V30 25 1 24 26
M  V30 26 1 23 27
M  V30 27 2 27 28
M  V30 28 1 3 29
M  V30 29 1 29 30
M  V30 30 1 29 31
M  V30 31 1 28 5
M  V30 32 1 19 10
M  V30 33 1 27 20
M  V30 34 1 1 32
M  V30 35 1 1 33
M  V30 36 1 1 34
M  V30 37 1 2 35
M  V30 38 1 2 36
M  V30 39 1 3 37 CFG=1
M  V30 40 1 4 38
M  V30 41 1 8 39
M  V30 42 1 9 40
M  V30 43 1 9 41
M  V30 44 1 11 42
M  V30 45 1 12 43
M  V30 46 1 19 44
M  V30 47 1 22 45
M  V30 48 1 24 46
M  V30 49 1 25 47
M  V30 50 1 25 48
M  V30 51 1 25 49
M  V30 52 1 26 50
M  V30 53 1 26 51
M  V30 54 1 26 52
M  V30 55 1 29 53 CFG=3
M  V30 56 1 30 54
M  V30 57 1 30 55
M  V30 58 1 30 56
M  V30 59 1 31 57
M  V30 END BOND
M  V30 END CTAB
M  END
>  <Dataset>  (495) 
ChEMBL_Kinases

>  <Ligand_Instance>  (495) 
nan

>  <PDB_ID>  (495) 
nan

>  <Standardized_SMILES>  (495) 
CC[C@H](Nc1nc(NCc2ccc(C(F)(F)F)nc2)c2ncn(C(C)C)c2n1)[C@@H](C)O

>  <Name>  (495) 
nan

>  <Pocket>  (495) 
nan

>  <ATP_Site>  (495) 
nan

>  <Peripheral>  (495) 
nan

>  <Num_H_Atoms_ProtBoundConf>  (495) 
nan

>  <Num_Resolved_Atoms>  (495) 
nan

>  <Num_Not_Resolved_Atoms>  (495) 
nan

$$$$
CHEMBL4067851
     RDKit          3D

  0  0  0  0  0  0  0  0  0  0999 V3000
M  V30 BEGIN CTAB
M  V30 COUNTS 37 39 0 0 0
M  V30 BEGIN ATOM
M  V30 1 N 3.635643 -0.660720 3.124676 0
M  V30 2 C 3.284768 -1.520604 2.399472 0
M  V30 3 C 2.877709 -2.573805 1.534809 0
M  V30 4 C 3.542011 -3.795488 1.370002 0
M  V30 5 N 2.856125 -4.533262 0.471931 0
M  V30 6 C 1.761606 -3.870735 0.021904 0
M  V30 7 N 0.752703 -4.090178 -0.835163 0
M  V30 8 C -0.187859 -3.182240 -1.039761 0
M  V30 9 N -1.202278 -3.522312 -1.965182 0
M  V30 10 N -0.152227 -2.008451 -0.386618 0
M  V30 11 C 0.837118 -1.713359 0.496374 0
M  V30 12 N 0.715023 -0.425230 1.086868 0
M  V30 13 C 1.458469 0.816401 1.156463 0
M  V30 14 C 0.723905 1.963060 0.505659 0
M  V30 15 C -0.688427 2.095766 0.918919 0
M  V30 16 S -1.842609 1.962266 -0.422119 0
M  V30 17 N -3.466811 2.154627 0.142171 0
M  V30 18 O -1.632840 3.040154 -1.437094 0
M  V30 19 O -1.800307 0.592772 -1.038929 0
M  V30 20 C -0.984543 1.129592 2.021239 0
M  V30 21 C -0.473706 -0.249894 1.845267 0
M  V30 22 C 1.810008 -2.671090 0.698351 0
M  V30 23 H 4.449568 -4.124077 1.861103 0
M  V30 24 H 3.082808 -5.501237 0.121231 0
M  V30 25 H -2.102400 -4.048837 -1.998260 0
M  V30 26 H -0.882611 -3.074887 -2.866583 0
M  V30 27 H 2.461731 0.766429 0.683817 0
M  V30 28 H 1.658214 1.097514 2.233069 0
M  V30 29 H 1.279379 2.878825 0.787773 0
M  V30 30 H 0.836420 1.912097 -0.614404 0
M  V30 31 H -0.851659 3.113334 1.331005 0
M  V30 32 H -4.127978 1.693989 -0.547543 0
M  V30 33 H -3.694366 3.160307 0.302202 0
M  V30 34 H -2.109080 1.145264 2.134875 0
M  V30 35 H -0.639536 1.590882 2.983634 0
M  V30 36 H -0.243106 -0.633659 2.883377 0
M  V30 37 H -1.343219 -0.869638 1.478434 0
M  V30 END ATOM
M  V30 BEGIN BOND
M  V30 1 3 1 2
M  V30 2 1 2 3
M  V30 3 2 3 4
M  V30 4 1 4 5
M  V30 5 1 5 6
M  V30 6 2 6 7
M  V30 7 1 7 8
M  V30 8 1 8 9
M  V30 9 2 8 10
M  V30 10 1 10 11
M  V30 11 1 11 12
M  V30 12 1 12 13
M  V30 13 1 13 14
M  V30 14 1 14 15
M  V30 15 1 15 16
M  V30 16 1 16 17
M  V30 17 2 16 18
M  V30 18 2 16 19
M  V30 19 1 15 20
M  V30 20 1 20 21
M  V30 21 2 11 22
M  V30 22 1 22 3
M  V30 23 1 22 6
M  V30 24 1 21 12
M  V30 25 1 4 23
M  V30 26 1 5 24
M  V30 27 1 9 25
M  V30 28 1 9 26
M  V30 29 1 13 27
M  V30 30 1 13 28
M  V30 31 1 14 29
M  V30 32 1 14 30
M  V30 33 1 15 31
M  V30 34 1 17 32
M  V30 35 1 17 33
M  V30 36 1 20 34
M  V30 37 1 20 35
M  V30 38 1 21 36
M  V30 39 1 21 37
M  V30 END BOND
M  V30 END CTAB
M  END
>  <Dataset>  (496) 
ChEMBL_Kinases

>  <Ligand_Instance>  (496) 
nan

>  <PDB_ID>  (496) 
nan

>  <Standardized_SMILES>  (496) 
N#Cc1c[nH]c2nc(N)nc(N3CCC(S(N)(=O)=O)CC3)c12

>  <Name>  (496) 
nan

>  <Pocket>  (496) 
nan

>  <ATP_Site>  (496) 
nan

>  <Peripheral>  (496) 
nan

>  <Num_H_Atoms_ProtBoundConf>  (496) 
nan

>  <Num_Resolved_Atoms>  (496) 
nan

>  <Num_Not_Resolved_Atoms>  (496) 
nan

$$$$
CHEMBL3655771
     RDKit          3D

  0  0  0  0  0  0  0  0  0  0999 V3000
M  V30 BEGIN CTAB
M  V30 COUNTS 60 62 0 0 0
M  V30 BEGIN ATOM
M  V30 1 C 0.555596 -1.986865 -2.682652 0
M  V30 2 C 1.949788 -2.122749 -2.157069 0
M  V30 3 C 2.034973 -2.671701 -0.780214 0 CFG=2
M  V30 4 N 1.395444 -1.937041 0.257081 0
M  V30 5 C 0.053605 -1.649005 0.610405 0
M  V30 6 N -0.251691 -0.874802 1.634862 0
M  V30 7 C -1.497392 -0.585480 2.015885 0
M  V30 8 N -1.643116 0.260659 3.146507 0
M  V30 9 C -0.679577 0.901374 3.992928 0
M  V30 10 C 0.144005 1.863728 3.213604 0
M  V30 11 C 1.340723 1.704395 2.582619 0
M  V30 12 C 1.916435 2.753229 1.904928 0
M  V30 13 C 3.234121 2.479435 1.242365 0
M  V30 14 N 1.339960 3.969628 1.830397 0
M  V30 15 C 0.164619 4.177045 2.433521 0
M  V30 16 C -0.470416 5.526511 2.350319 0
M  V30 17 C -0.428390 3.122539 3.122722 0
M  V30 18 C -2.539633 -1.128167 1.295510 0
M  V30 19 N -3.852329 -1.012051 1.446948 0
M  V30 20 C -4.471470 -1.737073 0.485775 0
M  V30 21 N -3.495460 -2.286366 -0.239742 0
M  V30 22 C -3.661349 -3.159182 -1.395638 0
M  V30 23 C -3.572161 -2.332979 -2.677311 0
M  V30 24 C -2.714280 -4.314922 -1.416421 0
M  V30 25 C -2.286545 -1.932854 0.230425 0
M  V30 26 N -0.997571 -2.143868 -0.046790 0
M  V30 27 C 3.465724 -3.086682 -0.417564 0 CFG=1
M  V30 28 C 3.372871 -4.029046 0.767385 0
M  V30 29 O 4.028735 -3.802264 -1.474838 0
M  V30 30 H -0.047604 -2.910642 -2.518273 0
M  V30 31 H 0.603942 -1.882314 -3.816259 0
M  V30 32 H 0.068591 -1.066913 -2.354497 0
M  V30 33 H 2.455327 -1.137203 -2.272245 0
M  V30 34 H 2.485557 -2.793281 -2.892227 0
M  V30 35 H 1.503871 -3.683159 -0.839030 0
M  V30 36 H 2.111998 -1.513366 0.902257 0
M  V30 37 H -2.656035 0.428329 3.378891 0
M  V30 38 H -1.177459 1.409665 4.837995 0
M  V30 39 H -0.045222 0.083244 4.416829 0
M  V30 40 H 1.758756 0.706889 2.682241 0
M  V30 41 H 3.087944 1.706731 0.473829 0
M  V30 42 H 3.965055 2.197383 2.015721 0
M  V30 43 H 3.540053 3.416096 0.711261 0
M  V30 44 H -0.384117 5.891258 1.326986 0
M  V30 45 H 0.017564 6.188348 3.100959 0
M  V30 46 H -1.543247 5.440438 2.670079 0
M  V30 47 H -1.378670 3.393510 3.575943 0
M  V30 48 H -5.536890 -1.865559 0.313647 0
M  V30 49 H -4.697918 -3.590407 -1.347551 0
M  V30 50 H -2.520509 -2.309470 -3.031255 0
M  V30 51 H -3.954078 -1.327470 -2.485371 0
M  V30 52 H -4.158974 -2.846344 -3.484146 0
M  V30 53 H -2.099546 -4.426669 -0.505626 0
M  V30 54 H -3.246279 -5.307053 -1.515428 0
M  V30 55 H -2.117142 -4.239773 -2.356101 0
M  V30 56 H 4.073419 -2.203323 -0.150093 0
M  V30 57 H 4.303279 -4.643833 0.767213 0
M  V30 58 H 2.464033 -4.665875 0.662674 0
M  V30 59 H 3.273930 -3.395399 1.662425 0
M  V30 60 H 3.371829 -4.364247 -1.941925 0
M  V30 END ATOM
M  V30 BEGIN BOND
M  V30 1 1 1 2
M  V30 2 1 2 3
M  V30 3 1 3 4
M  V30 4 1 4 5
M  V30 5 2 5 6
M  V30 6 1 6 7
M  V30 7 1 7 8
M  V30 8 1 8 9
M  V30 9 1 9 10
M  V30 10 2 10 11
M  V30 11 1 11 12
M  V30 12 1 12 13
M  V30 13 2 12 14
M  V30 14 1 14 15
M  V30 15 1 15 16
M  V30 16 2 15 17
M  V30 17 2 7 18
M  V30 18 1 18 19
M  V30 19 2 19 20
M  V30 20 1 20 21
M  V30 21 1 21 22
M  V30 22 1 22 23
M  V30 23 1 22 24
M  V30 24 1 21 25
M  V30 25 2 25 26
M  V30 26 1 3 27
M  V30 27 1 27 28
M  V30 28 1 27 29
M  V30 29 1 26 5
M  V30 30 1 17 10
M  V30 31 1 25 18
M  V30 32 1 1 30
M  V30 33 1 1 31
M  V30 34 1 1 32
M  V30 35 1 2 33
M  V30 36 1 2 34
M  V30 37 1 3 35 CFG=3
M  V30 38 1 4 36
M  V30 39 1 8 37
M  V30 40 1 9 38
M  V30 41 1 9 39
M  V30 42 1 11 40
M  V30 43 1 13 41
M  V30 44 1 13 42
M  V30 45 1 13 43
M  V30 46 1 16 44
M  V30 47 1 16 45
M  V30 48 1 16 46
M  V30 49 1 17 47
M  V30 50 1 20 48
M  V30 51 1 22 49
M  V30 52 1 23 50
M  V30 53 1 23 51
M  V30 54 1 23 52
M  V30 55 1 24 53
M  V30 56 1 24 54
M  V30 57 1 24 55
M  V30 58 1 27 56 CFG=1
M  V30 59 1 28 57
M  V30 60 1 28 58
M  V30 61 1 28 59
M  V30 62 1 29 60
M  V30 END BOND
M  V30 END CTAB
M  END
>  <Dataset>  (497) 
ChEMBL_Kinases

>  <Ligand_Instance>  (497) 
nan

>  <PDB_ID>  (497) 
nan

>  <Standardized_SMILES>  (497) 
CC[C@H](Nc1nc(NCc2cc(C)nc(C)c2)c2ncn(C(C)C)c2n1)[C@@H](C)O

>  <Name>  (497) 
nan

>  <Pocket>  (497) 
nan

>  <ATP_Site>  (497) 
nan

>  <Peripheral>  (497) 
nan

>  <Num_H_Atoms_ProtBoundConf>  (497) 
nan

>  <Num_Resolved_Atoms>  (497) 
nan

>  <Num_Not_Resolved_Atoms>  (497) 
nan

$$$$
CHEMBL3655770
     RDKit          3D

  0  0  0  0  0  0  0  0  0  0999 V3000
M  V30 BEGIN CTAB
M  V30 COUNTS 54 56 0 0 0
M  V30 BEGIN ATOM
M  V30 1 C -1.050554 -5.002383 1.512145 0
M  V30 2 C -1.574926 -4.323209 0.255797 0
M  V30 3 C -0.470844 -4.276884 -0.810318 0 CFG=2
M  V30 4 N 0.654881 -3.552611 -0.339016 0
M  V30 5 C 0.569004 -2.224893 0.089821 0
M  V30 6 N 1.684914 -1.628594 0.502786 0
M  V30 7 C 1.811877 -0.382196 0.949512 0
M  V30 8 N 2.899377 0.372143 1.417828 0
M  V30 9 C 3.977108 1.119524 1.881876 0
M  V30 10 C 3.583485 2.551933 2.207618 0
M  V30 11 C 3.711346 3.584071 1.263913 0
M  V30 12 C 3.316078 4.832510 1.685410 0
M  V30 13 N 2.827980 5.117645 2.911614 0
M  V30 14 C 2.707672 4.112289 3.819286 0
M  V30 15 C 3.088467 2.811042 3.467953 0
M  V30 16 C 0.667263 0.419552 1.004725 0
M  V30 17 N 0.324890 1.659732 1.364079 0
M  V30 18 C -0.984913 1.843417 1.183695 0
M  V30 19 N -1.543154 0.724325 0.698257 0
M  V30 20 C -2.947722 0.568106 0.394839 0
M  V30 21 C -3.163739 1.198061 -0.969453 0
M  V30 22 C -3.421409 -0.846106 0.412824 0
M  V30 23 C -0.529752 -0.176151 0.577784 0
M  V30 24 N -0.493140 -1.432021 0.159249 0
M  V30 25 C -1.004304 -3.908693 -2.150799 0 CFG=1
M  V30 26 C -2.225521 -4.811582 -2.379660 0
M  V30 27 O -1.437750 -2.616852 -2.303805 0
M  V30 28 H -0.496894 -5.929772 1.284773 0
M  V30 29 H -0.330396 -4.319436 2.030830 0
M  V30 30 H -1.869237 -5.235840 2.198446 0
M  V30 31 H -1.916802 -3.312324 0.525648 0
M  V30 32 H -2.441770 -4.911180 -0.063987 0
M  V30 33 H -0.190009 -5.377397 -0.914504 0
M  V30 34 H 1.592897 -4.052229 -0.315931 0
M  V30 35 H 3.591722 -0.449272 1.306602 0
M  V30 36 H 4.434964 0.756000 2.829479 0
M  V30 37 H 4.766828 1.257795 1.091053 0
M  V30 38 H 4.101256 3.369272 0.283236 0
M  V30 39 H 3.398395 5.659642 0.985972 0
M  V30 40 H 2.309490 4.446673 4.766310 0
M  V30 41 H 2.952712 2.085904 4.256714 0
M  V30 42 H -1.541972 2.746237 1.386216 0
M  V30 43 H -3.576840 1.186172 1.098208 0
M  V30 44 H -2.464037 0.771764 -1.694115 0
M  V30 45 H -4.225515 1.030138 -1.249832 0
M  V30 46 H -2.971139 2.284251 -0.848135 0
M  V30 47 H -4.544287 -0.789988 0.336729 0
M  V30 48 H -2.990294 -1.364173 -0.442402 0
M  V30 49 H -3.223171 -1.298715 1.389747 0
M  V30 50 H -0.258978 -4.215301 -2.917192 0
M  V30 51 H -3.155689 -4.299273 -2.070827 0
M  V30 52 H -2.085419 -5.802229 -1.899098 0
M  V30 53 H -2.295990 -4.962364 -3.466088 0
M  V30 54 H -1.655479 -2.529985 -3.287111 0
M  V30 END ATOM
M  V30 BEGIN BOND
M  V30 1 1 1 2
M  V30 2 1 2 3
M  V30 3 1 3 4
M  V30 4 1 4 5
M  V30 5 2 5 6
M  V30 6 1 6 7
M  V30 7 1 7 8
M  V30 8 1 8 9
M  V30 9 1 9 10
M  V30 10 2 10 11
M  V30 11 1 11 12
M  V30 12 2 12 13
M  V30 13 1 13 14
M  V30 14 2 14 15
M  V30 15 2 7 16
M  V30 16 1 16 17
M  V30 17 2 17 18
M  V30 18 1 18 19
M  V30 19 1 19 20
M  V30 20 1 20 21
M  V30 21 1 20 22
M  V30 22 1 19 23
M  V30 23 2 23 24
M  V30 24 1 3 25
M  V30 25 1 25 26
M  V30 26 1 25 27
M  V30 27 1 24 5
M  V30 28 1 15 10
M  V30 29 1 23 16
M  V30 30 1 1 28
M  V30 31 1 1 29
M  V30 32 1 1 30
M  V30 33 1 2 31
M  V30 34 1 2 32
M  V30 35 1 3 33 CFG=3
M  V30 36 1 4 34
M  V30 37 1 8 35
M  V30 38 1 9 36
M  V30 39 1 9 37
M  V30 40 1 11 38
M  V30 41 1 12 39
M  V30 42 1 14 40
M  V30 43 1 15 41
M  V30 44 1 18 42
M  V30 45 1 20 43
M  V30 46 1 21 44
M  V30 47 1 21 45
M  V30 48 1 21 46
M  V30 49 1 22 47
M  V30 50 1 22 48
M  V30 51 1 22 49
M  V30 52 1 25 50 CFG=3
M  V30 53 1 26 51
M  V30 54 1 26 52
M  V30 55 1 26 53
M  V30 56 1 27 54
M  V30 END BOND
M  V30 END CTAB
M  END
>  <Dataset>  (498) 
ChEMBL_Kinases

>  <Ligand_Instance>  (498) 
nan

>  <PDB_ID>  (498) 
nan

>  <Standardized_SMILES>  (498) 
CC[C@H](Nc1nc(NCc2ccncc2)c2ncn(C(C)C)c2n1)[C@@H](C)O

>  <Name>  (498) 
nan

>  <Pocket>  (498) 
nan

>  <ATP_Site>  (498) 
nan

>  <Peripheral>  (498) 
nan

>  <Num_H_Atoms_ProtBoundConf>  (498) 
nan

>  <Num_Resolved_Atoms>  (498) 
nan

>  <Num_Not_Resolved_Atoms>  (498) 
nan

$$$$
CHEMBL4067557
     RDKit          3D

  0  0  0  0  0  0  0  0  0  0999 V3000
M  V30 BEGIN CTAB
M  V30 COUNTS 35 37 0 0 0
M  V30 BEGIN ATOM
M  V30 1 C 0.024751 -2.748302 2.951085 0
M  V30 2 C 0.276909 -3.257359 1.560129 0
M  V30 3 C -0.918545 -3.972855 0.981811 0
M  V30 4 N 1.382291 -4.195256 1.489549 0
M  V30 5 C 2.366377 -3.743030 0.555663 0
M  V30 6 O 3.426108 -4.373357 0.306088 0
M  V30 7 C 1.828832 -2.484060 0.046670 0
M  V30 8 C 2.425986 -1.659742 -0.892149 0
M  V30 9 Cl 3.974878 -2.037629 -1.624621 0
M  V30 10 C 1.780816 -0.495561 -1.268340 0
M  V30 11 C 0.553662 -0.218251 -0.673060 0
M  V30 12 N -0.103575 0.993629 -1.073834 0
M  V30 13 C -0.431332 2.044395 -0.169330 0
M  V30 14 C -1.060690 3.226499 -0.499517 0
M  V30 15 C -1.342379 4.188271 0.423127 0
M  V30 16 N -1.994363 5.366055 -0.034750 0
M  V30 17 N -1.019781 4.038507 1.720873 0
M  V30 18 C -0.398644 2.871572 2.046057 0
M  V30 19 N -0.113777 1.912600 1.146779 0
M  V30 20 C 0.000379 -1.084031 0.265829 0
M  V30 21 O -1.101840 -0.754937 0.746359 0
M  V30 22 N 0.640648 -2.213877 0.621911 0
M  V30 23 H -0.892955 -3.201027 3.342938 0
M  V30 24 H 0.868827 -3.133654 3.577144 0
M  V30 25 H 0.074021 -1.660102 2.990172 0
M  V30 26 H -1.794893 -3.305129 0.955370 0
M  V30 27 H -0.642821 -4.206808 -0.080183 0
M  V30 28 H -1.065030 -4.911898 1.536438 0
M  V30 29 H 1.317438 -5.026265 2.093270 0
M  V30 30 H 2.220161 0.173195 -2.001204 0
M  V30 31 H -0.369285 1.142779 -2.078888 0
M  V30 32 H -1.318200 3.334650 -1.563696 0
M  V30 33 H -2.813105 5.846557 0.431657 0
M  V30 34 H -1.750872 5.923285 -0.903655 0
M  V30 35 H -0.135833 2.749681 3.103600 0
M  V30 END ATOM
M  V30 BEGIN BOND
M  V30 1 1 1 2
M  V30 2 1 2 3
M  V30 3 1 2 4
M  V30 4 1 4 5
M  V30 5 2 5 6
M  V30 6 1 5 7
M  V30 7 2 7 8
M  V30 8 1 8 9
M  V30 9 1 8 10
M  V30 10 2 10 11
M  V30 11 1 11 12
M  V30 12 1 12 13
M  V30 13 2 13 14
M  V30 14 1 14 15
M  V30 15 1 15 16
M  V30 16 2 15 17
M  V30 17 1 17 18
M  V30 18 2 18 19
M  V30 19 1 11 20
M  V30 20 2 20 21
M  V30 21 1 20 22
M  V30 22 1 22 2
M  V30 23 1 22 7
M  V30 24 1 19 13
M  V30 25 1 1 23
M  V30 26 1 1 24
M  V30 27 1 1 25
M  V30 28 1 3 26
M  V30 29 1 3 27
M  V30 30 1 3 28
M  V30 31 1 4 29
M  V30 32 1 10 30
M  V30 33 1 12 31
M  V30 34 1 14 32
M  V30 35 1 16 33
M  V30 36 1 16 34
M  V30 37 1 18 35
M  V30 END BOND
M  V30 END CTAB
M  END
>  <Dataset>  (499) 
ChEMBL_Kinases

>  <Ligand_Instance>  (499) 
nan

>  <PDB_ID>  (499) 
nan

>  <Standardized_SMILES>  (499) 
CC1(C)NC(=O)c2c(Cl)cc(Nc3cc(N)ncn3)c(=O)n21

>  <Name>  (499) 
nan

>  <Pocket>  (499) 
nan

>  <ATP_Site>  (499) 
nan

>  <Peripheral>  (499) 
nan

>  <Num_H_Atoms_ProtBoundConf>  (499) 
nan

>  <Num_Resolved_Atoms>  (499) 
nan

>  <Num_Not_Resolved_Atoms>  (499) 
nan

$$$$
CHEMBL3912242
     RDKit          3D

  0  0  0  0  0  0  0  0  0  0999 V3000
M  V30 BEGIN CTAB
M  V30 COUNTS 55 59 0 0 0
M  V30 BEGIN ATOM
M  V30 1 C 3.427023 -2.938669 0.682319 0
M  V30 2 N 3.087096 -2.087068 1.826009 0
M  V30 3 C 2.106908 -1.128217 1.382970 0 CFG=1
M  V30 4 C 1.681794 -0.191611 2.487689 0
M  V30 5 C 2.655196 0.910496 2.728055 0
M  V30 6 C 3.391049 1.336124 1.475840 0
M  V30 7 N 2.515915 0.992418 0.341705 0
M  V30 8 C 1.904339 2.101731 -0.314738 0
M  V30 9 C 2.722567 3.197107 -0.538173 0
M  V30 10 C 2.347257 4.351158 -1.192841 0
M  V30 11 N 1.057639 4.389164 -1.647547 0
M  V30 12 C 0.247839 3.336017 -1.440227 0
M  V30 13 C 0.603441 2.177641 -0.789478 0
M  V30 14 N -0.259220 1.086366 -0.549990 0
M  V30 15 C -1.600864 0.938533 -0.987006 0
M  V30 16 N -2.317362 1.803552 -1.721183 0
M  V30 17 C -3.558982 1.368296 -1.967503 0
M  V30 18 C -3.628474 0.155387 -1.350926 0
M  V30 19 C -4.674128 -0.742819 -1.276340 0
M  V30 20 C -4.487597 -1.919833 -0.580318 0
M  V30 21 C -3.255693 -2.128883 0.004009 0
M  V30 22 C -3.068489 -3.385085 0.742486 0
M  V30 23 C -2.611765 -4.600002 0.275818 0
M  V30 24 F -2.303892 -4.599740 -1.043085 0
M  V30 25 C -2.506662 -5.662464 1.128220 0
M  V30 26 C -2.850190 -5.557989 2.471422 0
M  V30 27 C -3.310408 -4.335641 2.943952 0
M  V30 28 C -3.416888 -3.252814 2.072494 0
M  V30 29 F -3.882572 -2.121760 2.680288 0
M  V30 30 N -2.274982 -1.215107 -0.103824 0
M  V30 31 N -2.444960 -0.084544 -0.768823 0
M  V30 32 C 2.512945 -0.442447 0.129941 0
M  V30 33 H 3.527780 -3.993167 1.016242 0
M  V30 34 H 4.380681 -2.585540 0.250683 0
M  V30 35 H 2.641288 -2.903318 -0.104565 0
M  V30 36 H 2.721832 -2.661494 2.611935 0
M  V30 37 H 1.183602 -1.738409 1.151797 0
M  V30 38 H 0.641995 0.188153 2.333758 0
M  V30 39 H 1.614726 -0.806393 3.414748 0
M  V30 40 H 2.115767 1.800530 3.108469 0
M  V30 41 H 3.371616 0.606799 3.533711 0
M  V30 42 H 3.684813 2.385523 1.495980 0
M  V30 43 H 4.326253 0.743389 1.426984 0
M  V30 44 H 3.773094 3.315010 -0.245570 0
M  V30 45 H 2.948189 5.227656 -1.389625 0
M  V30 46 H -0.739781 3.478619 -1.839375 0
M  V30 47 H 0.063052 0.288463 0.003780 0
M  V30 48 H -4.330226 1.876996 -2.533733 0
M  V30 49 H -5.624236 -0.535824 -1.751232 0
M  V30 50 H -5.294548 -2.619846 -0.519123 0
M  V30 51 H -2.143422 -6.594702 0.715412 0
M  V30 52 H -2.764738 -6.403088 3.141232 0
M  V30 53 H -3.564394 -4.305905 3.995400 0
M  V30 54 H 1.988162 -0.761120 -0.792385 0
M  V30 55 H 3.615693 -0.692565 -0.018494 0
M  V30 END ATOM
M  V30 BEGIN BOND
M  V30 1 1 1 2
M  V30 2 1 2 3
M  V30 3 1 3 4
M  V30 4 1 4 5
M  V30 5 1 5 6
M  V30 6 1 6 7
M  V30 7 1 7 8
M  V30 8 2 8 9
M  V30 9 1 9 10
M  V30 10 2 10 11
M  V30 11 1 11 12
M  V30 12 2 12 13
M  V30 13 1 13 14
M  V30 14 1 14 15
M  V30 15 2 15 16
M  V30 16 1 16 17
M  V30 17 2 17 18
M  V30 18 1 18 19
M  V30 19 2 19 20
M  V30 20 1 20 21
M  V30 21 1 21 22
M  V30 22 2 22 23
M  V30 23 1 23 24
M  V30 24 1 23 25
M  V30 25 2 25 26
M  V30 26 1 26 27
M  V30 27 2 27 28
M  V30 28 1 28 29
M  V30 29 2 21 30
M  V30 30 1 30 31
M  V30 31 1 7 32
M  V30 32 1 32 3
M  V30 33 1 13 8
M  V30 34 1 31 15
M  V30 35 1 31 18
M  V30 36 1 28 22
M  V30 37 1 1 33
M  V30 38 1 1 34
M  V30 39 1 1 35
M  V30 40 1 2 36
M  V30 41 1 3 37 CFG=3
M  V30 42 1 4 38
M  V30 43 1 4 39
M  V30 44 1 5 40
M  V30 45 1 5 41
M  V30 46 1 6 42
M  V30 47 1 6 43
M  V30 48 1 9 44
M  V30 49 1 10 45
M  V30 50 1 12 46
M  V30 51 1 14 47
M  V30 52 1 17 48
M  V30 53 1 19 49
M  V30 54 1 20 50
M  V30 55 1 25 51
M  V30 56 1 26 52
M  V30 57 1 27 53
M  V30 58 1 32 54
M  V30 59 1 32 55
M  V30 END BOND
M  V30 END CTAB
M  END
>  <Dataset>  (500) 
ChEMBL_Kinases

>  <Ligand_Instance>  (500) 
nan

>  <PDB_ID>  (500) 
nan

>  <Standardized_SMILES>  (500) 
CN[C@H]1CCCN(c2ccncc2Nc2ncc3ccc(-c4c(F)cccc4F)nn23)C1

>  <Name>  (500) 
nan

>  <Pocket>  (500) 
nan

>  <ATP_Site>  (500) 
nan

>  <Peripheral>  (500) 
nan

>  <Num_H_Atoms_ProtBoundConf>  (500) 
nan

>  <Num_Resolved_Atoms>  (500) 
nan

>  <Num_Not_Resolved_Atoms>  (500) 
nan

$$$$
CHEMBL4067143
     RDKit          3D

  0  0  0  0  0  0  0  0  0  0999 V3000
M  V30 BEGIN CTAB
M  V30 COUNTS 47 51 0 0 0
M  V30 BEGIN ATOM
M  V30 1 C -0.369329 -3.434832 4.693881 0
M  V30 2 C -0.317272 -3.684569 3.231300 0
M  V30 3 C 0.248003 -2.836240 2.326189 0
M  V30 4 C 0.275846 -3.108795 0.960174 0
M  V30 5 C 0.889879 -2.175923 0.015468 0
M  V30 6 C 1.467984 -2.766993 -1.115734 0
M  V30 7 C 2.093130 -2.059077 -2.117394 0
M  V30 8 C 2.131152 -0.700008 -1.961581 0
M  V30 9 N 2.751710 0.004459 -2.957029 0
M  V30 10 C 2.833282 1.346646 -2.883302 0
M  V30 11 C 2.273923 1.933901 -1.785709 0
M  V30 12 N 2.198120 3.214687 -1.440303 0
M  V30 13 N 1.567077 3.300970 -0.295911 0
M  V30 14 N 1.182445 2.101712 0.196358 0
M  V30 15 C 0.474456 1.970153 1.443382 0 CFG=2
M  V30 16 C 1.200217 1.372818 2.592420 0
M  V30 17 C -0.980292 1.752852 1.338086 0
M  V30 18 C -1.806052 0.789532 1.864141 0
M  V30 19 C -3.164153 0.689206 1.677972 0
M  V30 20 C -3.799666 1.626162 0.894027 0
M  V30 21 C -3.034593 2.623540 0.332562 0
M  V30 22 C -1.692916 2.674042 0.550927 0
M  V30 23 C 1.635788 1.287327 -0.749200 0
M  V30 24 C 1.589330 -0.072820 -0.889144 0
M  V30 25 C 0.977931 -0.802248 0.083925 0
M  V30 26 C -0.287768 -4.275252 0.515879 0
M  V30 27 C -0.857578 -5.124676 1.452758 0
M  V30 28 N -0.870850 -4.833815 2.779612 0
M  V30 29 H 0.144302 -4.221359 5.274434 0
M  V30 30 H 0.024195 -2.424780 4.941014 0
M  V30 31 H -1.443566 -3.467927 5.008242 0
M  V30 32 H 0.691808 -1.918861 2.668872 0
M  V30 33 H 1.443778 -3.841314 -1.248819 0
M  V30 34 H 2.532237 -2.524608 -2.978737 0
M  V30 35 H 3.316829 1.934726 -3.653426 0
M  V30 36 H 0.434724 3.069188 1.808813 0
M  V30 37 H 1.616527 2.071962 3.343157 0
M  V30 38 H 2.128603 0.865034 2.189984 0
M  V30 39 H 0.673225 0.598169 3.171334 0
M  V30 40 H -1.253819 0.070034 2.482271 0
M  V30 41 H -3.630073 -0.148950 2.182552 0
M  V30 42 H -4.861333 1.478071 0.798047 0
M  V30 43 H -3.556396 3.344889 -0.276372 0
M  V30 44 H -1.162194 3.498334 0.067723 0
M  V30 45 H 0.501192 -0.523525 0.979402 0
M  V30 46 H -0.312614 -4.565513 -0.509457 0
M  V30 47 H -1.307143 -6.050600 1.118810 0
M  V30 END ATOM
M  V30 BEGIN BOND
M  V30 1 1 1 2
M  V30 2 2 2 3
M  V30 3 1 3 4
M  V30 4 1 4 5
M  V30 5 2 5 6
M  V30 6 1 6 7
M  V30 7 2 7 8
M  V30 8 1 8 9
M  V30 9 2 9 10
M  V30 10 1 10 11
M  V30 11 1 11 12
M  V30 12 2 12 13
M  V30 13 1 13 14
M  V30 14 1 14 15
M  V30 15 1 15 16
M  V30 16 1 15 17
M  V30 17 2 17 18
M  V30 18 1 18 19
M  V30 19 2 19 20
M  V30 20 1 20 21
M  V30 21 2 21 22
M  V30 22 1 14 23
M  V30 23 1 23 24
M  V30 24 2 24 25
M  V30 25 2 4 26
M  V30 26 1 26 27
M  V30 27 2 27 28
M  V30 28 1 28 2
M  V30 29 1 25 5
M  V30 30 1 24 8
M  V30 31 2 23 11
M  V30 32 1 22 17
M  V30 33 1 1 29
M  V30 34 1 1 30
M  V30 35 1 1 31
M  V30 36 1 3 32
M  V30 37 1 6 33
M  V30 38 1 7 34
M  V30 39 1 10 35
M  V30 40 1 15 36 CFG=1
M  V30 41 1 16 37
M  V30 42 1 16 38
M  V30 43 1 16 39
M  V30 44 1 18 40
M  V30 45 1 19 41
M  V30 46 1 20 42
M  V30 47 1 21 43
M  V30 48 1 22 44
M  V30 49 1 25 45
M  V30 50 1 26 46
M  V30 51 1 27 47
M  V30 END BOND
M  V30 END CTAB
M  END
>  <Dataset>  (501) 
ChEMBL_Kinases

>  <Ligand_Instance>  (501) 
nan

>  <PDB_ID>  (501) 
nan

>  <Standardized_SMILES>  (501) 
Cc1cc(-c2ccc3ncc4nnn([C@H](C)c5ccccc5)c4c3c2)ccn1

>  <Name>  (501) 
nan

>  <Pocket>  (501) 
nan

>  <ATP_Site>  (501) 
nan

>  <Peripheral>  (501) 
nan

>  <Num_H_Atoms_ProtBoundConf>  (501) 
nan

>  <Num_Resolved_Atoms>  (501) 
nan

>  <Num_Not_Resolved_Atoms>  (501) 
nan

$$$$
CHEMBL3655768
     RDKit          3D

  0  0  0  0  0  0  0  0  0  0999 V3000
M  V30 BEGIN CTAB
M  V30 COUNTS 52 54 0 0 0
M  V30 BEGIN ATOM
M  V30 1 C -1.474951 -3.706718 1.925856 0
M  V30 2 C -0.041394 -3.307556 1.976847 0
M  V30 3 C 0.664640 -3.291959 0.649530 0 CFG=2
M  V30 4 N 0.085889 -2.394170 -0.296729 0
M  V30 5 C -0.018974 -0.993670 -0.066021 0
M  V30 6 N 0.929754 -0.125689 -0.417102 0
M  V30 7 C 0.887839 1.195800 -0.227177 0
M  V30 8 N 1.979580 1.954621 -0.680342 0
M  V30 9 C 3.255267 2.014497 -1.296796 0
M  V30 10 C 4.381368 1.449746 -0.509655 0
M  V30 11 C 4.370143 -0.013463 -0.120958 0
M  V30 12 C 4.153418 1.004979 0.908464 0
M  V30 13 C -0.248281 1.678195 0.388453 0
M  V30 14 N -0.578946 2.939897 0.711463 0
M  V30 15 C -1.786771 2.954005 1.301967 0
M  V30 16 N -2.154231 1.670752 1.316463 0
M  V30 17 C -3.419836 1.163747 1.868275 0
M  V30 18 C -4.153016 0.413122 0.775343 0
M  V30 19 C -4.254889 2.285301 2.426498 0
M  V30 20 C -1.255444 0.833500 0.770999 0
M  V30 21 N -1.083908 -0.465019 0.520835 0
M  V30 22 C 0.833627 -4.658684 0.066299 0 CFG=1
M  V30 23 C -0.435431 -5.273980 -0.420669 0
M  V30 24 O 1.684360 -4.568621 -1.059717 0
M  V30 25 H -2.067204 -3.009550 2.553234 0
M  V30 26 H -1.907419 -3.617692 0.908466 0
M  V30 27 H -1.671638 -4.716635 2.383535 0
M  V30 28 H 0.474106 -4.072759 2.629383 0
M  V30 29 H 0.074546 -2.356542 2.518033 0
M  V30 30 H 1.691759 -2.877129 0.874222 0
M  V30 31 H -0.337156 -2.542258 -1.249736 0
M  V30 32 H 1.763677 2.971239 -0.458251 0
M  V30 33 H 3.170521 1.433183 -2.278411 0
M  V30 34 H 3.562500 3.030479 -1.668395 0
M  V30 35 H 5.383320 1.939896 -0.647264 0
M  V30 36 H 5.395059 -0.492034 -0.237894 0
M  V30 37 H 3.559310 -0.675230 -0.436985 0
M  V30 38 H 4.926960 1.196963 1.664483 0
M  V30 39 H 3.113584 1.132138 1.276740 0
M  V30 40 H -2.351396 3.776014 1.682604 0
M  V30 41 H -3.152352 0.436774 2.651440 0
M  V30 42 H -4.789591 -0.396280 1.143345 0
M  V30 43 H -3.392065 -0.059703 0.088291 0
M  V30 44 H -4.703740 1.166903 0.168883 0
M  V30 45 H -3.613689 2.930839 3.046000 0
M  V30 46 H -5.028631 1.793564 3.069279 0
M  V30 47 H -4.779200 2.778200 1.603369 0
M  V30 48 H 1.301566 -5.369360 0.770260 0
M  V30 49 H -0.122495 -6.095268 -1.131735 0
M  V30 50 H -1.012815 -4.581731 -1.097172 0
M  V30 51 H -1.047010 -5.781392 0.327933 0
M  V30 52 H 2.604022 -4.597802 -0.682093 0
M  V30 END ATOM
M  V30 BEGIN BOND
M  V30 1 1 1 2
M  V30 2 1 2 3
M  V30 3 1 3 4
M  V30 4 1 4 5
M  V30 5 2 5 6
M  V30 6 1 6 7
M  V30 7 1 7 8
M  V30 8 1 8 9
M  V30 9 1 9 10
M  V30 10 1 10 11
M  V30 11 1 11 12
M  V30 12 2 7 13
M  V30 13 1 13 14
M  V30 14 2 14 15
M  V30 15 1 15 16
M  V30 16 1 16 17
M  V30 17 1 17 18
M  V30 18 1 17 19
M  V30 19 1 16 20
M  V30 20 2 20 21
M  V30 21 1 3 22
M  V30 22 1 22 23
M  V30 23 1 22 24
M  V30 24 1 21 5
M  V30 25 1 12 10
M  V30 26 1 20 13
M  V30 27 1 1 25
M  V30 28 1 1 26
M  V30 29 1 1 27
M  V30 30 1 2 28
M  V30 31 1 2 29
M  V30 32 1 3 30 CFG=1
M  V30 33 1 4 31
M  V30 34 1 8 32
M  V30 35 1 9 33
M  V30 36 1 9 34
M  V30 37 1 10 35
M  V30 38 1 11 36
M  V30 39 1 11 37
M  V30 40 1 12 38
M  V30 41 1 12 39
M  V30 42 1 15 40
M  V30 43 1 17 41
M  V30 44 1 18 42
M  V30 45 1 18 43
M  V30 46 1 18 44
M  V30 47 1 19 45
M  V30 48 1 19 46
M  V30 49 1 19 47
M  V30 50 1 22 48 CFG=1
M  V30 51 1 23 49
M  V30 52 1 23 50
M  V30 53 1 23 51
M  V30 54 1 24 52
M  V30 END BOND
M  V30 END CTAB
M  END
>  <Dataset>  (502) 
ChEMBL_Kinases

>  <Ligand_Instance>  (502) 
nan

>  <PDB_ID>  (502) 
nan

>  <Standardized_SMILES>  (502) 
CC[C@H](Nc1nc(NCC2CC2)c2ncn(C(C)C)c2n1)[C@@H](C)O

>  <Name>  (502) 
nan

>  <Pocket>  (502) 
nan

>  <ATP_Site>  (502) 
nan

>  <Peripheral>  (502) 
nan

>  <Num_H_Atoms_ProtBoundConf>  (502) 
nan

>  <Num_Resolved_Atoms>  (502) 
nan

>  <Num_Not_Resolved_Atoms>  (502) 
nan

$$$$
CHEMBL3655767
     RDKit          3D

  0  0  0  0  0  0  0  0  0  0999 V3000
M  V30 BEGIN CTAB
M  V30 COUNTS 49 51 0 0 0
M  V30 BEGIN ATOM
M  V30 1 C 0.436419 -4.948058 1.892759 0
M  V30 2 C 0.536180 -4.570100 0.455284 0
M  V30 3 C -0.161076 -3.251251 0.120284 0 CFG=2
M  V30 4 N 0.392081 -2.151106 0.855692 0
M  V30 5 C 0.303688 -0.741319 0.708875 0
M  V30 6 N -0.206993 -0.107351 -0.354893 0
M  V30 7 C -0.315101 1.223351 -0.489149 0
M  V30 8 N -0.829026 1.912811 -1.617014 0
M  V30 9 C -1.303475 1.434696 -2.886398 0
M  V30 10 C -0.341162 0.823162 -3.867575 0
M  V30 11 C -1.367602 -0.024620 -3.174251 0
M  V30 12 C 0.150566 1.956605 0.581004 0
M  V30 13 N 0.215926 3.282802 0.823706 0
M  V30 14 C 0.768072 3.489623 2.040293 0
M  V30 15 N 1.058297 2.292484 2.580367 0
M  V30 16 C 1.666957 1.944909 3.874677 0
M  V30 17 C 0.866160 0.837308 4.506526 0
M  V30 18 C 3.063187 1.367347 3.610069 0
M  V30 19 C 0.684156 1.356680 1.696022 0
M  V30 20 N 0.737879 0.036840 1.711918 0
M  V30 21 C -1.645675 -3.398649 0.406637 0 CFG=1
M  V30 22 C -2.450599 -2.164553 0.128557 0
M  V30 23 O -2.178462 -4.468432 -0.311688 0
M  V30 24 H 0.170696 -4.115939 2.583539 0
M  V30 25 H 1.426146 -5.313836 2.233131 0
M  V30 26 H -0.248786 -5.823939 2.043427 0
M  V30 27 H 0.098038 -5.389215 -0.141184 0
M  V30 28 H 1.594801 -4.475749 0.172003 0
M  V30 29 H -0.031795 -3.072234 -0.952375 0
M  V30 30 H 0.981671 -2.496957 1.665841 0
M  V30 31 H -0.882286 2.956912 -1.544615 0
M  V30 32 H -2.121292 2.034466 -3.353973 0
M  V30 33 H 0.729512 0.714205 -3.596101 0
M  V30 34 H -0.508594 1.015973 -4.947003 0
M  V30 35 H -2.237434 -0.391714 -3.786089 0
M  V30 36 H -0.953129 -0.781231 -2.479461 0
M  V30 37 H 0.994391 4.389888 2.602160 0
M  V30 38 H 1.756154 2.853824 4.466437 0
M  V30 39 H -0.172171 0.783168 4.085014 0
M  V30 40 H 1.310790 -0.159012 4.286246 0
M  V30 41 H 0.856044 0.955412 5.603848 0
M  V30 42 H 3.658032 1.369847 4.516681 0
M  V30 43 H 2.864737 0.319982 3.251214 0
M  V30 44 H 3.541052 1.882907 2.740427 0
M  V30 45 H -1.812653 -3.627815 1.494738 0
M  V30 46 H -3.542751 -2.473887 0.222183 0
M  V30 47 H -2.376703 -1.768894 -0.886767 0
M  V30 48 H -2.268400 -1.420025 0.934143 0
M  V30 49 H -2.313566 -4.206767 -1.259568 0
M  V30 END ATOM
M  V30 BEGIN BOND
M  V30 1 1 1 2
M  V30 2 1 2 3
M  V30 3 1 3 4
M  V30 4 1 4 5
M  V30 5 2 5 6
M  V30 6 1 6 7
M  V30 7 1 7 8
M  V30 8 1 8 9
M  V30 9 1 9 10
M  V30 10 1 10 11
M  V30 11 2 7 12
M  V30 12 1 12 13
M  V30 13 2 13 14
M  V30 14 1 14 15
M  V30 15 1 15 16
M  V30 16 1 16 17
M  V30 17 1 16 18
M  V30 18 1 15 19
M  V30 19 2 19 20
M  V30 20 1 3 21
M  V30 21 1 21 22
M  V30 22 1 21 23
M  V30 23 1 20 5
M  V30 24 1 11 9
M  V30 25 1 19 12
M  V30 26 1 1 24
M  V30 27 1 1 25
M  V30 28 1 1 26
M  V30 29 1 2 27
M  V30 30 1 2 28
M  V30 31 1 3 29 CFG=3
M  V30 32 1 4 30
M  V30 33 1 8 31
M  V30 34 1 9 32
M  V30 35 1 10 33
M  V30 36 1 10 34
M  V30 37 1 11 35
M  V30 38 1 11 36
M  V30 39 1 14 37
M  V30 40 1 16 38
M  V30 41 1 17 39
M  V30 42 1 17 40
M  V30 43 1 17 41
M  V30 44 1 18 42
M  V30 45 1 18 43
M  V30 46 1 18 44
M  V30 47 1 21 45 CFG=1
M  V30 48 1 22 46
M  V30 49 1 22 47
M  V30 50 1 22 48
M  V30 51 1 23 49
M  V30 END BOND
M  V30 END CTAB
M  END
>  <Dataset>  (503) 
ChEMBL_Kinases

>  <Ligand_Instance>  (503) 
nan

>  <PDB_ID>  (503) 
nan

>  <Standardized_SMILES>  (503) 
CC[C@H](Nc1nc(NC2CC2)c2ncn(C(C)C)c2n1)[C@@H](C)O

>  <Name>  (503) 
nan

>  <Pocket>  (503) 
nan

>  <ATP_Site>  (503) 
nan

>  <Peripheral>  (503) 
nan

>  <Num_H_Atoms_ProtBoundConf>  (503) 
nan

>  <Num_Resolved_Atoms>  (503) 
nan

>  <Num_Not_Resolved_Atoms>  (503) 
nan

$$$$
CHEMBL3655766
     RDKit          3D

  0  0  0  0  0  0  0  0  0  0999 V3000
M  V30 BEGIN CTAB
M  V30 COUNTS 55 58 0 0 0
M  V30 BEGIN ATOM
M  V30 1 C -2.396752 -2.508197 3.462188 0
M  V30 2 C -2.253021 -3.200424 2.115443 0
M  V30 3 C -0.851773 -3.726322 2.020880 0 CFG=2
M  V30 4 N 0.153485 -2.706970 2.113913 0
M  V30 5 C 0.260833 -1.578989 1.231575 0
M  V30 6 N 1.225764 -0.618618 1.315253 0
M  V30 7 C 1.271858 0.411714 0.465007 0
M  V30 8 N 2.341326 1.352407 0.664549 0
M  V30 9 C 3.381658 1.331485 1.671646 0
M  V30 10 C 4.313006 2.490564 1.551151 0
M  V30 11 C 5.453813 2.471185 0.787393 0
M  V30 12 C 6.290184 3.582988 0.709559 0
M  V30 13 C 5.880347 4.691916 1.455764 0
M  V30 14 N 4.759942 4.701387 2.201772 0
M  V30 15 C 3.952029 3.605308 2.267489 0
M  V30 16 C 0.339539 0.550194 -0.541141 0
M  V30 17 N 0.181252 1.478936 -1.497446 0
M  V30 18 C -0.914196 1.108815 -2.217288 0
M  V30 19 N -1.392141 -0.040438 -1.674273 0
M  V30 20 C -2.557540 -0.740319 -2.174341 0
M  V30 21 C -3.766259 -0.189680 -1.444037 0
M  V30 22 C -5.110421 -0.709042 -1.739191 0
M  V30 23 C -4.675049 0.620001 -2.297365 0
M  V30 24 C -0.628545 -0.421934 -0.617606 0
M  V30 25 N -0.638713 -1.426362 0.244294 0
M  V30 26 C -0.564103 -4.622317 0.876724 0 CFG=1
M  V30 27 C -1.466625 -5.822623 0.783518 0
M  V30 28 O -0.524088 -4.013523 -0.369134 0
M  V30 29 H -2.374840 -3.309108 4.229347 0
M  V30 30 H -1.618454 -1.759476 3.660520 0
M  V30 31 H -3.431690 -2.060739 3.516991 0
M  V30 32 H -2.941324 -4.068464 2.184180 0
M  V30 33 H -2.559828 -2.577355 1.272312 0
M  V30 34 H -0.729417 -4.347212 2.962027 0
M  V30 35 H 0.915643 -2.703595 2.857689 0
M  V30 36 H 2.370302 2.168453 -0.016658 0
M  V30 37 H 3.987579 0.403420 1.618193 0
M  V30 38 H 2.873451 1.321329 2.659828 0
M  V30 39 H 5.696086 1.578883 0.244960 0
M  V30 40 H 7.189666 3.577841 0.111677 0
M  V30 41 H 6.515839 5.591557 1.420133 0
M  V30 42 H 3.049077 3.662692 2.890012 0
M  V30 43 H -1.304919 1.657305 -3.064474 0
M  V30 44 H -2.644099 -0.672956 -3.270457 0
M  V30 45 H -2.463974 -1.809746 -1.912750 0
M  V30 46 H -3.563084 0.154399 -0.399103 0
M  V30 47 H -5.865314 -0.657413 -0.919369 0
M  V30 48 H -5.260197 -1.525445 -2.455684 0
M  V30 49 H -4.507419 0.687783 -3.382111 0
M  V30 50 H -5.091740 1.534978 -1.814893 0
M  V30 51 H 0.464163 -5.035013 1.030141 0
M  V30 52 H -1.169106 -6.625229 1.508836 0
M  V30 53 H -2.525490 -5.634726 0.947151 0
M  V30 54 H -1.384986 -6.285149 -0.221868 0
M  V30 55 H 0.253348 -4.279092 -0.915680 0
M  V30 END ATOM
M  V30 BEGIN BOND
M  V30 1 1 1 2
M  V30 2 1 2 3
M  V30 3 1 3 4
M  V30 4 1 4 5
M  V30 5 2 5 6
M  V30 6 1 6 7
M  V30 7 1 7 8
M  V30 8 1 8 9
M  V30 9 1 9 10
M  V30 10 2 10 11
M  V30 11 1 11 12
M  V30 12 2 12 13
M  V30 13 1 13 14
M  V30 14 2 14 15
M  V30 15 2 7 16
M  V30 16 1 16 17
M  V30 17 2 17 18
M  V30 18 1 18 19
M  V30 19 1 19 20
M  V30 20 1 20 21
M  V30 21 1 21 22
M  V30 22 1 22 23
M  V30 23 1 19 24
M  V30 24 2 24 25
M  V30 25 1 3 26
M  V30 26 1 26 27
M  V30 27 1 26 28
M  V30 28 1 25 5
M  V30 29 1 15 10
M  V30 30 1 24 16
M  V30 31 1 23 21
M  V30 32 1 1 29
M  V30 33 1 1 30
M  V30 34 1 1 31
M  V30 35 1 2 32
M  V30 36 1 2 33
M  V30 37 1 3 34 CFG=1
M  V30 38 1 4 35
M  V30 39 1 8 36
M  V30 40 1 9 37
M  V30 41 1 9 38
M  V30 42 1 11 39
M  V30 43 1 12 40
M  V30 44 1 13 41
M  V30 45 1 15 42
M  V30 46 1 18 43
M  V30 47 1 20 44
M  V30 48 1 20 45
M  V30 49 1 21 46
M  V30 50 1 22 47
M  V30 51 1 22 48
M  V30 52 1 23 49
M  V30 53 1 23 50
M  V30 54 1 26 51 CFG=1
M  V30 55 1 27 52
M  V30 56 1 27 53
M  V30 57 1 27 54
M  V30 58 1 28 55
M  V30 END BOND
M  V30 END CTAB
M  END
>  <Dataset>  (504) 
ChEMBL_Kinases

>  <Ligand_Instance>  (504) 
nan

>  <PDB_ID>  (504) 
nan

>  <Standardized_SMILES>  (504) 
CC[C@H](Nc1nc(NCc2cccnc2)c2ncn(CC3CC3)c2n1)[C@@H](C)O

>  <Name>  (504) 
nan

>  <Pocket>  (504) 
nan

>  <ATP_Site>  (504) 
nan

>  <Peripheral>  (504) 
nan

>  <Num_H_Atoms_ProtBoundConf>  (504) 
nan

>  <Num_Resolved_Atoms>  (504) 
nan

>  <Num_Not_Resolved_Atoms>  (504) 
nan

$$$$
CHEMBL4066764
     RDKit          3D

  0  0  0  0  0  0  0  0  0  0999 V3000
M  V30 BEGIN CTAB
M  V30 COUNTS 46 48 0 0 0
M  V30 BEGIN ATOM
M  V30 1 C 0.197426 -5.269330 -0.422412 0
M  V30 2 C -0.063040 -3.888816 -0.955710 0
M  V30 3 C -1.481804 -3.570861 -0.657798 0
M  V30 4 C 0.637555 -2.953063 -1.590961 0
M  V30 5 C 0.595836 -1.572875 -2.192132 0
M  V30 6 C 1.907577 -1.048449 -1.659131 0
M  V30 7 C 2.304596 0.283959 -2.186223 0
M  V30 8 O 3.643101 0.501021 -1.863113 0
M  V30 9 C 2.103311 -1.229859 -0.199923 0
M  V30 10 O 1.484872 -0.422623 0.699848 0
M  V30 11 C 0.250052 -0.134250 1.101966 0
M  V30 12 O -0.760507 -0.677802 0.623129 0
M  V30 13 C 0.029156 0.868941 2.160140 0
M  V30 14 C 0.993111 1.609179 2.846666 0
M  V30 15 N 0.370876 2.411996 3.730737 0
M  V30 16 C 1.088475 3.327265 4.619252 0
M  V30 17 C -0.967459 2.210453 3.633821 0
M  V30 18 C -2.006695 2.799552 4.331291 0
M  V30 19 C -3.292940 2.400069 4.024886 0
M  V30 20 C -3.551426 1.450562 3.062463 0
M  V30 21 C -2.500512 0.872414 2.375363 0
M  V30 22 C -1.200465 1.252017 2.660011 0
M  V30 23 O 2.763237 -2.064211 -2.286229 0
M  V30 24 C 2.061499 -3.238989 -1.915183 0
M  V30 25 O 2.713065 -4.342531 -1.907372 0
M  V30 26 H -0.488046 -5.973194 -0.888302 0
M  V30 27 H 1.230227 -5.606848 -0.622385 0
M  V30 28 H 0.023077 -5.262356 0.692647 0
M  V30 29 H -1.690066 -3.669636 0.430540 0
M  V30 30 H -2.109605 -4.330017 -1.187515 0
M  V30 31 H -1.797449 -2.587479 -1.058209 0
M  V30 32 H 0.739856 -1.663696 -3.302182 0
M  V30 33 H -0.253418 -0.976772 -1.922431 0
M  V30 34 H 1.633967 1.058952 -1.820321 0
M  V30 35 H 2.282457 0.209974 -3.302504 0
M  V30 36 H 4.185479 -0.081035 -2.459420 0
M  V30 37 H 3.214194 -1.173309 0.039616 0
M  V30 38 H 1.916120 -2.346259 0.004715 0
M  V30 39 H 2.043646 1.470576 2.615137 0
M  V30 40 H 1.668190 4.063757 4.015915 0
M  V30 41 H 0.361492 3.808439 5.291768 0
M  V30 42 H 1.846855 2.780310 5.234972 0
M  V30 43 H -1.813863 3.557319 5.100488 0
M  V30 44 H -4.132114 2.837015 4.547934 0
M  V30 45 H -4.573170 1.138809 2.824843 0
M  V30 46 H -2.718432 0.125213 1.619209 0
M  V30 END ATOM
M  V30 BEGIN BOND
M  V30 1 1 1 2
M  V30 2 1 2 3
M  V30 3 2 2 4 CFG=2
M  V30 4 1 4 5
M  V30 5 1 5 6
M  V30 6 1 6 7
M  V30 7 1 7 8
M  V30 8 1 6 9
M  V30 9 1 9 10
M  V30 10 1 10 11
M  V30 11 2 11 12
M  V30 12 1 11 13
M  V30 13 2 13 14
M  V30 14 1 14 15
M  V30 15 1 15 16
M  V30 16 1 15 17
M  V30 17 2 17 18
M  V30 18 1 18 19
M  V30 19 2 19 20
M  V30 20 1 20 21
M  V30 21 2 21 22
M  V30 22 1 6 23
M  V30 23 1 23 24
M  V30 24 2 24 25
M  V30 25 1 24 4
M  V30 26 1 22 13
M  V30 27 1 22 17
M  V30 28 1 1 26
M  V30 29 1 1 27
M  V30 30 1 1 28
M  V30 31 1 3 29
M  V30 32 1 3 30
M  V30 33 1 3 31
M  V30 34 1 5 32
M  V30 35 1 5 33
M  V30 36 1 7 34
M  V30 37 1 7 35
M  V30 38 1 8 36
M  V30 39 1 9 37
M  V30 40 1 9 38
M  V30 41 1 14 39
M  V30 42 1 16 40
M  V30 43 1 16 41
M  V30 44 1 16 42
M  V30 45 1 18 43
M  V30 46 1 19 44
M  V30 47 1 20 45
M  V30 48 1 21 46
M  V30 END BOND
M  V30 END CTAB
M  END
>  <Dataset>  (505) 
ChEMBL_Kinases

>  <Ligand_Instance>  (505) 
nan

>  <PDB_ID>  (505) 
nan

>  <Standardized_SMILES>  (505) 
CC(C)=C1CC(CO)(COC(=O)c2cn(C)c3ccccc23)OC1=O

>  <Name>  (505) 
nan

>  <Pocket>  (505) 
nan

>  <ATP_Site>  (505) 
nan

>  <Peripheral>  (505) 
nan

>  <Num_H_Atoms_ProtBoundConf>  (505) 
nan

>  <Num_Resolved_Atoms>  (505) 
nan

>  <Num_Not_Resolved_Atoms>  (505) 
nan

$$$$
CHEMBL4066691
     RDKit          3D

  0  0  0  0  0  0  0  0  0  0999 V3000
M  V30 BEGIN CTAB
M  V30 COUNTS 74 78 0 0 0
M  V30 BEGIN ATOM
M  V30 1 C 2.966206 -7.241988 -2.832162 0
M  V30 2 C 2.153168 -6.539651 -3.860170 0
M  V30 3 C 2.614363 -5.188143 -4.194002 0
M  V30 4 O 3.659811 -4.914128 -3.520050 0
M  V30 5 N 1.943303 -4.389131 -5.125339 0
M  V30 6 C 2.270399 -3.041179 -5.550541 0
M  V30 7 C 3.071966 -2.742202 -6.623054 0
M  V30 8 C 3.347996 -1.442066 -6.975270 0
M  V30 9 C 2.792682 -0.427669 -6.219606 0
M  V30 10 C 1.985701 -0.747952 -5.145508 0
M  V30 11 C 1.365544 0.271854 -4.291971 0
M  V30 12 O 0.403207 -0.058767 -3.517051 0
M  V30 13 N 1.524502 1.678813 -4.021231 0
M  V30 14 C 0.506369 1.806446 -3.045921 0
M  V30 15 C -0.790533 2.043794 -3.397236 0
M  V30 16 C -1.676650 2.116545 -2.332470 0
M  V30 17 C -1.185071 1.944818 -1.038962 0
M  V30 18 N -1.991815 1.951800 0.089037 0
M  V30 19 C -2.788553 1.927543 1.182990 0
M  V30 20 C -2.183721 1.748313 2.434774 0
M  V30 21 C -2.899651 1.676080 3.624171 0
M  V30 22 C -2.237655 1.472877 4.904866 0
M  V30 23 C -1.781353 0.189196 5.102526 0
M  V30 24 C -1.685822 -1.138082 4.491651 0
M  V30 25 C -0.462637 -1.741666 4.289116 0
M  V30 26 C -0.264047 -2.976672 3.740838 0
M  V30 27 C -1.436443 -3.650103 3.366105 0
M  V30 28 F -1.275809 -4.877788 2.816733 0
M  V30 29 C -2.670731 -3.060669 3.559062 0
M  V30 30 C -2.823250 -1.810287 4.117321 0
M  V30 31 N -1.214977 0.210932 6.329846 0
M  V30 32 C -1.306469 1.438372 6.879006 0
M  V30 33 S -0.688424 1.909444 8.492997 0
M  V30 34 C 1.062646 2.424532 8.345758 0
M  V30 35 N -1.937111 2.177957 5.981212 0
M  V30 36 C -2.306289 3.560067 6.047916 0
M  V30 37 C -4.254792 1.803429 3.403112 0
M  V30 38 C -4.934577 1.982160 2.230423 0
M  V30 39 N -4.158334 2.035319 1.176490 0
M  V30 40 C 0.159092 1.702303 -0.733680 0
M  V30 41 C 1.086378 1.624496 -1.783855 0
M  V30 42 C 1.674992 -2.056281 -4.743122 0
M  V30 43 C 0.843018 -2.403636 -3.585985 0
M  V30 44 H 4.041074 -7.300723 -3.040217 0
M  V30 45 H 2.618626 -8.305293 -2.819862 0
M  V30 46 H 2.724422 -6.884052 -1.790780 0
M  V30 47 H 2.124415 -7.188761 -4.751923 0
M  V30 48 H 1.117279 -6.440040 -3.392747 0
M  V30 49 H 1.076139 -4.749527 -5.627131 0
M  V30 50 H 3.492981 -3.593456 -7.189357 0
M  V30 51 H 3.979238 -1.213813 -7.802803 0
M  V30 52 H 2.970057 0.646683 -6.444546 0
M  V30 53 H 2.306020 2.034716 -4.617379 0
M  V30 54 H -1.068665 2.170918 -4.425801 0
M  V30 55 H -2.708797 2.293011 -2.518754 0
M  V30 56 H -2.244618 0.909097 -0.083367 0
M  V30 57 H -1.101764 1.654131 2.472151 0
M  V30 58 H 0.405871 -1.174364 4.604708 0
M  V30 59 H 0.735030 -3.367908 3.616345 0
M  V30 60 H -3.530643 -3.663651 3.223614 0
M  V30 61 H -3.817826 -1.397477 4.246813 0
M  V30 62 H 1.287487 2.649830 7.281097 0
M  V30 63 H 1.740810 1.624361 8.723814 0
M  V30 64 H 1.203456 3.335747 8.916329 0
M  V30 65 H -1.880156 4.116883 5.198925 0
M  V30 66 H -3.422103 3.667314 5.933408 0
M  V30 67 H -2.001530 4.020188 7.025430 0
M  V30 68 H -4.854172 1.760275 4.330435 0
M  V30 69 H -6.004596 2.073761 2.189070 0
M  V30 70 H 0.505607 1.568776 0.292423 0
M  V30 71 H 2.120376 1.452203 -1.572928 0
M  V30 72 H 1.251737 -2.011150 -2.627371 0
M  V30 73 H 0.908262 -3.532872 -3.452924 0
M  V30 74 H -0.214429 -2.219043 -3.773969 0
M  V30 END ATOM
M  V30 BEGIN BOND
M  V30 1 1 1 2
M  V30 2 1 2 3
M  V30 3 2 3 4
M  V30 4 1 3 5
M  V30 5 1 5 6
M  V30 6 2 6 7
M  V30 7 1 7 8
M  V30 8 2 8 9
M  V30 9 1 9 10
M  V30 10 1 10 11
M  V30 11 2 11 12
M  V30 12 1 11 13
M  V30 13 1 13 14
M  V30 14 2 14 15
M  V30 15 1 15 16
M  V30 16 2 16 17
M  V30 17 1 17 18
M  V30 18 1 18 19
M  V30 19 2 19 20
M  V30 20 1 20 21
M  V30 21 1 21 22
M  V30 22 2 22 23
M  V30 23 1 23 24
M  V30 24 2 24 25
M  V30 25 1 25 26
M  V30 26 2 26 27
M  V30 27 1 27 28
M  V30 28 1 27 29
M  V30 29 2 29 30
M  V30 30 1 23 31
M  V30 31 2 31 32
M  V30 32 1 32 33
M  V30 33 1 33 34
M  V30 34 1 32 35
M  V30 35 1 35 36
M  V30 36 2 21 37
M  V30 37 1 37 38
M  V30 38 2 38 39
M  V30 39 1 17 40
M  V30 40 2 40 41
M  V30 41 2 10 42
M  V30 42 1 42 43
M  V30 43 1 42 6
M  V30 44 1 41 14
M  V30 45 1 39 19
M  V30 46 1 35 22
M  V30 47 1 30 24
M  V30 48 1 1 44
M  V30 49 1 1 45
M  V30 50 1 1 46
M  V30 51 1 2 47
M  V30 52 1 2 48
M  V30 53 1 5 49
M  V30 54 1 7 50
M  V30 55 1 8 51
M  V30 56 1 9 52
M  V30 57 1 13 53
M  V30 58 1 15 54
M  V30 59 1 16 55
M  V30 60 1 18 56
M  V30 61 1 20 57
M  V30 62 1 25 58
M  V30 63 1 26 59
M  V30 64 1 29 60
M  V30 65 1 30 61
M  V30 66 1 34 62
M  V30 67 1 34 63
M  V30 68 1 34 64
M  V30 69 1 36 65
M  V30 70 1 36 66
M  V30 71 1 36 67
M  V30 72 1 37 68
M  V30 73 1 38 69
M  V30 74 1 40 70
M  V30 75 1 41 71
M  V30 76 1 43 72
M  V30 77 1 43 73
M  V30 78 1 43 74
M  V30 END BOND
M  V30 END CTAB
M  END
>  <Dataset>  (506) 
ChEMBL_Kinases

>  <Ligand_Instance>  (506) 
nan

>  <PDB_ID>  (506) 
nan

>  <Standardized_SMILES>  (506) 
CCC(=O)Nc1cccc(C(=O)Nc2ccc(Nc3cc(-c4c(-c5ccc(F)cc5)nc(SC)n4C)ccn3)cc2)c1C

>  <Name>  (506) 
nan

>  <Pocket>  (506) 
nan

>  <ATP_Site>  (506) 
nan

>  <Peripheral>  (506) 
nan

>  <Num_H_Atoms_ProtBoundConf>  (506) 
nan

>  <Num_Resolved_Atoms>  (506) 
nan

>  <Num_Not_Resolved_Atoms>  (506) 
nan

$$$$
CHEMBL3655765
     RDKit          3D

  0  0  0  0  0  0  0  0  0  0999 V3000
M  V30 BEGIN CTAB
M  V30 COUNTS 55 57 0 0 0
M  V30 BEGIN ATOM
M  V30 1 C -0.959487 -3.637628 -1.168169 0
M  V30 2 C -1.317745 -4.518906 -0.008099 0
M  V30 3 C -0.759994 -4.044434 1.315998 0 CFG=2
M  V30 4 N -1.207038 -2.738982 1.698985 0
M  V30 5 C -1.121474 -1.437511 1.137960 0
M  V30 6 N -0.067754 -0.639264 1.433070 0
M  V30 7 C 0.066283 0.620420 0.925121 0
M  V30 8 N 1.220995 1.402840 1.294471 0
M  V30 9 C 2.287204 0.986002 2.167993 0
M  V30 10 C 3.281137 2.085551 2.283772 0
M  V30 11 C 4.329355 2.168804 1.420603 0
M  V30 12 C 5.301982 3.172197 1.467777 0
M  V30 13 C 5.172699 4.138252 2.468259 0
M  V30 14 C 4.106510 4.073016 3.364032 0
M  V30 15 F 4.065480 5.057721 4.302619 0
M  V30 16 C 3.175885 3.047322 3.258774 0
M  V30 17 C -0.937211 1.055264 0.081192 0
M  V30 18 N -1.067585 2.233326 -0.556764 0
M  V30 19 C -2.227687 2.185890 -1.273440 0
M  V30 20 N -2.771436 0.956441 -1.040775 0
M  V30 21 C -4.012954 0.461723 -1.599060 0
M  V30 22 C -4.799745 -0.378464 -0.642205 0
M  V30 23 C -3.774001 -0.279463 -2.908031 0
M  V30 24 C -1.997883 0.218488 -0.200244 0
M  V30 25 N -2.109718 -1.007169 0.305849 0
M  V30 26 C 0.743094 -4.224159 1.363006 0 CFG=1
M  V30 27 C 1.050809 -5.640568 0.926191 0
M  V30 28 O 1.439468 -3.369077 0.538115 0
M  V30 29 H -0.329642 -2.787269 -0.916793 0
M  V30 30 H -0.386166 -4.227478 -1.942124 0
M  V30 31 H -1.909007 -3.262293 -1.608889 0
M  V30 32 H -0.921582 -5.532962 -0.183451 0
M  V30 33 H -2.414004 -4.642200 0.124030 0
M  V30 34 H -1.172662 -4.747986 2.071672 0
M  V30 35 H -1.746319 -2.512017 2.585652 0
M  V30 36 H 1.231584 2.368411 0.850188 0
M  V30 37 H 2.802514 0.097965 1.727219 0
M  V30 38 H 1.858468 0.678407 3.142925 0
M  V30 39 H 4.432713 1.425174 0.646819 0
M  V30 40 H 6.127883 3.203217 0.756211 0
M  V30 41 H 5.905631 4.936602 2.542718 0
M  V30 42 H 2.355433 3.037146 3.984822 0
M  V30 43 H -2.654565 2.938439 -1.900067 0
M  V30 44 H -4.635006 1.348194 -1.846405 0
M  V30 45 H -4.720178 -1.460216 -0.947581 0
M  V30 46 H -4.493191 -0.243526 0.420941 0
M  V30 47 H -5.895707 -0.180103 -0.665382 0
M  V30 48 H -4.352074 -1.225781 -2.948119 0
M  V30 49 H -4.055587 0.317174 -3.793244 0
M  V30 50 H -2.684223 -0.501308 -3.025169 0
M  V30 51 H 1.117908 -4.094964 2.389603 0
M  V30 52 H 0.282305 -6.367184 1.257353 0
M  V30 53 H 1.282460 -5.684303 -0.156962 0
M  V30 54 H 1.998137 -5.937150 1.434234 0
M  V30 55 H 1.810771 -3.832556 -0.249949 0
M  V30 END ATOM
M  V30 BEGIN BOND
M  V30 1 1 1 2
M  V30 2 1 2 3
M  V30 3 1 3 4
M  V30 4 1 4 5
M  V30 5 2 5 6
M  V30 6 1 6 7
M  V30 7 1 7 8
M  V30 8 1 8 9
M  V30 9 1 9 10
M  V30 10 2 10 11
M  V30 11 1 11 12
M  V30 12 2 12 13
M  V30 13 1 13 14
M  V30 14 1 14 15
M  V30 15 2 14 16
M  V30 16 2 7 17
M  V30 17 1 17 18
M  V30 18 2 18 19
M  V30 19 1 19 20
M  V30 20 1 20 21
M  V30 21 1 21 22
M  V30 22 1 21 23
M  V30 23 1 20 24
M  V30 24 2 24 25
M  V30 25 1 3 26
M  V30 26 1 26 27
M  V30 27 1 26 28
M  V30 28 1 25 5
M  V30 29 1 16 10
M  V30 30 1 24 17
M  V30 31 1 1 29
M  V30 32 1 1 30
M  V30 33 1 1 31
M  V30 34 1 2 32
M  V30 35 1 2 33
M  V30 36 1 3 34 CFG=1
M  V30 37 1 4 35
M  V30 38 1 8 36
M  V30 39 1 9 37
M  V30 40 1 9 38
M  V30 41 1 11 39
M  V30 42 1 12 40
M  V30 43 1 13 41
M  V30 44 1 16 42
M  V30 45 1 19 43
M  V30 46 1 21 44
M  V30 47 1 22 45
M  V30 48 1 22 46
M  V30 49 1 22 47
M  V30 50 1 23 48
M  V30 51 1 23 49
M  V30 52 1 23 50
M  V30 53 1 26 51 CFG=1
M  V30 54 1 27 52
M  V30 55 1 27 53
M  V30 56 1 27 54
M  V30 57 1 28 55
M  V30 END BOND
M  V30 END CTAB
M  END
>  <Dataset>  (507) 
ChEMBL_Kinases

>  <Ligand_Instance>  (507) 
nan

>  <PDB_ID>  (507) 
nan

>  <Standardized_SMILES>  (507) 
CC[C@H](Nc1nc(NCc2cccc(F)c2)c2ncn(C(C)C)c2n1)[C@@H](C)O

>  <Name>  (507) 
nan

>  <Pocket>  (507) 
nan

>  <ATP_Site>  (507) 
nan

>  <Peripheral>  (507) 
nan

>  <Num_H_Atoms_ProtBoundConf>  (507) 
nan

>  <Num_Resolved_Atoms>  (507) 
nan

>  <Num_Not_Resolved_Atoms>  (507) 
nan

$$$$
CHEMBL3655764
     RDKit          3D

  0  0  0  0  0  0  0  0  0  0999 V3000
M  V30 BEGIN CTAB
M  V30 COUNTS 55 57 0 0 0
M  V30 BEGIN ATOM
M  V30 1 C -1.812292 -3.331576 -0.783385 0
M  V30 2 C -1.798576 -4.308219 0.339831 0
M  V30 3 C -0.776283 -4.053540 1.405896 0 CFG=2
M  V30 4 N -0.900148 -2.793796 2.073501 0
M  V30 5 C -0.840325 -1.478985 1.537187 0
M  V30 6 N 0.327212 -0.782984 1.432478 0
M  V30 7 C 0.401180 0.461501 0.928174 0
M  V30 8 N 1.636826 1.165298 0.831146 0
M  V30 9 C 2.909660 0.610845 1.261309 0
M  V30 10 C 3.971678 1.618139 1.010995 0
M  V30 11 C 4.662664 1.675507 -0.173822 0
M  V30 12 C 5.632847 2.645850 -0.316836 0
M  V30 13 C 5.914116 3.542140 0.692619 0
M  V30 14 C 5.229196 3.510326 1.909844 0
M  V30 15 Cl 5.554187 4.625773 3.212559 0
M  V30 16 C 4.254685 2.511957 2.012990 0
M  V30 17 C -0.813747 1.008352 0.510145 0
M  V30 18 N -1.045454 2.211934 -0.025352 0
M  V30 19 C -2.350892 2.327679 -0.278922 0
M  V30 20 N -2.905303 1.160327 0.117760 0
M  V30 21 C -4.329242 0.906443 -0.001241 0
M  V30 22 C -4.799995 -0.224072 0.883897 0
M  V30 23 C -4.733727 0.678394 -1.438618 0
M  V30 24 C -1.995302 0.304565 0.615872 0
M  V30 25 N -2.005613 -0.919980 1.121938 0
M  V30 26 C 0.629804 -4.313450 0.903939 0 CFG=1
M  V30 27 C 0.670702 -5.671234 0.253682 0
M  V30 28 O 1.089925 -3.385202 0.005507 0
M  V30 29 H -0.969223 -2.633811 -0.833691 0
M  V30 30 H -1.809527 -3.876093 -1.773217 0
M  V30 31 H -2.802845 -2.810683 -0.782231 0
M  V30 32 H -1.636068 -5.333537 -0.031270 0
M  V30 33 H -2.791780 -4.341662 0.875826 0
M  V30 34 H -0.947276 -4.833128 2.182955 0
M  V30 35 H -1.060829 -2.570587 3.096550 0
M  V30 36 H 1.580828 2.137615 0.419441 0
M  V30 37 H 3.145398 -0.279823 0.643189 0
M  V30 38 H 2.835293 0.352384 2.331237 0
M  V30 39 H 4.399453 0.949440 -0.925874 0
M  V30 40 H 6.178883 2.695993 -1.244913 0
M  V30 41 H 6.660826 4.314323 0.625947 0
M  V30 42 H 3.706370 2.473650 2.965588 0
M  V30 43 H -2.851674 3.179277 -0.710866 0
M  V30 44 H -4.851708 1.828492 0.328419 0
M  V30 45 H -4.819440 -1.135708 0.242094 0
M  V30 46 H -4.217672 -0.348680 1.799062 0
M  V30 47 H -5.863351 -0.062626 1.205532 0
M  V30 48 H -5.067445 -0.376692 -1.629705 0
M  V30 49 H -5.572412 1.327731 -1.750564 0
M  V30 50 H -3.905389 0.886771 -2.163357 0
M  V30 51 H 1.325284 -4.315843 1.774004 0
M  V30 52 H 0.034361 -6.412707 0.777316 0
M  V30 53 H 0.470072 -5.622522 -0.832313 0
M  V30 54 H 1.714192 -6.052154 0.364496 0
M  V30 55 H 1.282976 -3.782348 -0.889504 0
M  V30 END ATOM
M  V30 BEGIN BOND
M  V30 1 1 1 2
M  V30 2 1 2 3
M  V30 3 1 3 4
M  V30 4 1 4 5
M  V30 5 2 5 6
M  V30 6 1 6 7
M  V30 7 1 7 8
M  V30 8 1 8 9
M  V30 9 1 9 10
M  V30 10 2 10 11
M  V30 11 1 11 12
M  V30 12 2 12 13
M  V30 13 1 13 14
M  V30 14 1 14 15
M  V30 15 2 14 16
M  V30 16 2 7 17
M  V30 17 1 17 18
M  V30 18 2 18 19
M  V30 19 1 19 20
M  V30 20 1 20 21
M  V30 21 1 21 22
M  V30 22 1 21 23
M  V30 23 1 20 24
M  V30 24 2 24 25
M  V30 25 1 3 26
M  V30 26 1 26 27
M  V30 27 1 26 28
M  V30 28 1 25 5
M  V30 29 1 16 10
M  V30 30 1 24 17
M  V30 31 1 1 29
M  V30 32 1 1 30
M  V30 33 1 1 31
M  V30 34 1 2 32
M  V30 35 1 2 33
M  V30 36 1 3 34 CFG=1
M  V30 37 1 4 35
M  V30 38 1 8 36
M  V30 39 1 9 37
M  V30 40 1 9 38
M  V30 41 1 11 39
M  V30 42 1 12 40
M  V30 43 1 13 41
M  V30 44 1 16 42
M  V30 45 1 19 43
M  V30 46 1 21 44
M  V30 47 1 22 45
M  V30 48 1 22 46
M  V30 49 1 22 47
M  V30 50 1 23 48
M  V30 51 1 23 49
M  V30 52 1 23 50
M  V30 53 1 26 51 CFG=1
M  V30 54 1 27 52
M  V30 55 1 27 53
M  V30 56 1 27 54
M  V30 57 1 28 55
M  V30 END BOND
M  V30 END CTAB
M  END
>  <Dataset>  (508) 
ChEMBL_Kinases

>  <Ligand_Instance>  (508) 
nan

>  <PDB_ID>  (508) 
nan

>  <Standardized_SMILES>  (508) 
CC[C@H](Nc1nc(NCc2cccc(Cl)c2)c2ncn(C(C)C)c2n1)[C@@H](C)O

>  <Name>  (508) 
nan

>  <Pocket>  (508) 
nan

>  <ATP_Site>  (508) 
nan

>  <Peripheral>  (508) 
nan

>  <Num_H_Atoms_ProtBoundConf>  (508) 
nan

>  <Num_Resolved_Atoms>  (508) 
nan

>  <Num_Not_Resolved_Atoms>  (508) 
nan

$$$$
CHEMBL4066075
     RDKit          3D

  0  0  0  0  0  0  0  0  0  0999 V3000
M  V30 BEGIN CTAB
M  V30 COUNTS 28 30 0 0 0
M  V30 BEGIN ATOM
M  V30 1 N 2.959403 -5.094956 3.319427 0
M  V30 2 C 2.121659 -4.339148 3.031457 0
M  V30 3 C 1.072670 -3.408965 2.677788 0
M  V30 4 C -0.187360 -3.461870 3.252505 0
M  V30 5 C -1.164302 -2.545390 2.880265 0
M  V30 6 C -0.886087 -1.575628 1.935032 0
M  V30 7 C 0.380887 -1.576078 1.402967 0
M  V30 8 C 0.907571 -0.719805 0.450259 0
M  V30 9 C 0.370566 0.399512 -0.280122 0
M  V30 10 C 0.621636 0.475563 -1.650380 0
M  V30 11 C 0.155893 1.504885 -2.451006 0
M  V30 12 N -0.573801 2.479270 -1.882516 0
M  V30 13 C -0.858728 2.471017 -0.550391 0
M  V30 14 N -1.633576 3.515874 0.024191 0
M  V30 15 C -0.377063 1.428177 0.215719 0
M  V30 16 C 2.220859 -1.136641 0.254391 0
M  V30 17 N 2.504152 -2.191331 1.036186 0
M  V30 18 C 1.388770 -2.463826 1.737665 0
M  V30 19 H -0.351729 -4.241169 3.987211 0
M  V30 20 H -2.134593 -2.592184 3.328004 0
M  V30 21 H -1.628967 -0.839588 1.618547 0
M  V30 22 H 1.218227 -0.321945 -2.112751 0
M  V30 23 H 0.410304 1.463974 -3.502573 0
M  V30 24 H -1.524905 4.470035 0.454240 0
M  V30 25 H -2.605544 3.099911 -0.056066 0
M  V30 26 H -0.593041 1.400878 1.285558 0
M  V30 27 H 2.980366 -0.730315 -0.411844 0
M  V30 28 H 3.412339 -2.723245 1.108849 0
M  V30 END ATOM
M  V30 BEGIN BOND
M  V30 1 3 1 2
M  V30 2 1 2 3
M  V30 3 2 3 4
M  V30 4 1 4 5
M  V30 5 2 5 6
M  V30 6 1 6 7
M  V30 7 1 7 8
M  V30 8 1 8 9
M  V30 9 2 9 10
M  V30 10 1 10 11
M  V30 11 2 11 12
M  V30 12 1 12 13
M  V30 13 1 13 14
M  V30 14 2 13 15
M  V30 15 2 8 16
M  V30 16 1 16 17
M  V30 17 1 17 18
M  V30 18 1 18 3
M  V30 19 2 18 7
M  V30 20 1 15 9
M  V30 21 1 4 19
M  V30 22 1 5 20
M  V30 23 1 6 21
M  V30 24 1 10 22
M  V30 25 1 11 23
M  V30 26 1 14 24
M  V30 27 1 14 25
M  V30 28 1 15 26
M  V30 29 1 16 27
M  V30 30 1 17 28
M  V30 END BOND
M  V30 END CTAB
M  END
>  <Dataset>  (509) 
ChEMBL_Kinases

>  <Ligand_Instance>  (509) 
nan

>  <PDB_ID>  (509) 
nan

>  <Standardized_SMILES>  (509) 
N#Cc1cccc2c(-c3ccnc(N)c3)c[nH]c12

>  <Name>  (509) 
nan

>  <Pocket>  (509) 
nan

>  <ATP_Site>  (509) 
nan

>  <Peripheral>  (509) 
nan

>  <Num_H_Atoms_ProtBoundConf>  (509) 
nan

>  <Num_Resolved_Atoms>  (509) 
nan

>  <Num_Not_Resolved_Atoms>  (509) 
nan

$$$$
CHEMBL3655769
     RDKit          3D

  0  0  0  0  0  0  0  0  0  0999 V3000
M  V30 BEGIN CTAB
M  V30 COUNTS 52 54 0 0 0
M  V30 BEGIN ATOM
M  V30 1 C -0.690767 -4.767801 2.578430 0
M  V30 2 C 0.104720 -3.571354 2.101568 0
M  V30 3 C 0.235838 -3.683611 0.594849 0 CFG=2
M  V30 4 N 0.998885 -2.534433 0.151062 0
M  V30 5 C 0.610092 -1.181364 0.335887 0
M  V30 6 N 1.408727 -0.172862 -0.122746 0
M  V30 7 C 1.077585 1.119644 0.031342 0
M  V30 8 N 1.957979 2.119387 -0.472002 0
M  V30 9 C 3.160111 1.673610 -1.121137 0
M  V30 10 C 4.087699 2.717356 -1.651538 0
M  V30 11 C 5.236997 1.806372 -1.202346 0
M  V30 12 C 4.271716 1.238261 -0.180583 0
M  V30 13 C -0.088770 1.493917 0.662194 0
M  V30 14 N -0.668890 2.677775 0.954909 0
M  V30 15 C -1.825215 2.416119 1.593660 0
M  V30 16 N -1.951874 1.060898 1.691610 0
M  V30 17 C -3.042733 0.329265 2.304364 0
M  V30 18 C -3.871439 -0.251756 1.167775 0
M  V30 19 C -3.861939 1.310550 3.110015 0
M  V30 20 C -0.873231 0.456446 1.113673 0
M  V30 21 N -0.510403 -0.825413 0.942004 0
M  V30 22 C -1.104104 -3.639194 -0.101370 0 CFG=1
M  V30 23 C -0.869416 -3.731560 -1.584401 0
M  V30 24 O -1.908184 -4.717141 0.269861 0
M  V30 25 H -1.757451 -4.468660 2.592904 0
M  V30 26 H -0.469498 -5.603203 1.888328 0
M  V30 27 H -0.335970 -4.989127 3.620333 0
M  V30 28 H 1.131593 -3.614486 2.518206 0
M  V30 29 H -0.379147 -2.657443 2.436162 0
M  V30 30 H 0.738574 -4.618816 0.319259 0
M  V30 31 H 1.917103 -2.723507 -0.349457 0
M  V30 32 H 1.722740 3.137191 -0.364575 0
M  V30 33 H 2.966908 0.885596 -1.899687 0
M  V30 34 H 4.145311 3.644134 -1.047554 0
M  V30 35 H 4.110985 2.829441 -2.740688 0
M  V30 36 H 5.451330 0.991586 -1.950121 0
M  V30 37 H 6.115287 2.323672 -0.803014 0
M  V30 38 H 4.351538 0.150177 0.002181 0
M  V30 39 H 4.223951 1.840471 0.752739 0
M  V30 40 H -2.515678 3.159515 1.956095 0
M  V30 41 H -2.706521 -0.488297 2.955680 0
M  V30 42 H -4.749507 -0.817410 1.559322 0
M  V30 43 H -3.237930 -0.963720 0.634837 0
M  V30 44 H -4.188127 0.605147 0.516053 0
M  V30 45 H -3.190299 1.739867 3.881135 0
M  V30 46 H -4.751287 0.866974 3.573015 0
M  V30 47 H -4.229050 2.120192 2.446396 0
M  V30 48 H -1.669938 -2.704156 0.080491 0
M  V30 49 H -0.377998 -4.705182 -1.780790 0
M  V30 50 H -1.795049 -3.727187 -2.174090 0
M  V30 51 H -0.177815 -2.951761 -1.956333 0
M  V30 52 H -2.863100 -4.500664 0.149780 0
M  V30 END ATOM
M  V30 BEGIN BOND
M  V30 1 1 1 2
M  V30 2 1 2 3
M  V30 3 1 3 4
M  V30 4 1 4 5
M  V30 5 2 5 6
M  V30 6 1 6 7
M  V30 7 1 7 8
M  V30 8 1 8 9
M  V30 9 1 9 10
M  V30 10 1 10 11
M  V30 11 1 11 12
M  V30 12 2 7 13
M  V30 13 1 13 14
M  V30 14 2 14 15
M  V30 15 1 15 16
M  V30 16 1 16 17
M  V30 17 1 17 18
M  V30 18 1 17 19
M  V30 19 1 16 20
M  V30 20 2 20 21
M  V30 21 1 3 22
M  V30 22 1 22 23
M  V30 23 1 22 24
M  V30 24 1 21 5
M  V30 25 1 12 9
M  V30 26 1 20 13
M  V30 27 1 1 25
M  V30 28 1 1 26
M  V30 29 1 1 27
M  V30 30 1 2 28
M  V30 31 1 2 29
M  V30 32 1 3 30 CFG=1
M  V30 33 1 4 31
M  V30 34 1 8 32
M  V30 35 1 9 33
M  V30 36 1 10 34
M  V30 37 1 10 35
M  V30 38 1 11 36
M  V30 39 1 11 37
M  V30 40 1 12 38
M  V30 41 1 12 39
M  V30 42 1 15 40
M  V30 43 1 17 41
M  V30 44 1 18 42
M  V30 45 1 18 43
M  V30 46 1 18 44
M  V30 47 1 19 45
M  V30 48 1 19 46
M  V30 49 1 19 47
M  V30 50 1 22 48 CFG=3
M  V30 51 1 23 49
M  V30 52 1 23 50
M  V30 53 1 23 51
M  V30 54 1 24 52
M  V30 END BOND
M  V30 END CTAB
M  END
>  <Dataset>  (510) 
ChEMBL_Kinases

>  <Ligand_Instance>  (510) 
nan

>  <PDB_ID>  (510) 
nan

>  <Standardized_SMILES>  (510) 
CC[C@H](Nc1nc(NC2CCC2)c2ncn(C(C)C)c2n1)[C@@H](C)O

>  <Name>  (510) 
nan

>  <Pocket>  (510) 
nan

>  <ATP_Site>  (510) 
nan

>  <Peripheral>  (510) 
nan

>  <Num_H_Atoms_ProtBoundConf>  (510) 
nan

>  <Num_Resolved_Atoms>  (510) 
nan

>  <Num_Not_Resolved_Atoms>  (510) 
nan

$$$$
CHEMBL4070999
     RDKit          3D

  0  0  0  0  0  0  0  0  0  0999 V3000
M  V30 BEGIN CTAB
M  V30 COUNTS 64 66 0 0 0
M  V30 BEGIN ATOM
M  V30 1 C 0.724626 -1.164011 5.750776 0
M  V30 2 C 1.643419 -0.727245 4.686211 0
M  V30 3 C 2.161970 -1.967713 3.972315 0
M  V30 4 C 1.127800 0.292248 3.682820 0
M  V30 5 C 2.323674 0.464359 2.754996 0
M  V30 6 C 2.227433 1.368155 1.651458 0
M  V30 7 C 2.245704 0.982840 0.356815 0
M  V30 8 C 2.159308 1.759618 -0.933293 0
M  V30 9 C 1.412678 0.774381 -1.805829 0
M  V30 10 C 1.440334 1.131483 -3.259462 0
M  V30 11 O 0.740820 2.316317 -3.455053 0
M  V30 12 C 0.016304 0.675451 -1.228587 0
M  V30 13 O -0.635873 -0.416649 -1.803033 0
M  V30 14 C -1.957040 -0.671006 -1.386604 0
M  V30 15 O -2.488851 0.093737 -0.519247 0
M  V30 16 C -2.648939 -1.810288 -1.980361 0
M  V30 17 C -3.934294 -2.205095 -1.694109 0
M  V30 18 N -4.259205 -3.298395 -2.423424 0
M  V30 19 C -5.521962 -4.015073 -2.407535 0
M  V30 20 C -3.178523 -3.612086 -3.185064 0
M  V30 21 C -2.951174 -4.632270 -4.115228 0
M  V30 22 C -1.712011 -4.690186 -4.745039 0
M  V30 23 C -0.689479 -3.779560 -4.491400 0
M  V30 24 C -0.965163 -2.797421 -3.569188 0
M  V30 25 C -2.173732 -2.705078 -2.925993 0
M  V30 26 O 2.106395 -0.430695 -1.503358 0
M  V30 27 C 2.357063 -0.397782 -0.119479 0
M  V30 28 O 2.623182 -1.427141 0.518661 0
M  V30 29 C 0.670702 1.575361 4.279941 0
M  V30 30 C -0.451372 1.457751 5.283661 0
M  V30 31 C 0.207424 2.584458 3.245821 0
M  V30 32 H -0.218914 -1.642647 5.413057 0
M  V30 33 H 1.260590 -2.058181 6.240366 0
M  V30 34 H 0.616872 -0.477791 6.610724 0
M  V30 35 H 2.557929 -0.322641 5.217916 0
M  V30 36 H 1.648087 -2.173958 3.022817 0
M  V30 37 H 3.269346 -1.974075 3.864316 0
M  V30 38 H 1.957884 -2.884763 4.602831 0
M  V30 39 H 0.256767 -0.178116 3.181199 0
M  V30 40 H 3.105105 0.901286 3.479815 0
M  V30 41 H 2.732674 -0.529768 2.554982 0
M  V30 42 H 2.156335 2.445887 1.646350 0
M  V30 43 H 3.174138 1.928173 -1.350697 0
M  V30 44 H 1.581993 2.698670 -0.804327 0
M  V30 45 H 2.487485 1.209518 -3.560108 0
M  V30 46 H 0.901697 0.344891 -3.802771 0
M  V30 47 H -0.234387 2.094330 -3.465580 0
M  V30 48 H -0.545132 1.605413 -1.468531 0
M  V30 49 H 0.152817 0.586300 -0.119874 0
M  V30 50 H -4.599383 -1.723067 -0.992188 0
M  V30 51 H -5.561548 -4.675667 -1.512668 0
M  V30 52 H -5.647059 -4.578342 -3.346913 0
M  V30 53 H -6.380233 -3.329813 -2.314738 0
M  V30 54 H -3.741998 -5.331115 -4.307011 0
M  V30 55 H -1.520920 -5.469983 -5.464170 0
M  V30 56 H 0.267136 -3.870165 -5.014622 0
M  V30 57 H -0.163431 -2.086953 -3.373157 0
M  V30 58 H 1.511622 2.086741 4.826685 0
M  V30 59 H -0.133200 1.705120 6.331483 0
M  V30 60 H -1.027489 0.525613 5.211778 0
M  V30 61 H -1.239113 2.261182 5.095249 0
M  V30 62 H -0.798242 2.967221 3.615010 0
M  V30 63 H -0.056018 2.135106 2.272189 0
M  V30 64 H 0.817836 3.497752 3.212111 0
M  V30 END ATOM
M  V30 BEGIN BOND
M  V30 1 1 1 2
M  V30 2 1 2 3
M  V30 3 1 2 4
M  V30 4 1 4 5
M  V30 5 1 5 6
M  V30 6 2 6 7
M  V30 7 1 7 8
M  V30 8 1 8 9
M  V30 9 1 9 10
M  V30 10 1 10 11
M  V30 11 1 9 12
M  V30 12 1 12 13
M  V30 13 1 13 14
M  V30 14 2 14 15
M  V30 15 1 14 16
M  V30 16 2 16 17
M  V30 17 1 17 18
M  V30 18 1 18 19
M  V30 19 1 18 20
M  V30 20 2 20 21
M  V30 21 1 21 22
M  V30 22 2 22 23
M  V30 23 1 23 24
M  V30 24 2 24 25
M  V30 25 1 9 26
M  V30 26 1 26 27
M  V30 27 2 27 28
M  V30 28 1 4 29
M  V30 29 1 29 30
M  V30 30 1 29 31
M  V30 31 1 27 7
M  V30 32 1 25 16
M  V30 33 1 25 20
M  V30 34 1 1 32
M  V30 35 1 1 33
M  V30 36 1 1 34
M  V30 37 1 2 35
M  V30 38 1 3 36
M  V30 39 1 3 37
M  V30 40 1 3 38
M  V30 41 1 4 39
M  V30 42 1 5 40
M  V30 43 1 5 41
M  V30 44 1 6 42
M  V30 45 1 8 43
M  V30 46 1 8 44
M  V30 47 1 10 45
M  V30 48 1 10 46
M  V30 49 1 11 47
M  V30 50 1 12 48
M  V30 51 1 12 49
M  V30 52 1 17 50
M  V30 53 1 19 51
M  V30 54 1 19 52
M  V30 55 1 19 53
M  V30 56 1 21 54
M  V30 57 1 22 55
M  V30 58 1 23 56
M  V30 59 1 24 57
M  V30 60 1 29 58
M  V30 61 1 30 59
M  V30 62 1 30 60
M  V30 63 1 30 61
M  V30 64 1 31 62
M  V30 65 1 31 63
M  V30 66 1 31 64
M  V30 END BOND
M  V30 END CTAB
M  END
>  <Dataset>  (511) 
ChEMBL_Kinases

>  <Ligand_Instance>  (511) 
nan

>  <PDB_ID>  (511) 
nan

>  <Standardized_SMILES>  (511) 
CC(C)C(C/C=C1/CC(CO)(COC(=O)c2cn(C)c3ccccc23)OC1=O)C(C)C

>  <Name>  (511) 
nan

>  <Pocket>  (511) 
nan

>  <ATP_Site>  (511) 
nan

>  <Peripheral>  (511) 
nan

>  <Num_H_Atoms_ProtBoundConf>  (511) 
nan

>  <Num_Resolved_Atoms>  (511) 
nan

>  <Num_Not_Resolved_Atoms>  (511) 
nan

$$$$
CHEMBL3639908
     RDKit          3D

  0  0  0  0  0  0  0  0  0  0999 V3000
M  V30 BEGIN CTAB
M  V30 COUNTS 77 80 0 0 0
M  V30 BEGIN ATOM
M  V30 1 C 5.264543 -3.578117 1.833563 0
M  V30 2 O 4.307344 -2.631605 1.386576 0
M  V30 3 C 4.367897 -1.308390 1.766409 0
M  V30 4 O 5.243453 -0.806006 2.523118 0
M  V30 5 N 3.335296 -0.529861 1.221514 0
M  V30 6 C 3.077269 0.908768 1.402357 0 CFG=2
M  V30 7 C 1.787349 1.113770 2.137738 0 CFG=2
M  V30 8 N 1.603338 -0.012615 3.023931 0
M  V30 9 C 0.586525 1.191393 1.229257 0
M  V30 10 N 0.842630 2.146840 0.147173 0
M  V30 11 C -0.082633 3.019963 -0.548037 0
M  V30 12 C 0.128201 4.374671 -0.262621 0
M  V30 13 C -0.595935 5.442285 -0.801987 0
M  V30 14 N -1.581723 5.078559 -1.675702 0
M  V30 15 C -1.784308 3.778592 -1.948352 0
M  V30 16 C -1.088017 2.715710 -1.432384 0
M  V30 17 N -1.270251 1.362481 -1.748686 0
M  V30 18 C -1.943550 0.795250 -2.869790 0
M  V30 19 O -2.451569 1.585512 -3.739518 0
M  V30 20 C -2.111890 -0.628930 -3.133587 0
M  V30 21 N -1.883298 -1.602408 -2.254215 0
M  V30 22 C -2.047676 -2.917440 -2.481627 0
M  V30 23 C -1.830205 -3.867607 -1.404767 0
M  V30 24 C -1.806290 -3.371965 -0.121584 0
M  V30 25 C -1.595121 -4.203340 0.956831 0
M  V30 26 C -1.608559 -3.844909 2.375325 0
M  V30 27 O -1.262082 -4.547075 3.350852 0
M  V30 28 N -2.071479 -2.547526 2.739917 0
M  V30 29 C -2.237290 -1.854115 3.992730 0
M  V30 30 C -3.698870 -1.587755 4.297717 0
M  V30 31 C -1.453356 -0.563674 4.082919 0
M  V30 32 C -1.396194 -5.566849 0.791151 0
M  V30 33 C -1.414990 -6.098374 -0.504587 0
M  V30 34 C -1.632661 -5.214950 -1.537920 0
M  V30 35 F -1.636275 -5.771446 -2.765049 0
M  V30 36 C -2.484796 -3.226575 -3.731328 0
M  V30 37 C -2.759378 -2.315310 -4.733093 0
M  V30 38 C -2.563832 -0.968631 -4.413565 0
M  V30 39 N -2.849630 -0.008160 -5.453404 0
M  V30 40 C 2.125083 2.387714 -0.453236 0
M  V30 41 C 3.252366 1.670610 0.155024 0 CFG=2
M  V30 42 C 3.744761 0.667017 -0.912016 0
M  V30 43 H 5.594561 -3.350348 2.867115 0
M  V30 44 H 4.801605 -4.605769 1.857067 0
M  V30 45 H 6.143967 -3.616214 1.158397 0
M  V30 46 H 2.556506 -0.866817 0.576261 0
M  V30 47 H 3.877594 1.235073 2.104075 0
M  V30 48 H 1.771510 2.030913 2.763025 0
M  V30 49 H 2.291111 -0.763033 2.951371 0
M  V30 50 H 1.546178 0.274974 4.030611 0
M  V30 51 H 0.298881 0.205941 0.822926 0
M  V30 52 H -0.294126 1.578511 1.775901 0
M  V30 53 H 0.899613 4.711721 0.426658 0
M  V30 54 H -0.393890 6.466804 -0.547948 0
M  V30 55 H -2.584655 3.595739 -2.646582 0
M  V30 56 H -0.906269 0.590366 -1.153855 0
M  V30 57 H -1.944578 -2.323627 0.143246 0
M  V30 58 H -2.401374 -1.813218 2.067253 0
M  V30 59 H -1.884949 -2.517655 4.809669 0
M  V30 60 H -4.190594 -0.972622 3.539262 0
M  V30 61 H -4.170708 -2.570962 4.465822 0
M  V30 62 H -3.734109 -1.019615 5.246079 0
M  V30 63 H -2.082309 0.276080 4.452630 0
M  V30 64 H -1.171457 -0.261403 3.050349 0
M  V30 65 H -0.541123 -0.727982 4.660065 0
M  V30 66 H -1.221031 -6.291678 1.593651 0
M  V30 67 H -1.264979 -7.156533 -0.665414 0
M  V30 68 H -2.652348 -4.237352 -4.024973 0
M  V30 69 H -3.110112 -2.612636 -5.720565 0
M  V30 70 H -2.131166 0.434398 -6.086735 0
M  V30 71 H -3.864369 0.232904 -5.543122 0
M  V30 72 H 2.049979 2.249551 -1.569101 0
M  V30 73 H 2.317075 3.503183 -0.369686 0
M  V30 74 H 4.129327 2.394048 0.215739 0
M  V30 75 H 4.565150 0.053977 -0.523374 0
M  V30 76 H 4.146944 1.220625 -1.810539 0
M  V30 77 H 2.891688 0.074168 -1.296645 0
M  V30 END ATOM
M  V30 BEGIN BOND
M  V30 1 1 1 2
M  V30 2 1 2 3
M  V30 3 2 3 4
M  V30 4 1 3 5
M  V30 5 1 5 6
M  V30 6 1 6 7
M  V30 7 1 7 8
M  V30 8 1 7 9
M  V30 9 1 9 10
M  V30 10 1 10 11
M  V30 11 2 11 12
M  V30 12 1 12 13
M  V30 13 2 13 14
M  V30 14 1 14 15
M  V30 15 2 15 16
M  V30 16 1 16 17
M  V30 17 1 17 18
M  V30 18 2 18 19
M  V30 19 1 18 20
M  V30 20 2 20 21
M  V30 21 1 21 22
M  V30 22 1 22 23
M  V30 23 2 23 24
M  V30 24 1 24 25
M  V30 25 1 25 26
M  V30 26 2 26 27
M  V30 27 1 26 28
M  V30 28 1 28 29
M  V30 29 1 29 30
M  V30 30 1 29 31
M  V30 31 2 25 32
M  V30 32 1 32 33
M  V30 33 2 33 34
M  V30 34 1 34 35
M  V30 35 2 22 36
M  V30 36 1 36 37
M  V30 37 2 37 38
M  V30 38 1 38 39
M  V30 39 1 10 40
M  V30 40 1 40 41
M  V30 41 1 41 42
M  V30 42 1 41 6
M  V30 43 1 16 11
M  V30 44 1 38 20
M  V30 45 1 34 23
M  V30 46 1 1 43
M  V30 47 1 1 44
M  V30 48 1 1 45
M  V30 49 1 5 46
M  V30 50 1 6 47 CFG=1
M  V30 51 1 7 48 CFG=1
M  V30 52 1 8 49
M  V30 53 1 8 50
M  V30 54 1 9 51
M  V30 55 1 9 52
M  V30 56 1 12 53
M  V30 57 1 13 54
M  V30 58 1 15 55
M  V30 59 1 17 56
M  V30 60 1 24 57
M  V30 61 1 28 58
M  V30 62 1 29 59
M  V30 63 1 30 60
M  V30 64 1 30 61
M  V30 65 1 30 62
M  V30 66 1 31 63
M  V30 67 1 31 64
M  V30 68 1 31 65
M  V30 69 1 32 66
M  V30 70 1 33 67
M  V30 71 1 36 68
M  V30 72 1 37 69
M  V30 73 1 39 70
M  V30 74 1 39 71
M  V30 75 1 40 72
M  V30 76 1 40 73
M  V30 77 1 41 74 CFG=1
M  V30 78 1 42 75
M  V30 79 1 42 76
M  V30 80 1 42 77
M  V30 END BOND
M  V30 END CTAB
M  END
>  <Dataset>  (512) 
ChEMBL_Kinases

>  <Ligand_Instance>  (512) 
nan

>  <PDB_ID>  (512) 
nan

>  <Standardized_SMILES>  (512) 
COC(=O)N[C@@H]1[C@H](N)CN(c2ccncc2NC(=O)c2nc(-c3cc(C(=O)NC(C)C)ccc3F)ccc2N)C[C@@H]1C

>  <Name>  (512) 
nan

>  <Pocket>  (512) 
nan

>  <ATP_Site>  (512) 
nan

>  <Peripheral>  (512) 
nan

>  <Num_H_Atoms_ProtBoundConf>  (512) 
nan

>  <Num_Resolved_Atoms>  (512) 
nan

>  <Num_Not_Resolved_Atoms>  (512) 
nan

$$$$
CHEMBL3639985
     RDKit          3D

  0  0  0  0  0  0  0  0  0  0999 V3000
M  V30 BEGIN CTAB
M  V30 COUNTS 63 68 0 0 0
M  V30 BEGIN ATOM
M  V30 1 C 6.092025 1.937981 6.335294 0
M  V30 2 O 4.784377 2.233456 5.867070 0
M  V30 3 C 4.535852 2.752481 4.623634 0
M  V30 4 C 3.252255 3.027115 4.203139 0
M  V30 5 C 2.911547 3.548400 2.972971 0
M  V30 6 C 3.972665 3.793504 2.142272 0
M  V30 7 C 3.812507 4.351460 0.774947 0
M  V30 8 O 3.674036 3.390838 -0.224873 0
M  V30 9 C 2.688319 2.436459 -0.330868 0
M  V30 10 C 2.910494 1.666579 -1.479693 0
M  V30 11 C 2.048281 0.619119 -1.825780 0
M  V30 12 N 1.003880 0.363278 -1.038938 0
M  V30 13 C -0.025024 -0.528194 -1.025299 0
M  V30 14 C -0.110780 -1.520259 -2.118588 0
M  V30 15 C -0.008180 -2.832980 -1.689922 0
M  V30 16 C -0.076600 -3.839802 -2.639591 0
M  V30 17 C -0.244259 -3.539689 -3.990991 0
M  V30 18 C -0.341559 -2.229065 -4.374514 0
M  V30 19 C -0.277652 -1.203948 -3.456861 0
M  V30 20 C -0.848141 -0.316131 0.087108 0
M  V30 21 C -1.996931 -1.203446 0.230938 0
M  V30 22 C -2.927680 -1.112814 -0.799098 0
M  V30 23 C -4.063557 -1.899487 -0.788462 0
M  V30 24 C -4.294841 -2.787936 0.242459 0
M  V30 25 C -5.526049 -3.579472 0.165106 0
M  V30 26 N -6.693330 -2.943240 -0.378835 0
M  V30 27 C -5.228729 -4.876342 -0.599778 0
M  V30 28 C -5.154472 -5.645259 0.719023 0
M  V30 29 C -5.875164 -4.443150 1.338063 0
M  V30 30 C -3.356253 -2.863162 1.258487 0
M  V30 31 C -2.215950 -2.087458 1.267699 0
M  V30 32 N -0.294044 0.720670 0.742626 0
M  V30 33 C 0.809930 1.115260 0.059139 0
M  V30 34 N 1.617028 2.127376 0.420742 0
M  V30 35 C 5.290010 3.533719 2.519065 0
M  V30 36 N 5.526974 3.020301 3.751177 0
M  V30 37 H 6.854828 2.067157 5.535762 0
M  V30 38 H 6.165000 0.929054 6.768116 0
M  V30 39 H 6.355669 2.652725 7.165733 0
M  V30 40 H 2.456449 2.803458 4.925225 0
M  V30 41 H 1.901738 3.756688 2.666138 0
M  V30 42 H 2.881828 4.991866 0.842078 0
M  V30 43 H 4.623942 5.067390 0.596546 0
M  V30 44 H 3.722496 1.768626 -2.207215 0
M  V30 45 H 2.181643 0.001850 -2.699616 0
M  V30 46 H 0.124669 -3.106195 -0.631258 0
M  V30 47 H 0.000682 -4.870970 -2.331239 0
M  V30 48 H -0.301122 -4.306848 -4.756582 0
M  V30 49 H -0.473306 -1.877076 -5.395727 0
M  V30 50 H -0.340676 -0.132053 -3.627122 0
M  V30 51 H -2.808337 -0.426979 -1.651527 0
M  V30 52 H -4.774320 -1.801887 -1.614996 0
M  V30 53 H -7.480125 -3.633078 -0.286938 0
M  V30 54 H -6.630994 -2.711947 -1.392604 0
M  V30 55 H -4.240170 -4.910849 -1.092741 0
M  V30 56 H -6.052013 -5.191458 -1.268652 0
M  V30 57 H -5.783110 -6.552903 0.688466 0
M  V30 58 H -4.136945 -5.819659 1.094431 0
M  V30 59 H -6.966467 -4.633153 1.440295 0
M  V30 60 H -5.450183 -4.221030 2.311315 0
M  V30 61 H -3.538213 -3.555524 2.060237 0
M  V30 62 H -1.472037 -2.122145 2.037898 0
M  V30 63 H 6.152624 3.716212 1.885399 0
M  V30 END ATOM
M  V30 BEGIN BOND
M  V30 1 1 1 2
M  V30 2 1 2 3
M  V30 3 2 3 4
M  V30 4 1 4 5
M  V30 5 2 5 6
M  V30 6 1 6 7
M  V30 7 1 7 8
M  V30 8 1 8 9
M  V30 9 1 9 10
M  V30 10 2 10 11
M  V30 11 1 11 12
M  V30 12 1 12 13
M  V30 13 1 13 14
M  V30 14 2 14 15
M  V30 15 1 15 16
M  V30 16 2 16 17
M  V30 17 1 17 18
M  V30 18 2 18 19
M  V30 19 2 13 20
M  V30 20 1 20 21
M  V30 21 2 21 22
M  V30 22 1 22 23
M  V30 23 2 23 24
M  V30 24 1 24 25
M  V30 25 1 25 26
M  V30 26 1 25 27
M  V30 27 1 27 28
M  V30 28 1 28 29
M  V30 29 1 24 30
M  V30 30 2 30 31
M  V30 31 1 20 32
M  V30 32 2 32 33
M  V30 33 1 33 34
M  V30 34 1 6 35
M  V30 35 2 35 36
M  V30 36 1 36 3
M  V30 37 2 34 9
M  V30 38 1 33 12
M  V30 39 1 19 14
M  V30 40 1 31 21
M  V30 41 1 29 25
M  V30 42 1 1 37
M  V30 43 1 1 38
M  V30 44 1 1 39
M  V30 45 1 4 40
M  V30 46 1 5 41
M  V30 47 1 7 42
M  V30 48 1 7 43
M  V30 49 1 10 44
M  V30 50 1 11 45
M  V30 51 1 15 46
M  V30 52 1 16 47
M  V30 53 1 17 48
M  V30 54 1 18 49
M  V30 55 1 19 50
M  V30 56 1 22 51
M  V30 57 1 23 52
M  V30 58 1 26 53
M  V30 59 1 26 54
M  V30 60 1 27 55
M  V30 61 1 27 56
M  V30 62 1 28 57
M  V30 63 1 28 58
M  V30 64 1 29 59
M  V30 65 1 29 60
M  V30 66 1 30 61
M  V30 67 1 31 62
M  V30 68 1 35 63
M  V30 END BOND
M  V30 END CTAB
M  END
>  <Dataset>  (513) 
ChEMBL_Kinases

>  <Ligand_Instance>  (513) 
nan

>  <PDB_ID>  (513) 
nan

>  <Standardized_SMILES>  (513) 
COc1ccc(COc2ccn3c(-c4ccccc4)c(-c4ccc(C5(N)CCC5)cc4)nc3n2)cn1

>  <Name>  (513) 
nan

>  <Pocket>  (513) 
nan

>  <ATP_Site>  (513) 
nan

>  <Peripheral>  (513) 
nan

>  <Num_H_Atoms_ProtBoundConf>  (513) 
nan

>  <Num_Resolved_Atoms>  (513) 
nan

>  <Num_Not_Resolved_Atoms>  (513) 
nan

$$$$
CHEMBL3913112
     RDKit          3D

  0  0  0  0  0  0  0  0  0  0999 V3000
M  V30 BEGIN CTAB
M  V30 COUNTS 52 56 0 0 0
M  V30 BEGIN ATOM
M  V30 1 N 0.701479 -1.266687 4.625485 0
M  V30 2 C 1.683649 -0.580069 3.836674 0 CFG=1
M  V30 3 C 3.065486 -0.620847 4.481362 0
M  V30 4 C 4.060155 0.094288 3.650508 0 CFG=1
M  V30 5 F 5.319759 -0.401458 4.012030 0
M  V30 6 C 3.963553 -0.069617 2.172076 0
M  V30 7 N 2.579890 -0.174701 1.677565 0
M  V30 8 C 2.219569 0.637837 0.572459 0
M  V30 9 C 3.216115 1.012051 -0.303530 0
M  V30 10 C 2.928998 1.759154 -1.424936 0
M  V30 11 N 1.679252 2.150891 -1.710323 0
M  V30 12 C 0.683012 1.814928 -0.895116 0
M  V30 13 C 0.964215 1.071044 0.224172 0
M  V30 14 N -0.112921 0.766364 1.088284 0
M  V30 15 C -1.436964 1.161999 0.747851 0
M  V30 16 N -2.109022 2.308472 1.014948 0
M  V30 17 C -3.347162 2.281764 0.501638 0
M  V30 18 C -3.524302 1.072833 -0.137953 0
M  V30 19 C -4.516186 0.448711 -0.831517 0
M  V30 20 C -4.374780 -0.814449 -1.366985 0
M  V30 21 C -3.157114 -1.427041 -1.162371 0
M  V30 22 C -2.801854 -2.752111 -1.640336 0
M  V30 23 C -2.995344 -3.902608 -0.939780 0
M  V30 24 F -3.555785 -3.813455 0.285367 0
M  V30 25 C -2.633639 -5.130651 -1.455338 0
M  V30 26 C -2.059349 -5.155945 -2.726133 0
M  V30 27 C -1.847323 -4.002958 -3.468483 0
M  V30 28 C -2.229977 -2.784642 -2.904105 0
M  V30 29 F -2.001104 -1.689022 -3.670270 0
M  V30 30 N -2.158286 -0.811258 -0.469924 0
M  V30 31 N -2.337080 0.420742 0.035801 0
M  V30 32 C 1.885915 -1.169890 2.466950 0
M  V30 33 H 0.897141 -1.320592 5.631369 0
M  V30 34 H -0.212451 -0.784575 4.456726 0
M  V30 35 H 1.442180 0.510951 3.757914 0
M  V30 36 H 3.312483 -1.716572 4.583712 0
M  V30 37 H 3.033726 -0.129014 5.481077 0
M  V30 38 H 4.026859 1.169218 3.925561 0
M  V30 39 H 4.473440 -1.008783 1.883538 0
M  V30 40 H 4.488510 0.813347 1.722912 0
M  V30 41 H 4.260124 0.794329 -0.251505 0
M  V30 42 H 3.653008 2.093854 -2.162348 0
M  V30 43 H -0.331161 2.124976 -1.114297 0
M  V30 44 H -0.339425 0.316365 1.990848 0
M  V30 45 H -4.092780 3.062586 0.566935 0
M  V30 46 H -5.450464 0.957868 -0.970095 0
M  V30 47 H -5.128436 -1.353112 -1.924337 0
M  V30 48 H -2.786365 -6.063947 -0.896579 0
M  V30 49 H -1.770918 -6.117631 -3.141455 0
M  V30 50 H -1.401322 -4.056715 -4.447523 0
M  V30 51 H 0.972561 -1.576186 1.994007 0
M  V30 52 H 2.564776 -2.046579 2.611156 0
M  V30 END ATOM
M  V30 BEGIN BOND
M  V30 1 1 1 2
M  V30 2 1 2 3
M  V30 3 1 3 4
M  V30 4 1 4 5
M  V30 5 1 4 6
M  V30 6 1 6 7
M  V30 7 1 7 8
M  V30 8 2 8 9
M  V30 9 1 9 10
M  V30 10 2 10 11
M  V30 11 1 11 12
M  V30 12 2 12 13
M  V30 13 1 13 14
M  V30 14 1 14 15
M  V30 15 2 15 16
M  V30 16 1 16 17
M  V30 17 2 17 18
M  V30 18 1 18 19
M  V30 19 2 19 20
M  V30 20 1 20 21
M  V30 21 1 21 22
M  V30 22 2 22 23
M  V30 23 1 23 24
M  V30 24 1 23 25
M  V30 25 2 25 26
M  V30 26 1 26 27
M  V30 27 2 27 28
M  V30 28 1 28 29
M  V30 29 2 21 30
M  V30 30 1 30 31
M  V30 31 1 7 32
M  V30 32 1 32 2
M  V30 33 1 13 8
M  V30 34 1 31 15
M  V30 35 1 31 18
M  V30 36 1 28 22
M  V30 37 1 1 33
M  V30 38 1 1 34
M  V30 39 1 2 35 CFG=3
M  V30 40 1 3 36
M  V30 41 1 3 37
M  V30 42 1 4 38 CFG=3
M  V30 43 1 6 39
M  V30 44 1 6 40
M  V30 45 1 9 41
M  V30 46 1 10 42
M  V30 47 1 12 43
M  V30 48 1 14 44
M  V30 49 1 17 45
M  V30 50 1 19 46
M  V30 51 1 20 47
M  V30 52 1 25 48
M  V30 53 1 26 49
M  V30 54 1 27 50
M  V30 55 1 32 51
M  V30 56 1 32 52
M  V30 END BOND
M  V30 END CTAB
M  END
>  <Dataset>  (514) 
ChEMBL_Kinases

>  <Ligand_Instance>  (514) 
nan

>  <PDB_ID>  (514) 
nan

>  <Standardized_SMILES>  (514) 
N[C@H]1C[C@@H](F)CN(c2ccncc2Nc2ncc3ccc(-c4c(F)cccc4F)nn23)C1

>  <Name>  (514) 
nan

>  <Pocket>  (514) 
nan

>  <ATP_Site>  (514) 
nan

>  <Peripheral>  (514) 
nan

>  <Num_H_Atoms_ProtBoundConf>  (514) 
nan

>  <Num_Resolved_Atoms>  (514) 
nan

>  <Num_Not_Resolved_Atoms>  (514) 
nan

$$$$
CHEMBL3640020
     RDKit          3D

  0  0  0  0  0  0  0  0  0  0999 V3000
M  V30 BEGIN CTAB
M  V30 COUNTS 57 62 0 0 0
M  V30 BEGIN ATOM
M  V30 1 C 5.805471 -5.975785 5.388369 0
M  V30 2 C 4.732297 -5.322518 4.561022 0
M  V30 3 C 4.592073 -3.985728 4.228217 0
M  V30 4 C 3.464317 -3.810804 3.449021 0
M  V30 5 C 2.982121 -2.543626 2.902148 0
M  V30 6 C 3.667298 -1.371864 3.144263 0
M  V30 7 C 3.151181 -0.194549 2.592189 0
M  V30 8 C 1.988031 -0.232667 1.830933 0
M  V30 9 N 1.306304 0.746578 1.205545 0
M  V30 10 C 0.220183 0.238185 0.580255 0
M  V30 11 C -0.784187 0.943628 -0.207268 0
M  V30 12 C -2.123080 1.130644 0.065825 0
M  V30 13 C -2.935650 1.828145 -0.803943 0
M  V30 14 C -2.426004 2.364235 -1.984207 0
M  V30 15 C -3.484316 3.067767 -2.754688 0
M  V30 16 N -4.750316 2.324477 -2.776957 0
M  V30 17 C -3.663297 4.536084 -2.431180 0
M  V30 18 C -3.998301 4.724799 -3.916659 0
M  V30 19 C -3.119992 3.487816 -4.152054 0
M  V30 20 C -1.087184 2.181726 -2.264873 0
M  V30 21 C -0.292955 1.480536 -1.380546 0
M  V30 22 C 0.229233 -1.127309 0.830746 0
M  V30 23 C -0.695103 -2.173044 0.408025 0
M  V30 24 C -2.018279 -2.398653 0.720824 0
M  V30 25 C -2.687982 -3.473836 0.178735 0
M  V30 26 C -2.066338 -4.347525 -0.681932 0
M  V30 27 C -0.725344 -4.136704 -1.011738 0
M  V30 28 C -0.055884 -3.041025 -0.454838 0
M  V30 29 N 1.323420 -1.400772 1.601614 0
M  V30 30 C 1.827610 -2.539620 2.138936 0
M  V30 31 N 2.934977 -5.053407 3.320902 0
M  V30 32 N 3.678739 -5.938861 3.972950 0
M  V30 33 H 6.291785 -5.185061 6.004696 0
M  V30 34 H 6.534586 -6.487610 4.723545 0
M  V30 35 H 5.378698 -6.691280 6.120729 0
M  V30 36 H 5.249514 -3.192254 4.522238 0
M  V30 37 H 4.572633 -1.362707 3.739580 0
M  V30 38 H 3.693975 0.713940 2.787841 0
M  V30 39 H -2.448931 0.691197 0.997107 0
M  V30 40 H -3.968076 1.889404 -0.445665 0
M  V30 41 H -4.469216 1.315816 -2.870711 0
M  V30 42 H -5.311623 2.479516 -1.916828 0
M  V30 43 H -2.733885 5.003042 -2.093419 0
M  V30 44 H -4.556634 4.638158 -1.758527 0
M  V30 45 H -3.624722 5.637183 -4.378758 0
M  V30 46 H -5.073657 4.487014 -4.064066 0
M  V30 47 H -3.519750 2.776828 -4.895849 0
M  V30 48 H -2.075993 3.732152 -4.351623 0
M  V30 49 H -0.803151 2.637966 -3.200981 0
M  V30 50 H 0.746586 1.391950 -1.694389 0
M  V30 51 H -2.403091 -1.655062 1.405176 0
M  V30 52 H -3.730147 -3.520812 0.519756 0
M  V30 53 H -2.722318 -5.125087 -1.011311 0
M  V30 54 H -0.322173 -4.866802 -1.689223 0
M  V30 55 H 0.970870 -3.039387 -0.824044 0
M  V30 56 H 1.330708 -3.487905 1.980093 0
M  V30 57 H 2.066985 -5.280274 2.786084 0
M  V30 END ATOM
M  V30 BEGIN BOND
M  V30 1 1 1 2
M  V30 2 1 2 3
M  V30 3 2 3 4
M  V30 4 1 4 5
M  V30 5 1 5 6
M  V30 6 2 6 7
M  V30 7 1 7 8
M  V30 8 2 8 9
M  V30 9 1 9 10
M  V30 10 1 10 11
M  V30 11 2 11 12
M  V30 12 1 12 13
M  V30 13 2 13 14
M  V30 14 1 14 15
M  V30 15 1 15 16
M  V30 16 1 15 17
M  V30 17 1 17 18
M  V30 18 1 18 19
M  V30 19 1 14 20
M  V30 20 2 20 21
M  V30 21 2 10 22
M  V30 22 1 22 23
M  V30 23 2 23 24
M  V30 24 1 24 25
M  V30 25 2 25 26
M  V30 26 1 26 27
M  V30 27 2 27 28
M  V30 28 1 22 29
M  V30 29 1 29 30
M  V30 30 1 4 31
M  V30 31 1 31 32
M  V30 32 2 32 2
M  V30 33 2 30 5
M  V30 34 1 29 8
M  V30 35 1 21 11
M  V30 36 1 28 23
M  V30 37 1 19 15
M  V30 38 1 1 33
M  V30 39 1 1 34
M  V30 40 1 1 35
M  V30 41 1 3 36
M  V30 42 1 6 37
M  V30 43 1 7 38
M  V30 44 1 12 39
M  V30 45 1 13 40
M  V30 46 1 16 41
M  V30 47 1 16 42
M  V30 48 1 17 43
M  V30 49 1 17 44
M  V30 50 1 18 45
M  V30 51 1 18 46
M  V30 52 1 19 47
M  V30 53 1 19 48
M  V30 54 1 20 49
M  V30 55 1 21 50
M  V30 56 1 24 51
M  V30 57 1 25 52
M  V30 58 1 26 53
M  V30 59 1 27 54
M  V30 60 1 28 55
M  V30 61 1 30 56
M  V30 62 1 31 57
M  V30 END BOND
M  V30 END CTAB
M  END
>  <Dataset>  (515) 
ChEMBL_Kinases

>  <Ligand_Instance>  (515) 
nan

>  <PDB_ID>  (515) 
nan

>  <Standardized_SMILES>  (515) 
Cc1cc(-c2ccc3nc(-c4ccc(C5(N)CCC5)cc4)c(-c4ccccc4)n3c2)[nH]n1

>  <Name>  (515) 
nan

>  <Pocket>  (515) 
nan

>  <ATP_Site>  (515) 
nan

>  <Peripheral>  (515) 
nan

>  <Num_H_Atoms_ProtBoundConf>  (515) 
nan

>  <Num_Resolved_Atoms>  (515) 
nan

>  <Num_Not_Resolved_Atoms>  (515) 
nan

$$$$
CHEMBL3913336
     RDKit          3D

  0  0  0  0  0  0  0  0  0  0999 V3000
M  V30 BEGIN CTAB
M  V30 COUNTS 47 49 0 0 0
M  V30 BEGIN ATOM
M  V30 1 C 5.826891 -3.052756 2.548602 0
M  V30 2 O 4.867051 -2.428937 1.721428 0
M  V30 3 C 4.781742 -1.053856 1.580428 0
M  V30 4 C 5.554497 -0.078479 2.170929 0
M  V30 5 C 5.336919 1.252026 1.922567 0
M  V30 6 C 4.330548 1.614593 1.070040 0
M  V30 7 C 3.511900 0.675359 0.439630 0
M  V30 8 C 2.419838 1.102327 -0.487443 0 CFG=1
M  V30 9 C 2.949495 0.886898 -1.897173 0
M  V30 10 N 1.183451 0.402393 -0.260217 0
M  V30 11 C -0.072646 0.937735 0.140192 0
M  V30 12 O -0.066540 2.182995 0.308025 0
M  V30 13 C -1.236127 0.075115 0.326210 0
M  V30 14 C -1.278168 -1.295784 0.153631 0
M  V30 15 C -2.449653 -1.998078 0.362745 0
M  V30 16 C -3.607232 -1.350418 0.748935 0
M  V30 17 C -4.777537 -2.186576 0.939781 0
M  V30 18 C -6.033184 -1.860431 0.456747 0
M  V30 19 N -6.853500 -2.863266 0.824911 0
M  V30 20 N -6.167789 -3.778557 1.503252 0
M  V30 21 C -4.872733 -3.409665 1.604843 0
M  V30 22 C -3.596659 0.031290 0.931129 0
M  V30 23 O -4.782069 0.595307 1.313377 0
M  V30 24 C -5.044441 1.941585 1.561528 0
M  V30 25 C -2.406213 0.736358 0.717463 0
M  V30 26 C 3.766664 -0.647642 0.718448 0
M  V30 27 H 6.718790 -3.275046 1.897733 0
M  V30 28 H 6.161864 -2.413592 3.377287 0
M  V30 29 H 5.468717 -4.047533 2.910379 0
M  V30 30 H 6.324161 -0.457957 2.828136 0
M  V30 31 H 5.945473 1.994899 2.388940 0
M  V30 32 H 4.128500 2.671866 0.848467 0
M  V30 33 H 2.262189 2.189347 -0.302772 0
M  V30 34 H 3.782120 1.603488 -2.056709 0
M  V30 35 H 2.144998 0.979028 -2.653115 0
M  V30 36 H 3.391224 -0.126491 -1.985442 0
M  V30 37 H 1.308740 -0.619189 -0.431843 0
M  V30 38 H -0.356493 -1.761464 -0.147113 0
M  V30 39 H -2.375503 -3.065566 0.200790 0
M  V30 40 H -6.327183 -0.993973 -0.100559 0
M  V30 41 H -6.497140 -4.679799 1.931521 0
M  V30 42 H -4.004178 -3.848846 2.059049 0
M  V30 43 H -5.497709 2.091622 2.564813 0
M  V30 44 H -5.771749 2.310372 0.794869 0
M  V30 45 H -4.184485 2.608637 1.504759 0
M  V30 46 H -2.424989 1.800723 0.864615 0
M  V30 47 H 3.108234 -1.334330 0.207784 0
M  V30 END ATOM
M  V30 BEGIN BOND
M  V30 1 1 1 2
M  V30 2 1 2 3
M  V30 3 2 3 4
M  V30 4 1 4 5
M  V30 5 2 5 6
M  V30 6 1 6 7
M  V30 7 1 7 8
M  V30 8 1 8 9
M  V30 9 1 8 10
M  V30 10 1 10 11
M  V30 11 2 11 12
M  V30 12 1 11 13
M  V30 13 2 13 14
M  V30 14 1 14 15
M  V30 15 2 15 16
M  V30 16 1 16 17
M  V30 17 1 17 18
M  V30 18 2 18 19
M  V30 19 1 19 20
M  V30 20 1 20 21
M  V30 21 1 16 22
M  V30 22 1 22 23
M  V30 23 1 23 24
M  V30 24 2 22 25
M  V30 25 2 7 26
M  V30 26 1 26 3
M  V30 27 1 25 13
M  V30 28 2 21 17
M  V30 29 1 1 27
M  V30 30 1 1 28
M  V30 31 1 1 29
M  V30 32 1 4 30
M  V30 33 1 5 31
M  V30 34 1 6 32
M  V30 35 1 8 33 CFG=3
M  V30 36 1 9 34
M  V30 37 1 9 35
M  V30 38 1 9 36
M  V30 39 1 10 37
M  V30 40 1 14 38
M  V30 41 1 15 39
M  V30 42 1 18 40
M  V30 43 1 20 41
M  V30 44 1 21 42
M  V30 45 1 24 43
M  V30 46 1 24 44
M  V30 47 1 24 45
M  V30 48 1 25 46
M  V30 49 1 26 47
M  V30 END BOND
M  V30 END CTAB
M  END
>  <Dataset>  (516) 
ChEMBL_Kinases

>  <Ligand_Instance>  (516) 
nan

>  <PDB_ID>  (516) 
nan

>  <Standardized_SMILES>  (516) 
COc1cccc([C@@H](C)NC(=O)c2ccc(-c3cn[nH]c3)c(OC)c2)c1

>  <Name>  (516) 
nan

>  <Pocket>  (516) 
nan

>  <ATP_Site>  (516) 
nan

>  <Peripheral>  (516) 
nan

>  <Num_H_Atoms_ProtBoundConf>  (516) 
nan

>  <Num_Resolved_Atoms>  (516) 
nan

>  <Num_Not_Resolved_Atoms>  (516) 
nan

$$$$
CHEMBL3913500
     RDKit          3D

  0  0  0  0  0  0  0  0  0  0999 V3000
M  V30 BEGIN CTAB
M  V30 COUNTS 49 52 0 0 0
M  V30 BEGIN ATOM
M  V30 1 C 1.054741 -5.505811 0.312669 0
M  V30 2 C 1.356647 -4.051620 0.163892 0
M  V30 3 N 2.559880 -3.660058 -0.295734 0
M  V30 4 C 2.830911 -2.347607 -0.429532 0
M  V30 5 C 4.074362 -1.996170 -0.903154 0
M  V30 6 C 4.359346 -0.656739 -1.042778 0
M  V30 7 C 3.424542 0.307355 -0.717032 0
M  V30 8 C 2.199656 -0.121302 -0.248448 0
M  V30 9 C 1.247336 0.934123 0.081594 0
M  V30 10 C -0.093698 1.030061 -0.223918 0
M  V30 11 C -0.544019 2.217941 0.313856 0
M  V30 12 N 0.463597 2.854329 0.935974 0
M  V30 13 C 1.567069 2.088143 0.806560 0
M  V30 14 C 0.249243 4.117228 1.578430 0
M  V30 15 C -1.184864 4.365327 1.940009 0
M  V30 16 N -2.120592 4.023000 0.892364 0
M  V30 17 C -1.893728 2.765869 0.256467 0
M  V30 18 O -2.840504 2.153214 -0.336229 0
M  V30 19 C 1.843303 -1.447737 -0.082465 0
M  V30 20 N 0.637018 -1.826387 0.377975 0
M  V30 21 C 0.373925 -3.143890 0.508936 0
M  V30 22 N -0.891239 -3.582919 0.993028 0
M  V30 23 C -1.977820 -2.719860 1.377921 0
M  V30 24 C -3.188893 -3.450761 1.850468 0
M  V30 25 C -1.525912 -1.827253 2.535983 0
M  V30 26 C -2.385884 -1.801598 0.244932 0
M  V30 27 H 1.915781 -6.131550 0.067263 0
M  V30 28 H 0.787072 -5.697682 1.372775 0
M  V30 29 H 0.146336 -5.721387 -0.282349 0
M  V30 30 H 4.813887 -2.751123 -1.161045 0
M  V30 31 H 5.321731 -0.315229 -1.411048 0
M  V30 32 H 3.659397 1.356424 -0.830750 0
M  V30 33 H -0.569678 0.244218 -0.786696 0
M  V30 34 H 2.539447 2.333438 1.202542 0
M  V30 35 H 0.635188 4.959406 0.952045 0
M  V30 36 H 0.839054 4.144184 2.519775 0
M  V30 37 H -1.462433 3.951377 2.930923 0
M  V30 38 H -1.267333 5.483433 2.073565 0
M  V30 39 H -2.929373 4.619290 0.579288 0
M  V30 40 H -1.065160 -4.606795 1.083554 0
M  V30 41 H -3.195382 -3.700148 2.913409 0
M  V30 42 H -4.082022 -2.821609 1.643309 0
M  V30 43 H -3.356924 -4.383706 1.276620 0
M  V30 44 H -1.134923 -2.501672 3.315053 0
M  V30 45 H -0.782014 -1.113161 2.158938 0
M  V30 46 H -2.434253 -1.321460 2.935586 0
M  V30 47 H -2.471989 -0.745302 0.572378 0
M  V30 48 H -3.305684 -2.195522 -0.213042 0
M  V30 49 H -1.602246 -1.909751 -0.558259 0
M  V30 END ATOM
M  V30 BEGIN BOND
M  V30 1 1 1 2
M  V30 2 2 2 3
M  V30 3 1 3 4
M  V30 4 2 4 5
M  V30 5 1 5 6
M  V30 6 2 6 7
M  V30 7 1 7 8
M  V30 8 1 8 9
M  V30 9 1 9 10
M  V30 10 2 10 11
M  V30 11 1 11 12
M  V30 12 1 12 13
M  V30 13 1 12 14
M  V30 14 1 14 15
M  V30 15 1 15 16
M  V30 16 1 16 17
M  V30 17 2 17 18
M  V30 18 2 8 19
M  V30 19 1 19 20
M  V30 20 2 20 21
M  V30 21 1 21 22
M  V30 22 1 22 23
M  V30 23 1 23 24
M  V30 24 1 23 25
M  V30 25 1 23 26
M  V30 26 1 21 2
M  V30 27 1 19 4
M  V30 28 2 13 9
M  V30 29 1 17 11
M  V30 30 1 1 27
M  V30 31 1 1 28
M  V30 32 1 1 29
M  V30 33 1 5 30
M  V30 34 1 6 31
M  V30 35 1 7 32
M  V30 36 1 10 33
M  V30 37 1 13 34
M  V30 38 1 14 35
M  V30 39 1 14 36
M  V30 40 1 15 37
M  V30 41 1 15 38
M  V30 42 1 16 39
M  V30 43 1 22 40
M  V30 44 1 24 41
M  V30 45 1 24 42
M  V30 46 1 24 43
M  V30 47 1 25 44
M  V30 48 1 25 45
M  V30 49 1 25 46
M  V30 50 1 26 47
M  V30 51 1 26 48
M  V30 52 1 26 49
M  V30 END BOND
M  V30 END CTAB
M  END
>  <Dataset>  (517) 
ChEMBL_Kinases

>  <Ligand_Instance>  (517) 
nan

>  <PDB_ID>  (517) 
nan

>  <Standardized_SMILES>  (517) 
Cc1nc2cccc(-c3cc4n(c3)CCNC4=O)c2nc1NC(C)(C)C

>  <Name>  (517) 
nan

>  <Pocket>  (517) 
nan

>  <ATP_Site>  (517) 
nan

>  <Peripheral>  (517) 
nan

>  <Num_H_Atoms_ProtBoundConf>  (517) 
nan

>  <Num_Resolved_Atoms>  (517) 
nan

>  <Num_Not_Resolved_Atoms>  (517) 
nan

$$$$
CHEMBL3913540
     RDKit          3D

  0  0  0  0  0  0  0  0  0  0999 V3000
M  V30 BEGIN CTAB
M  V30 COUNTS 54 58 0 0 0
M  V30 BEGIN ATOM
M  V30 1 C 1.738630 -2.055831 0.312260 0
M  V30 2 C 2.964006 -1.454510 0.972543 0 CFG=2
M  V30 3 C 2.578176 -0.964024 2.326166 0
M  V30 4 C 3.025970 0.407517 2.684154 0 CFG=2
M  V30 5 N 2.265602 0.827939 3.864084 0
M  V30 6 C 2.830812 1.462717 1.654036 0
M  V30 7 N 2.632585 0.829109 0.364637 0
M  V30 8 C 1.719337 1.284542 -0.599089 0
M  V30 9 C 2.231448 1.643668 -1.850018 0
M  V30 10 C 1.339105 2.091684 -2.807057 0
M  V30 11 N -0.002110 2.203591 -2.605291 0
M  V30 12 C -0.512055 1.860129 -1.400965 0
M  V30 13 C 0.366117 1.414586 -0.445391 0
M  V30 14 N -0.195654 1.068206 0.796618 0
M  V30 15 C -1.583348 1.144171 1.114197 0
M  V30 16 N -2.303214 2.146087 1.619134 0
M  V30 17 C -3.605374 1.784780 1.765058 0
M  V30 18 C -3.723601 0.488372 1.332169 0
M  V30 19 C -4.763929 -0.412224 1.233204 0
M  V30 20 C -4.563722 -1.686253 0.741936 0
M  V30 21 C -3.277822 -2.005422 0.359205 0
M  V30 22 C -2.831000 -3.284802 -0.184994 0
M  V30 23 N -2.015474 -3.337555 -1.258731 0
M  V30 24 C -1.566380 -4.476653 -1.810359 0
M  V30 25 C -1.946859 -5.684812 -1.265425 0
M  V30 26 C -2.781410 -5.690772 -0.164526 0
M  V30 27 C -3.217209 -4.495015 0.367591 0
M  V30 28 F -4.031313 -4.494161 1.441664 0
M  V30 29 N -2.287280 -1.097071 0.471299 0
M  V30 30 N -2.469837 0.134831 0.944027 0
M  V30 31 C 3.426482 -0.343659 0.048985 0
M  V30 32 H 0.858147 -1.522148 0.724425 0
M  V30 33 H 1.736887 -1.852096 -0.798603 0
M  V30 34 H 1.686976 -3.153649 0.455915 0
M  V30 35 H 3.715141 -2.284586 1.010051 0
M  V30 36 H 3.068189 -1.658331 3.072592 0
M  V30 37 H 1.480010 -1.125173 2.539017 0
M  V30 38 H 4.091175 0.349563 3.043018 0
M  V30 39 H 1.356210 0.347496 3.946382 0
M  V30 40 H 2.203278 1.868710 3.944660 0
M  V30 41 H 3.811914 2.011913 1.547376 0
M  V30 42 H 2.056366 2.208878 1.890354 0
M  V30 43 H 3.288714 1.571695 -2.056466 0
M  V30 44 H 1.691258 2.380811 -3.790840 0
M  V30 45 H -1.581225 1.944149 -1.224835 0
M  V30 46 H 0.192559 0.712470 1.695353 0
M  V30 47 H -4.432116 2.362059 2.142470 0
M  V30 48 H -5.758084 -0.152440 1.533710 0
M  V30 49 H -5.303907 -2.460059 0.624486 0
M  V30 50 H -0.915349 -4.368202 -2.672727 0
M  V30 51 H -1.547102 -6.572206 -1.761021 0
M  V30 52 H -3.062354 -6.655092 0.240385 0
M  V30 53 H 4.491739 -0.151361 0.294196 0
M  V30 54 H 3.321854 -0.635019 -1.012318 0
M  V30 END ATOM
M  V30 BEGIN BOND
M  V30 1 1 1 2
M  V30 2 1 2 3
M  V30 3 1 3 4
M  V30 4 1 4 5
M  V30 5 1 4 6
M  V30 6 1 6 7
M  V30 7 1 7 8
M  V30 8 2 8 9
M  V30 9 1 9 10
M  V30 10 2 10 11
M  V30 11 1 11 12
M  V30 12 2 12 13
M  V30 13 1 13 14
M  V30 14 1 14 15
M  V30 15 2 15 16
M  V30 16 1 16 17
M  V30 17 2 17 18
M  V30 18 1 18 19
M  V30 19 2 19 20
M  V30 20 1 20 21
M  V30 21 1 21 22
M  V30 22 2 22 23
M  V30 23 1 23 24
M  V30 24 2 24 25
M  V30 25 1 25 26
M  V30 26 2 26 27
M  V30 27 1 27 28
M  V30 28 2 21 29
M  V30 29 1 29 30
M  V30 30 1 7 31
M  V30 31 1 31 2
M  V30 32 1 13 8
M  V30 33 1 30 15
M  V30 34 1 30 18
M  V30 35 1 27 22
M  V30 36 1 1 32
M  V30 37 1 1 33
M  V30 38 1 1 34
M  V30 39 1 2 35 CFG=1
M  V30 40 1 3 36
M  V30 41 1 3 37
M  V30 42 1 4 38 CFG=1
M  V30 43 1 5 39
M  V30 44 1 5 40
M  V30 45 1 6 41
M  V30 46 1 6 42
M  V30 47 1 9 43
M  V30 48 1 10 44
M  V30 49 1 12 45
M  V30 50 1 14 46
M  V30 51 1 17 47
M  V30 52 1 19 48
M  V30 53 1 20 49
M  V30 54 1 24 50
M  V30 55 1 25 51
M  V30 56 1 26 52
M  V30 57 1 31 53
M  V30 58 1 31 54
M  V30 END BOND
M  V30 END CTAB
M  END
>  <Dataset>  (518) 
ChEMBL_Kinases

>  <Ligand_Instance>  (518) 
nan

>  <PDB_ID>  (518) 
nan

>  <Standardized_SMILES>  (518) 
C[C@@H]1C[C@H](N)CN(c2ccncc2Nc2ncc3ccc(-c4ncccc4F)nn23)C1

>  <Name>  (518) 
nan

>  <Pocket>  (518) 
nan

>  <ATP_Site>  (518) 
nan

>  <Peripheral>  (518) 
nan

>  <Num_H_Atoms_ProtBoundConf>  (518) 
nan

>  <Num_Resolved_Atoms>  (518) 
nan

>  <Num_Not_Resolved_Atoms>  (518) 
nan

$$$$
CHEMBL3658034
     RDKit          3D

  0  0  0  0  0  0  0  0  0  0999 V3000
M  V30 BEGIN CTAB
M  V30 COUNTS 62 66 0 0 0
M  V30 BEGIN ATOM
M  V30 1 C 1.446664 0.013715 5.048006 0
M  V30 2 N 2.520809 -0.764114 5.647191 0
M  V30 3 C 2.011469 -2.041613 6.145718 0
M  V30 4 C 3.604150 -1.011573 4.685019 0
M  V30 5 C 4.088584 0.302281 4.197293 0
M  V30 6 C 4.545242 0.284301 2.757181 0
M  V30 7 N 3.411038 -0.233989 1.998588 0
M  V30 8 C 2.467624 0.415317 1.155955 0
M  V30 9 C 1.220288 -0.209308 1.006706 0
M  V30 10 C 0.360109 0.463973 0.164258 0
M  V30 11 C 0.582385 1.638280 -0.522049 0
M  V30 12 N -0.411061 2.223130 -1.355377 0
M  V30 13 C -1.659463 1.553847 -1.377078 0
M  V30 14 N -2.538577 2.297562 -0.695881 0
M  V30 15 C -3.829886 1.961760 -0.504224 0
M  V30 16 C -4.288416 0.757583 -1.049734 0
M  V30 17 C -5.460217 0.071007 -1.087727 0
M  V30 18 C -5.275851 -1.087051 -1.794088 0
M  V30 19 C -6.307096 -2.068263 -2.041592 0
M  V30 20 N -7.126291 -2.859881 -2.257067 0
M  V30 21 N -3.967653 -1.116722 -2.199444 0
M  V30 22 C -3.480984 -2.219520 -2.955425 0
M  V30 23 C -1.997778 -2.413605 -2.978021 0
M  V30 24 C -1.846667 -3.214707 -4.282989 0
M  V30 25 C -2.712419 -2.329340 -5.184289 0
M  V30 26 C -3.978565 -2.238298 -4.362240 0
M  V30 27 C -3.364682 -0.018371 -1.760888 0
M  V30 28 N -2.100985 0.397210 -1.900358 0
M  V30 29 N 1.813400 2.182058 -0.326164 0
M  V30 30 C 2.712917 1.593738 0.477759 0
M  V30 31 C 3.405657 -1.651256 2.244698 0
M  V30 32 C 3.127024 -1.989611 3.680296 0
M  V30 33 H 1.589397 1.073487 5.371151 0
M  V30 34 H 1.435233 0.011729 3.959747 0
M  V30 35 H 0.484313 -0.347042 5.472614 0
M  V30 36 H 2.508869 -2.899200 5.677343 0
M  V30 37 H 2.166199 -2.048969 7.240492 0
M  V30 38 H 0.915851 -2.054661 5.949021 0
M  V30 39 H 4.407003 -1.479879 5.303780 0
M  V30 40 H 3.362252 1.132249 4.368431 0
M  V30 41 H 4.986179 0.602286 4.795637 0
M  V30 42 H 4.751860 1.345251 2.479384 0
M  V30 43 H 5.463702 -0.302535 2.652632 0
M  V30 44 H 0.889420 -1.123544 1.471544 0
M  V30 45 H -0.624093 -0.013162 0.036843 0
M  V30 46 H -0.117945 3.075864 -1.860637 0
M  V30 47 H -4.604284 2.473453 0.012310 0
M  V30 48 H -6.391665 0.396872 -0.632291 0
M  V30 49 H -3.880875 -3.158791 -2.456544 0
M  V30 50 H -1.382064 -1.530054 -3.072694 0
M  V30 51 H -1.635584 -3.041653 -2.145387 0
M  V30 52 H -0.818959 -3.310297 -4.612707 0
M  V30 53 H -2.413985 -4.162680 -4.164925 0
M  V30 54 H -2.878867 -2.801409 -6.165523 0
M  V30 55 H -2.195890 -1.367069 -5.224525 0
M  V30 56 H -4.605698 -1.359105 -4.620516 0
M  V30 57 H -4.537998 -3.192342 -4.586649 0
M  V30 58 H 3.706714 1.975584 0.678138 0
M  V30 59 H 4.370930 -2.084823 1.873939 0
M  V30 60 H 2.615084 -2.113234 1.620507 0
M  V30 61 H 3.633931 -2.979550 3.878567 0
M  V30 62 H 2.029019 -2.227554 3.809992 0
M  V30 END ATOM
M  V30 BEGIN BOND
M  V30 1 1 1 2
M  V30 2 1 2 3
M  V30 3 1 2 4
M  V30 4 1 4 5
M  V30 5 1 5 6
M  V30 6 1 6 7
M  V30 7 1 7 8
M  V30 8 2 8 9
M  V30 9 1 9 10
M  V30 10 2 10 11
M  V30 11 1 11 12
M  V30 12 1 12 13
M  V30 13 2 13 14
M  V30 14 1 14 15
M  V30 15 2 15 16
M  V30 16 1 16 17
M  V30 17 2 17 18
M  V30 18 1 18 19
M  V30 19 3 19 20
M  V30 20 1 18 21
M  V30 21 1 21 22
M  V30 22 1 22 23
M  V30 23 1 23 24
M  V30 24 1 24 25
M  V30 25 1 25 26
M  V30 26 1 21 27
M  V30 27 2 27 28
M  V30 28 1 11 29
M  V30 29 2 29 30
M  V30 30 1 7 31
M  V30 31 1 31 32
M  V30 32 1 32 4
M  V30 33 1 30 8
M  V30 34 1 28 13
M  V30 35 1 27 16
M  V30 36 1 26 22
M  V30 37 1 1 33
M  V30 38 1 1 34
M  V30 39 1 1 35
M  V30 40 1 3 36
M  V30 41 1 3 37
M  V30 42 1 3 38
M  V30 43 1 4 39
M  V30 44 1 5 40
M  V30 45 1 5 41
M  V30 46 1 6 42
M  V30 47 1 6 43
M  V30 48 1 9 44
M  V30 49 1 10 45
M  V30 50 1 12 46
M  V30 51 1 15 47
M  V30 52 1 17 48
M  V30 53 1 22 49
M  V30 54 1 23 50
M  V30 55 1 23 51
M  V30 56 1 24 52
M  V30 57 1 24 53
M  V30 58 1 25 54
M  V30 59 1 25 55
M  V30 60 1 26 56
M  V30 61 1 26 57
M  V30 62 1 30 58
M  V30 63 1 31 59
M  V30 64 1 31 60
M  V30 65 1 32 61
M  V30 66 1 32 62
M  V30 END BOND
M  V30 END CTAB
M  END
>  <Dataset>  (519) 
ChEMBL_Kinases

>  <Ligand_Instance>  (519) 
nan

>  <PDB_ID>  (519) 
nan

>  <Standardized_SMILES>  (519) 
CN(C)C1CCN(c2ccc(Nc3ncc4cc(C#N)n(C5CCCC5)c4n3)nc2)CC1

>  <Name>  (519) 
nan

>  <Pocket>  (519) 
nan

>  <ATP_Site>  (519) 
nan

>  <Peripheral>  (519) 
nan

>  <Num_H_Atoms_ProtBoundConf>  (519) 
nan

>  <Num_Resolved_Atoms>  (519) 
nan

>  <Num_Not_Resolved_Atoms>  (519) 
nan

$$$$
CHEMBL4068509
     RDKit          3D

  0  0  0  0  0  0  0  0  0  0999 V3000
M  V30 BEGIN CTAB
M  V30 COUNTS 68 71 0 0 0
M  V30 BEGIN ATOM
M  V30 1 C 5.374313 -1.924795 4.627087 0
M  V30 2 C 6.217988 -1.615778 3.663091 0
M  V30 3 C 6.025993 -0.751920 2.511707 0
M  V30 4 O 6.914217 -0.532384 1.650882 0
M  V30 5 N 4.881401 -0.010255 2.117480 0
M  V30 6 C 4.989031 0.764576 0.899208 0
M  V30 7 C 4.017624 0.313597 -0.144988 0
M  V30 8 N 2.819785 -0.240800 0.309161 0
M  V30 9 C 1.637548 0.165100 -0.374063 0
M  V30 10 C 1.224468 1.585200 -0.198349 0
M  V30 11 C -0.031594 1.847715 -0.995479 0
M  V30 12 N -1.160913 1.054964 -0.635441 0
M  V30 13 C -1.551715 -0.134583 -1.142101 0
M  V30 14 O -0.841030 -0.614158 -2.059516 0
M  V30 15 C -2.663463 -0.819116 -0.707864 0
M  V30 16 C -3.019281 -2.106468 -1.291808 0
M  V30 17 C -3.816269 -2.407469 -2.375584 0
M  V30 18 Cl -4.490411 -0.996529 -3.157616 0
M  V30 19 C -3.999805 -3.726001 -2.724235 0
M  V30 20 O -4.833916 -3.864889 -3.844511 0
M  V30 21 C -5.148232 -5.149206 -4.363779 0
M  V30 22 C -3.409861 -4.745766 -2.021148 0
M  V30 23 C -2.604415 -4.477541 -0.928950 0
M  V30 24 O -2.032660 -5.544951 -0.254051 0
M  V30 25 C -2.229601 -6.891140 -0.623883 0
M  V30 26 C -2.418827 -3.138766 -0.575787 0
M  V30 27 Cl -1.372725 -2.942221 0.833422 0
M  V30 28 C -3.456457 -0.302006 0.298204 0
M  V30 29 C -3.075729 0.907944 0.826481 0
M  V30 30 C -3.878045 1.415992 1.830734 0
M  V30 31 N -3.547838 2.612865 2.387426 0
M  V30 32 C -2.434913 3.228911 1.906009 0
M  V30 33 N -2.053331 4.479998 2.457753 0
M  V30 34 C -1.257932 5.074881 3.512340 0
M  V30 35 N -1.646028 2.747503 0.931224 0
M  V30 36 C -1.952234 1.557694 0.359555 0
M  V30 37 C 2.569012 -0.408191 1.689287 0
M  V30 38 C 3.550155 0.187818 2.643325 0
M  V30 39 H 5.588655 -2.583360 5.464695 0
M  V30 40 H 4.496019 -1.968429 5.226254 0
M  V30 41 H 7.187662 -2.077242 3.751904 0
M  V30 42 H 6.017805 0.715262 0.476799 0
M  V30 43 H 4.776495 1.833817 1.170096 0
M  V30 44 H 3.775961 1.242302 -0.748634 0
M  V30 45 H 4.558567 -0.353248 -0.896967 0
M  V30 46 H 1.768255 -0.103542 -1.441499 0
M  V30 47 H 0.804068 -0.464799 0.071633 0
M  V30 48 H 2.028663 2.243574 -0.639160 0
M  V30 49 H 1.110020 1.876827 0.861655 0
M  V30 50 H 0.146442 1.719206 -2.090911 0
M  V30 51 H -0.283931 2.929899 -0.855789 0
M  V30 52 H -6.104173 -5.125052 -4.927092 0
M  V30 53 H -5.293869 -5.901355 -3.568017 0
M  V30 54 H -4.289499 -5.482028 -4.973370 0
M  V30 55 H -3.636953 -5.710191 -2.401952 0
M  V30 56 H -1.525350 -7.188461 -1.426388 0
M  V30 57 H -3.267183 -7.108218 -0.972297 0
M  V30 58 H -2.037489 -7.572454 0.249372 0
M  V30 59 H -4.330357 -0.812681 0.657207 0
M  V30 60 H -4.757379 0.874708 2.171348 0
M  V30 61 H -2.551764 5.187112 1.849294 0
M  V30 62 H -0.752724 4.316645 4.120627 0
M  V30 63 H -1.893775 5.701711 4.185676 0
M  V30 64 H -0.489407 5.707290 3.037989 0
M  V30 65 H 1.514782 -0.090348 1.919036 0
M  V30 66 H 2.546039 -1.537908 1.863490 0
M  V30 67 H 3.412223 -0.330443 3.621042 0
M  V30 68 H 3.370660 1.280718 2.743505 0
M  V30 END ATOM
M  V30 BEGIN BOND
M  V30 1 2 1 2
M  V30 2 1 2 3
M  V30 3 2 3 4
M  V30 4 1 3 5
M  V30 5 1 5 6
M  V30 6 1 6 7
M  V30 7 1 7 8
M  V30 8 1 8 9
M  V30 9 1 9 10
M  V30 10 1 10 11
M  V30 11 1 11 12
M  V30 12 1 12 13
M  V30 13 2 13 14
M  V30 14 1 13 15
M  V30 15 1 15 16
M  V30 16 2 16 17
M  V30 17 1 17 18
M  V30 18 1 17 19
M  V30 19 1 19 20
M  V30 20 1 20 21
M  V30 21 2 19 22
M  V30 22 1 22 23
M  V30 23 1 23 24
M  V30 24 1 24 25
M  V30 25 2 23 26
M  V30 26 1 26 27
M  V30 27 2 15 28
M  V30 28 1 28 29
M  V30 29 2 29 30
M  V30 30 1 30 31
M  V30 31 2 31 32
M  V30 32 1 32 33
M  V30 33 1 33 34
M  V30 34 1 32 35
M  V30 35 2 35 36
M  V30 36 1 8 37
M  V30 37 1 37 38
M  V30 38 1 38 5
M  V30 39 1 36 12
M  V30 40 1 26 16
M  V30 41 1 36 29
M  V30 42 1 1 39
M  V30 43 1 1 40
M  V30 44 1 2 41
M  V30 45 1 6 42
M  V30 46 1 6 43
M  V30 47 1 7 44
M  V30 48 1 7 45
M  V30 49 1 9 46
M  V30 50 1 9 47
M  V30 51 1 10 48
M  V30 52 1 10 49
M  V30 53 1 11 50
M  V30 54 1 11 51
M  V30 55 1 21 52
M  V30 56 1 21 53
M  V30 57 1 21 54
M  V30 58 1 22 55
M  V30 59 1 25 56
M  V30 60 1 25 57
M  V30 61 1 25 58
M  V30 62 1 28 59
M  V30 63 1 30 60
M  V30 64 1 33 61
M  V30 65 1 34 62
M  V30 66 1 34 63
M  V30 67 1 34 64
M  V30 68 1 37 65
M  V30 69 1 37 66
M  V30 70 1 38 67
M  V30 71 1 38 68
M  V30 END BOND
M  V30 END CTAB
M  END
>  <Dataset>  (520) 
ChEMBL_Kinases

>  <Ligand_Instance>  (520) 
nan

>  <PDB_ID>  (520) 
nan

>  <Standardized_SMILES>  (520) 
C=CC(=O)N1CCN(CCCn2c(=O)c(-c3c(Cl)c(OC)cc(OC)c3Cl)cc3cnc(NC)nc32)CC1

>  <Name>  (520) 
PRN-1371

>  <Pocket>  (520) 
nan

>  <ATP_Site>  (520) 
nan

>  <Peripheral>  (520) 
nan

>  <Num_H_Atoms_ProtBoundConf>  (520) 
nan

>  <Num_Resolved_Atoms>  (520) 
nan

>  <Num_Not_Resolved_Atoms>  (520) 
nan

$$$$
CHEMBL4069954
     RDKit          3D

  0  0  0  0  0  0  0  0  0  0999 V3000
M  V30 BEGIN CTAB
M  V30 COUNTS 65 69 0 0 0
M  V30 BEGIN ATOM
M  V30 1 C 7.249586 -1.607943 6.343229 0
M  V30 2 C 6.365506 -0.834287 5.441048 0
M  V30 3 C 5.542964 -1.504375 4.531121 0
M  V30 4 C 4.715278 -0.775700 3.696446 0
M  V30 5 C 4.671107 0.622180 3.730344 0
M  V30 6 C 3.756286 1.222460 2.801436 0
M  V30 7 C 2.980447 1.706123 2.023836 0
M  V30 8 C 2.048752 2.265123 1.076473 0
M  V30 9 C 2.383099 3.194110 0.087779 0
M  V30 10 C 1.396760 3.644209 -0.786180 0
M  V30 11 C 0.063092 3.210150 -0.730200 0
M  V30 12 C -0.922863 3.719612 -1.660109 0
M  V30 13 C -1.735065 2.956430 -2.388669 0
M  V30 14 C -1.860419 1.496888 -2.464067 0
M  V30 15 C -3.113395 1.262823 -3.235413 0
M  V30 16 C -2.802125 0.272921 -4.352220 0
M  V30 17 O -2.308030 -0.917778 -3.781554 0
M  V30 18 C -4.213737 0.648635 -2.353811 0
M  V30 19 O -3.618058 -0.549344 -1.870147 0
M  V30 20 C -4.198560 -1.454561 -1.027679 0
M  V30 21 O -5.377543 -1.270224 -0.602733 0
M  V30 22 C -3.466041 -2.646904 -0.605421 0
M  V30 23 C -2.180211 -2.983437 -0.986540 0
M  V30 24 N -1.817844 -4.163345 -0.398444 0
M  V30 25 C -0.511874 -4.824930 -0.580057 0
M  V30 26 C -2.858091 -4.576272 0.349351 0
M  V30 27 C -2.934819 -5.735748 1.130282 0
M  V30 28 C -4.145543 -5.900025 1.799094 0
M  V30 29 C -5.180604 -5.018193 1.713766 0
M  V30 30 C -5.066216 -3.870875 0.923341 0
M  V30 31 C -3.887891 -3.657433 0.238054 0
M  V30 32 O -3.608135 2.469623 -3.727799 0
M  V30 33 C -2.739144 3.499369 -3.330286 0
M  V30 34 O -2.867642 4.694588 -3.763612 0
M  V30 35 C -0.236221 2.296956 0.255901 0
M  V30 36 C 0.743595 1.846814 1.127235 0
M  V30 37 C 5.479306 1.280865 4.624486 0
M  V30 38 C 6.301735 0.543364 5.452845 0
M  V30 39 H 7.369191 -2.633879 5.931310 0
M  V30 40 H 6.738412 -1.768976 7.338596 0
M  V30 41 H 8.213439 -1.119198 6.565880 0
M  V30 42 H 5.586541 -2.581231 4.514067 0
M  V30 43 H 4.116963 -1.410804 3.024226 0
M  V30 44 H 3.404121 3.513507 0.058552 0
M  V30 45 H 1.683554 4.361389 -1.539316 0
M  V30 46 H -0.951198 4.817011 -1.721999 0
M  V30 47 H -1.917151 0.961115 -1.509251 0
M  V30 48 H -0.982087 1.057828 -3.014881 0
M  V30 49 H -3.716821 0.014790 -4.890219 0
M  V30 50 H -1.987483 0.669678 -4.984966 0
M  V30 51 H -1.882853 -1.489232 -4.468701 0
M  V30 52 H -4.557186 1.332685 -1.581788 0
M  V30 53 H -5.041061 0.390851 -3.033177 0
M  V30 54 H -1.489660 -2.442148 -1.653234 0
M  V30 55 H 0.171574 -4.427994 0.203627 0
M  V30 56 H -0.614068 -5.922708 -0.569790 0
M  V30 57 H -0.064254 -4.457869 -1.544447 0
M  V30 58 H -2.121726 -6.440432 1.204614 0
M  V30 59 H -4.284273 -6.789318 2.435344 0
M  V30 60 H -6.138811 -5.137379 2.234735 0
M  V30 61 H -5.860145 -3.145444 0.827091 0
M  V30 62 H -1.200573 1.907705 0.420079 0
M  V30 63 H 0.466229 1.116313 1.903037 0
M  V30 64 H 5.400851 2.353236 4.603919 0
M  V30 65 H 6.929971 1.100826 6.150357 0
M  V30 END ATOM
M  V30 BEGIN BOND
M  V30 1 1 1 2
M  V30 2 2 2 3
M  V30 3 1 3 4
M  V30 4 2 4 5
M  V30 5 1 5 6
M  V30 6 3 6 7
M  V30 7 1 7 8
M  V30 8 2 8 9
M  V30 9 1 9 10
M  V30 10 2 10 11
M  V30 11 1 11 12
M  V30 12 2 12 13
M  V30 13 1 13 14
M  V30 14 1 14 15
M  V30 15 1 15 16
M  V30 16 1 16 17
M  V30 17 1 15 18
M  V30 18 1 18 19
M  V30 19 1 19 20
M  V30 20 2 20 21
M  V30 21 1 20 22
M  V30 22 2 22 23
M  V30 23 1 23 24
M  V30 24 1 24 25
M  V30 25 1 24 26
M  V30 26 2 26 27
M  V30 27 1 27 28
M  V30 28 2 28 29
M  V30 29 1 29 30
M  V30 30 2 30 31
M  V30 31 1 15 32
M  V30 32 1 32 33
M  V30 33 2 33 34
M  V30 34 1 11 35
M  V30 35 2 35 36
M  V30 36 1 5 37
M  V30 37 2 37 38
M  V30 38 1 38 2
M  V30 39 1 36 8
M  V30 40 1 33 13
M  V30 41 1 31 22
M  V30 42 1 31 26
M  V30 43 1 1 39
M  V30 44 1 1 40
M  V30 45 1 1 41
M  V30 46 1 3 42
M  V30 47 1 4 43
M  V30 48 1 9 44
M  V30 49 1 10 45
M  V30 50 1 12 46
M  V30 51 1 14 47
M  V30 52 1 14 48
M  V30 53 1 16 49
M  V30 54 1 16 50
M  V30 55 1 17 51
M  V30 56 1 18 52
M  V30 57 1 18 53
M  V30 58 1 23 54
M  V30 59 1 25 55
M  V30 60 1 25 56
M  V30 61 1 25 57
M  V30 62 1 27 58
M  V30 63 1 28 59
M  V30 64 1 29 60
M  V30 65 1 30 61
M  V30 66 1 35 62
M  V30 67 1 36 63
M  V30 68 1 37 64
M  V30 69 1 38 65
M  V30 END BOND
M  V30 END CTAB
M  END
>  <Dataset>  (521) 
ChEMBL_Kinases

>  <Ligand_Instance>  (521) 
nan

>  <PDB_ID>  (521) 
nan

>  <Standardized_SMILES>  (521) 
Cc1ccc(C#Cc2ccc(/C=C3\CC(CO)(COC(=O)c4cn(C)c5ccccc45)OC3=O)cc2)cc1

>  <Name>  (521) 
nan

>  <Pocket>  (521) 
nan

>  <ATP_Site>  (521) 
nan

>  <Peripheral>  (521) 
nan

>  <Num_H_Atoms_ProtBoundConf>  (521) 
nan

>  <Num_Resolved_Atoms>  (521) 
nan

>  <Num_Not_Resolved_Atoms>  (521) 
nan

$$$$
CHEMBL4069805
     RDKit          3D

  0  0  0  0  0  0  0  0  0  0999 V3000
M  V30 BEGIN CTAB
M  V30 COUNTS 68 72 0 0 0
M  V30 BEGIN ATOM
M  V30 1 C 3.593830 -7.084862 1.523695 0
M  V30 2 C 5.058595 -6.768075 1.308755 0
M  V30 3 C 5.221773 -5.300207 1.199656 0
M  V30 4 O 4.185015 -4.604777 1.299691 0
M  V30 5 N 6.458337 -4.656860 0.993074 0
M  V30 6 C 6.771247 -3.284754 0.869905 0
M  V30 7 C 8.076081 -2.907184 0.663400 0
M  V30 8 C 8.432794 -1.582443 0.537142 0
M  V30 9 C 7.500979 -0.554945 0.610518 0
M  V30 10 C 6.189618 -0.919270 0.817189 0
M  V30 11 C 5.252672 0.188261 0.886841 0
M  V30 12 O 5.650389 1.368352 0.758513 0
M  V30 13 N 3.878668 -0.034314 1.099853 0
M  V30 14 C 2.643097 0.626935 1.239568 0
M  V30 15 C 1.846266 0.866622 0.108868 0
M  V30 16 C 0.608827 1.520840 0.207800 0
M  V30 17 C 0.238765 1.905245 1.480398 0
M  V30 18 N -1.015357 2.554755 1.572835 0
M  V30 19 C -1.857417 2.762563 0.449159 0
M  V30 20 C -2.718215 1.680509 0.215875 0
M  V30 21 C -3.632201 1.688033 -0.844627 0
M  V30 22 C -4.497879 0.541100 -1.050510 0
M  V30 23 N -3.857718 -0.589778 -1.461603 0
M  V30 24 C -4.769788 -1.562375 -1.616213 0
M  V30 25 S -4.668803 -3.290448 -2.123620 0
M  V30 26 C -4.419206 -4.392631 -0.732185 0
M  V30 27 N -5.999444 -1.055997 -1.303724 0
M  V30 28 C -5.836296 0.247936 -0.952158 0
M  V30 29 C -6.770265 1.270485 -0.527874 0
M  V30 30 C -7.142167 2.457083 -1.122200 0
M  V30 31 C -8.055934 3.313225 -0.562750 0
M  V30 32 C -8.601195 2.928560 0.649062 0
M  V30 33 F -9.505236 3.787411 1.191819 0
M  V30 34 C -8.273142 1.761774 1.291337 0
M  V30 35 C -7.335850 0.914714 0.686943 0
M  V30 36 C -3.613918 2.815110 -1.615344 0
M  V30 37 C -2.776052 3.893665 -1.405786 0
M  V30 38 N -1.933336 3.819868 -0.381265 0
M  V30 39 C 0.963797 1.706411 2.635442 0
M  V30 40 C 2.191666 1.049754 2.487563 0
M  V30 41 C 5.873840 -2.249090 0.937925 0
M  V30 42 H 2.986600 -6.457622 0.813479 0
M  V30 43 H 3.225311 -6.804141 2.534838 0
M  V30 44 H 3.411157 -8.141599 1.259649 0
M  V30 45 H 5.317574 -7.227006 0.321395 0
M  V30 46 H 5.655734 -7.191452 2.137234 0
M  V30 47 H 7.242870 -5.350817 0.926778 0
M  V30 48 H 8.850010 -3.679277 0.598192 0
M  V30 49 H 9.480966 -1.379931 0.376530 0
M  V30 50 H 7.832237 0.454501 0.506103 0
M  V30 51 H 3.459329 -0.983203 1.219734 0
M  V30 52 H 2.216761 0.529038 -0.847626 0
M  V30 53 H -0.005042 1.706865 -0.656403 0
M  V30 54 H -1.421684 2.932316 2.471834 0
M  V30 55 H -2.729896 0.773255 0.841199 0
M  V30 56 H -2.864458 -0.868241 -1.676496 0
M  V30 57 H -3.318478 -4.471296 -0.516503 0
M  V30 58 H -4.870360 -5.378879 -0.964487 0
M  V30 59 H -4.934543 -4.032892 0.193502 0
M  V30 60 H -6.633893 2.617166 -2.061629 0
M  V30 61 H -8.288571 4.223002 -1.097365 0
M  V30 62 H -8.765365 1.563417 2.240161 0
M  V30 63 H -7.159663 0.022533 1.294368 0
M  V30 64 H -4.291646 2.882840 -2.448752 0
M  V30 65 H -2.778102 4.776724 -2.029156 0
M  V30 66 H 0.597590 2.042391 3.600487 0
M  V30 67 H 2.781887 0.879938 3.377060 0
M  V30 68 H 4.829613 -2.449697 1.097676 0
M  V30 END ATOM
M  V30 BEGIN BOND
M  V30 1 1 1 2
M  V30 2 1 2 3
M  V30 3 2 3 4
M  V30 4 1 3 5
M  V30 5 1 5 6
M  V30 6 2 6 7
M  V30 7 1 7 8
M  V30 8 2 8 9
M  V30 9 1 9 10
M  V30 10 1 10 11
M  V30 11 2 11 12
M  V30 12 1 11 13
M  V30 13 1 13 14
M  V30 14 2 14 15
M  V30 15 1 15 16
M  V30 16 2 16 17
M  V30 17 1 17 18
M  V30 18 1 18 19
M  V30 19 2 19 20
M  V30 20 1 20 21
M  V30 21 1 21 22
M  V30 22 1 22 23
M  V30 23 1 23 24
M  V30 24 1 24 25
M  V30 25 1 25 26
M  V30 26 2 24 27
M  V30 27 1 27 28
M  V30 28 1 28 29
M  V30 29 2 29 30
M  V30 30 1 30 31
M  V30 31 2 31 32
M  V30 32 1 32 33
M  V30 33 1 32 34
M  V30 34 2 34 35
M  V30 35 2 21 36
M  V30 36 1 36 37
M  V30 37 2 37 38
M  V30 38 1 17 39
M  V30 39 2 39 40
M  V30 40 2 10 41
M  V30 41 1 41 6
M  V30 42 1 40 14
M  V30 43 1 38 19
M  V30 44 2 28 22
M  V30 45 1 35 29
M  V30 46 1 1 42
M  V30 47 1 1 43
M  V30 48 1 1 44
M  V30 49 1 2 45
M  V30 50 1 2 46
M  V30 51 1 5 47
M  V30 52 1 7 48
M  V30 53 1 8 49
M  V30 54 1 9 50
M  V30 55 1 13 51
M  V30 56 1 15 52
M  V30 57 1 16 53
M  V30 58 1 18 54
M  V30 59 1 20 55
M  V30 60 1 23 56
M  V30 61 1 26 57
M  V30 62 1 26 58
M  V30 63 1 26 59
M  V30 64 1 30 60
M  V30 65 1 31 61
M  V30 66 1 34 62
M  V30 67 1 35 63
M  V30 68 1 36 64
M  V30 69 1 37 65
M  V30 70 1 39 66
M  V30 71 1 40 67
M  V30 72 1 41 68
M  V30 END BOND
M  V30 END CTAB
M  END
>  <Dataset>  (522) 
ChEMBL_Kinases

>  <Ligand_Instance>  (522) 
nan

>  <PDB_ID>  (522) 
nan

>  <Standardized_SMILES>  (522) 
CCC(=O)Nc1cccc(C(=O)Nc2ccc(Nc3cc(-c4[nH]c(SC)nc4-c4ccc(F)cc4)ccn3)cc2)c1

>  <Name>  (522) 
nan

>  <Pocket>  (522) 
nan

>  <ATP_Site>  (522) 
nan

>  <Peripheral>  (522) 
nan

>  <Num_H_Atoms_ProtBoundConf>  (522) 
nan

>  <Num_Resolved_Atoms>  (522) 
nan

>  <Num_Not_Resolved_Atoms>  (522) 
nan

$$$$
CHEMBL4069729
     RDKit          3D

  0  0  0  0  0  0  0  0  0  0999 V3000
M  V30 BEGIN CTAB
M  V30 COUNTS 60 64 0 0 0
M  V30 BEGIN ATOM
M  V30 1 C 1.916392 -2.888743 -2.826773 0
M  V30 2 C 2.763165 -2.619103 -1.608107 0
M  V30 3 C 2.385210 -1.815151 -0.527391 0
M  V30 4 C 3.471176 -1.854984 0.346683 0
M  V30 5 N 3.546908 -1.161514 1.609521 0
M  V30 6 C 2.389605 -0.411346 2.002036 0
M  V30 7 C 2.159633 0.797541 1.333660 0
M  V30 8 C 1.061791 1.518029 1.718740 0
M  V30 9 N 0.748967 2.738760 1.076338 0
M  V30 10 C 1.719239 3.185431 0.082249 0
M  V30 11 C 1.148101 4.348942 -0.700695 0
M  V30 12 C -0.260416 4.027463 -1.180853 0
M  V30 13 C -1.179438 3.762464 -0.029421 0
M  V30 14 C -0.414811 3.578721 1.277990 0
M  V30 15 N 0.234565 1.085232 2.699941 0
M  V30 16 C 0.439698 -0.058304 3.341948 0
M  V30 17 N -0.182933 -0.816335 4.369665 0
M  V30 18 C -1.159161 -1.512045 3.587695 0
M  V30 19 C -2.016450 -0.973103 2.626249 0
M  V30 20 C -2.856411 -1.831018 1.902789 0
M  V30 21 C -2.798009 -3.180801 2.173839 0
M  V30 22 N -3.718503 -3.847600 1.302320 0
M  V30 23 C -2.940770 -4.057597 0.127550 0
M  V30 24 O -1.744734 -3.606038 0.237763 0
M  V30 25 C -3.321169 -4.706531 -1.163944 0
M  V30 26 C -2.988466 -3.914770 -2.431787 0
M  V30 27 C -2.337623 -5.231128 -2.105390 0
M  V30 28 C -1.955665 -3.692781 3.118059 0
M  V30 29 C -1.120399 -2.869568 3.844048 0
M  V30 30 N 1.513010 -0.781045 2.978172 0
M  V30 31 N 4.405598 -2.642897 -0.220159 0
M  V30 32 N 3.994772 -3.105345 -1.388037 0
M  V30 33 H 1.561845 -3.913606 -2.878869 0
M  V30 34 H 1.014835 -2.226476 -2.816173 0
M  V30 35 H 2.466618 -2.631650 -3.767622 0
M  V30 36 H 1.456599 -1.264593 -0.369856 0
M  V30 37 H 4.441002 -1.264900 2.147745 0
M  V30 38 H 2.847445 1.092129 0.565146 0
M  V30 39 H 2.662790 3.541877 0.532933 0
M  V30 40 H 1.882293 2.373096 -0.676806 0
M  V30 41 H 1.150135 5.297188 -0.158687 0
M  V30 42 H 1.784432 4.500134 -1.612817 0
M  V30 43 H -0.650661 4.838924 -1.827084 0
M  V30 44 H -0.244116 3.115334 -1.830166 0
M  V30 45 H -1.804027 4.664994 0.108103 0
M  V30 46 H -1.867389 2.913585 -0.196026 0
M  V30 47 H -1.101052 3.030015 1.959223 0
M  V30 48 H -0.137383 4.582243 1.688063 0
M  V30 49 H -0.063008 -0.915696 5.394469 0
M  V30 50 H -1.912022 0.098456 2.565442 0
M  V30 51 H -3.431084 -1.224916 1.222202 0
M  V30 52 H -4.691252 -4.204768 1.241744 0
M  V30 53 H -4.345709 -5.126651 -1.173314 0
M  V30 54 H -2.443844 -2.976523 -2.305091 0
M  V30 55 H -3.744163 -3.877817 -3.240056 0
M  V30 56 H -2.597438 -6.075877 -2.774122 0
M  V30 57 H -1.229786 -5.255008 -1.880754 0
M  V30 58 H -2.035528 -4.773087 3.208292 0
M  V30 59 H -0.490336 -3.378215 4.570427 0
M  V30 60 H 4.574608 -3.747987 -2.006175 0
M  V30 END ATOM
M  V30 BEGIN BOND
M  V30 1 1 1 2
M  V30 2 2 2 3
M  V30 3 1 3 4
M  V30 4 1 4 5
M  V30 5 1 5 6
M  V30 6 2 6 7
M  V30 7 1 7 8
M  V30 8 1 8 9
M  V30 9 1 9 10
M  V30 10 1 10 11
M  V30 11 1 11 12
M  V30 12 1 12 13
M  V30 13 1 13 14
M  V30 14 2 8 15
M  V30 15 1 15 16
M  V30 16 1 16 17
M  V30 17 1 17 18
M  V30 18 2 18 19
M  V30 19 1 19 20
M  V30 20 2 20 21
M  V30 21 1 21 22
M  V30 22 1 22 23
M  V30 23 2 23 24
M  V30 24 1 23 25
M  V30 25 1 25 26
M  V30 26 1 26 27
M  V30 27 1 21 28
M  V30 28 2 28 29
M  V30 29 2 16 30
M  V30 30 2 4 31
M  V30 31 1 31 32
M  V30 32 1 32 2
M  V30 33 1 30 6
M  V30 34 1 14 9
M  V30 35 1 29 18
M  V30 36 1 27 25
M  V30 37 1 1 33
M  V30 38 1 1 34
M  V30 39 1 1 35
M  V30 40 1 3 36
M  V30 41 1 5 37
M  V30 42 1 7 38
M  V30 43 1 10 39
M  V30 44 1 10 40
M  V30 45 1 11 41
M  V30 46 1 11 42
M  V30 47 1 12 43
M  V30 48 1 12 44
M  V30 49 1 13 45
M  V30 50 1 13 46
M  V30 51 1 14 47
M  V30 52 1 14 48
M  V30 53 1 17 49
M  V30 54 1 19 50
M  V30 55 1 20 51
M  V30 56 1 22 52
M  V30 57 1 25 53
M  V30 58 1 26 54
M  V30 59 1 26 55
M  V30 60 1 27 56
M  V30 61 1 27 57
M  V30 62 1 28 58
M  V30 63 1 29 59
M  V30 64 1 32 60
M  V30 END BOND
M  V30 END CTAB
M  END
>  <Dataset>  (523) 
ChEMBL_Kinases

>  <Ligand_Instance>  (523) 
nan

>  <PDB_ID>  (523) 
nan

>  <Standardized_SMILES>  (523) 
Cc1cc(Nc2cc(N3CCCCC3)nc(Nc3ccc(NC(=O)C4CC4)cc3)n2)n[nH]1

>  <Name>  (523) 
nan

>  <Pocket>  (523) 
nan

>  <ATP_Site>  (523) 
nan

>  <Peripheral>  (523) 
nan

>  <Num_H_Atoms_ProtBoundConf>  (523) 
nan

>  <Num_Resolved_Atoms>  (523) 
nan

>  <Num_Not_Resolved_Atoms>  (523) 
nan

$$$$
CHEMBL4069163
     RDKit          3D

  0  0  0  0  0  0  0  0  0  0999 V3000
M  V30 BEGIN CTAB
M  V30 COUNTS 37 40 0 0 0
M  V30 BEGIN ATOM
M  V30 1 F 0.384817 -5.035070 4.815348 0
M  V30 2 C 0.797043 -4.375559 3.703140 0
M  V30 3 C 0.380296 -4.781324 2.447410 0
M  V30 4 C 0.805001 -4.103434 1.316053 0
M  V30 5 C 1.645071 -3.018035 1.408084 0
M  V30 6 C 2.145326 -2.236306 0.228241 0
M  V30 7 N 1.214784 -1.151488 -0.056011 0
M  V30 8 C 1.244522 0.096677 0.444391 0
M  V30 9 C 0.202144 0.869407 -0.043463 0
M  V30 10 C -0.085834 2.251869 0.269567 0
M  V30 11 C -1.389267 2.589272 0.543519 0
M  V30 12 C -1.709927 3.909293 0.849695 0
M  V30 13 N -0.759491 4.879214 0.884653 0
M  V30 14 C 0.541786 4.575602 0.617577 0
M  V30 15 C 0.860866 3.253201 0.311191 0
M  V30 16 C -0.465454 0.000111 -0.878397 0
M  V30 17 C -1.588876 0.156081 -1.663443 0
M  V30 18 C -2.103404 -0.861181 -2.439973 0
M  V30 19 N -1.452496 -2.050494 -2.406030 0
M  V30 20 C -0.354919 -2.232664 -1.650456 0
M  V30 21 C 0.153822 -1.213638 -0.877596 0
M  V30 22 C 2.044176 -2.635698 2.667666 0
M  V30 23 C 1.642205 -3.287173 3.828498 0
M  V30 24 H -0.274237 -5.625174 2.359091 0
M  V30 25 H 0.481346 -4.418023 0.335958 0
M  V30 26 H 2.148049 -2.970671 -0.624803 0
M  V30 27 H 3.177627 -1.917133 0.369478 0
M  V30 28 H 2.014435 0.396995 1.138341 0
M  V30 29 H -2.238847 1.934083 0.553201 0
M  V30 30 H -2.717590 4.248302 1.076575 0
M  V30 31 H 1.276150 5.362786 0.651885 0
M  V30 32 H 1.894857 3.002632 0.097175 0
M  V30 33 H -2.095224 1.087247 -1.687594 0
M  V30 34 H -2.985239 -0.697690 -3.040470 0
M  V30 35 H 0.076607 -3.220208 -1.704210 0
M  V30 36 H 2.705650 -1.788065 2.804090 0
M  V30 37 H 1.981872 -2.950168 4.794591 0
M  V30 END ATOM
M  V30 BEGIN BOND
M  V30 1 1 1 2
M  V30 2 2 2 3
M  V30 3 1 3 4
M  V30 4 2 4 5
M  V30 5 1 5 6
M  V30 6 1 6 7
M  V30 7 1 7 8
M  V30 8 2 8 9
M  V30 9 1 9 10
M  V30 10 2 10 11
M  V30 11 1 11 12
M  V30 12 2 12 13
M  V30 13 1 13 14
M  V30 14 2 14 15
M  V30 15 1 9 16
M  V30 16 2 16 17
M  V30 17 1 17 18
M  V30 18 2 18 19
M  V30 19 1 19 20
M  V30 20 2 20 21
M  V30 21 1 5 22
M  V30 22 2 22 23
M  V30 23 1 23 2
M  V30 24 1 21 7
M  V30 25 1 15 10
M  V30 26 1 21 16
M  V30 27 1 3 24
M  V30 28 1 4 25
M  V30 29 1 6 26
M  V30 30 1 6 27
M  V30 31 1 8 28
M  V30 32 1 11 29
M  V30 33 1 12 30
M  V30 34 1 14 31
M  V30 35 1 15 32
M  V30 36 1 17 33
M  V30 37 1 18 34
M  V30 38 1 20 35
M  V30 39 1 22 36
M  V30 40 1 23 37
M  V30 END BOND
M  V30 END CTAB
M  END
>  <Dataset>  (524) 
ChEMBL_Kinases

>  <Ligand_Instance>  (524) 
nan

>  <PDB_ID>  (524) 
nan

>  <Standardized_SMILES>  (524) 
Fc1ccc(Cn2cc(-c3ccncc3)c3ccncc32)cc1

>  <Name>  (524) 
nan

>  <Pocket>  (524) 
nan

>  <ATP_Site>  (524) 
nan

>  <Peripheral>  (524) 
nan

>  <Num_H_Atoms_ProtBoundConf>  (524) 
nan

>  <Num_Resolved_Atoms>  (524) 
nan

>  <Num_Not_Resolved_Atoms>  (524) 
nan

$$$$
CHEMBL3914287
     RDKit          3D

  0  0  0  0  0  0  0  0  0  0999 V3000
M  V30 BEGIN CTAB
M  V30 COUNTS 51 55 0 0 0
M  V30 BEGIN ATOM
M  V30 1 N 4.684007 -2.540563 -1.986878 0
M  V30 2 C 3.634001 -2.878327 -1.035006 0 CFG=1
M  V30 3 C 4.148025 -2.766527 0.394607 0
M  V30 4 C 3.009187 -2.833649 1.364627 0
M  V30 5 C 1.941980 -1.803919 1.128204 0
M  V30 6 N 2.360047 -1.013152 -0.039996 0
M  V30 7 C 2.629354 0.386757 -0.264398 0
M  V30 8 C 3.886648 0.756390 -0.691556 0
M  V30 9 C 4.220388 2.073381 -0.927407 0
M  V30 10 N 3.264420 2.988675 -0.722892 0
M  V30 11 C 2.048142 2.599729 -0.306563 0
M  V30 12 C 1.623352 1.314667 -0.045637 0
M  V30 13 N 0.331497 0.972025 0.389052 0
M  V30 14 C -0.753224 1.826099 0.640890 0
M  V30 15 N -0.841677 3.158812 0.535098 0
M  V30 16 C -2.043489 3.630605 0.861826 0
M  V30 17 C -2.755165 2.502923 1.196124 0
M  V30 18 C -4.071482 2.367806 1.619280 0
M  V30 19 C -4.567777 1.103080 1.900361 0
M  V30 20 C -3.730541 0.035689 1.746668 0
M  V30 21 C -4.306917 -1.262911 2.056131 0
M  V30 22 N -5.536047 -1.561764 1.593332 0
M  V30 23 C -6.164471 -2.713375 1.810588 0
M  V30 24 C -5.515462 -3.673804 2.563090 0
M  V30 25 C -4.255447 -3.458224 3.078778 0
M  V30 26 C -3.670894 -2.240704 2.810215 0
M  V30 27 F -2.433062 -1.941550 3.277056 0
M  V30 28 N -2.467066 0.241984 1.332796 0
M  V30 29 N -1.968745 1.432065 1.058573 0
M  V30 30 C 2.530627 -1.870639 -1.209814 0
M  V30 31 H 4.299455 -1.995783 -2.782573 0
M  V30 32 H 5.096268 -3.406964 -2.399461 0
M  V30 33 H 3.260660 -3.927980 -1.221354 0
M  V30 34 H 4.758149 -3.697279 0.575254 0
M  V30 35 H 4.831912 -1.928694 0.516299 0
M  V30 36 H 3.389855 -2.830243 2.401477 0
M  V30 37 H 2.566026 -3.863135 1.239401 0
M  V30 38 H 0.987681 -2.312410 0.834942 0
M  V30 39 H 1.755214 -1.159299 1.997134 0
M  V30 40 H 4.665639 0.026167 -0.860125 0
M  V30 41 H 5.210796 2.344440 -1.261810 0
M  V30 42 H 1.373255 3.433769 -0.181133 0
M  V30 43 H 0.193660 -0.073720 0.535097 0
M  V30 44 H -2.401788 4.651551 0.871155 0
M  V30 45 H -4.706094 3.222186 1.731246 0
M  V30 46 H -5.591027 1.016331 2.227561 0
M  V30 47 H -7.147467 -2.887286 1.410912 0
M  V30 48 H -5.993759 -4.605315 2.753526 0
M  V30 49 H -3.748013 -4.217315 3.670887 0
M  V30 50 H 2.650024 -1.302245 -2.152409 0
M  V30 51 H 1.567050 -2.445060 -1.308515 0
M  V30 END ATOM
M  V30 BEGIN BOND
M  V30 1 1 1 2
M  V30 2 1 2 3
M  V30 3 1 3 4
M  V30 4 1 4 5
M  V30 5 1 5 6
M  V30 6 1 6 7
M  V30 7 2 7 8
M  V30 8 1 8 9
M  V30 9 2 9 10
M  V30 10 1 10 11
M  V30 11 2 11 12
M  V30 12 1 12 13
M  V30 13 1 13 14
M  V30 14 2 14 15
M  V30 15 1 15 16
M  V30 16 2 16 17
M  V30 17 1 17 18
M  V30 18 2 18 19
M  V30 19 1 19 20
M  V30 20 1 20 21
M  V30 21 2 21 22
M  V30 22 1 22 23
M  V30 23 2 23 24
M  V30 24 1 24 25
M  V30 25 2 25 26
M  V30 26 1 26 27
M  V30 27 2 20 28
M  V30 28 1 28 29
M  V30 29 1 6 30
M  V30 30 1 30 2
M  V30 31 1 12 7
M  V30 32 1 29 14
M  V30 33 1 29 17
M  V30 34 1 26 21
M  V30 35 1 1 31
M  V30 36 1 1 32
M  V30 37 1 2 33 CFG=3
M  V30 38 1 3 34
M  V30 39 1 3 35
M  V30 40 1 4 36
M  V30 41 1 4 37
M  V30 42 1 5 38
M  V30 43 1 5 39
M  V30 44 1 8 40
M  V30 45 1 9 41
M  V30 46 1 11 42
M  V30 47 1 13 43
M  V30 48 1 16 44
M  V30 49 1 18 45
M  V30 50 1 19 46
M  V30 51 1 23 47
M  V30 52 1 24 48
M  V30 53 1 25 49
M  V30 54 1 30 50
M  V30 55 1 30 51
M  V30 END BOND
M  V30 END CTAB
M  END
>  <Dataset>  (525) 
ChEMBL_Kinases

>  <Ligand_Instance>  (525) 
nan

>  <PDB_ID>  (525) 
nan

>  <Standardized_SMILES>  (525) 
N[C@H]1CCCN(c2ccncc2Nc2ncc3ccc(-c4ncccc4F)nn23)C1

>  <Name>  (525) 
nan

>  <Pocket>  (525) 
nan

>  <ATP_Site>  (525) 
nan

>  <Peripheral>  (525) 
nan

>  <Num_H_Atoms_ProtBoundConf>  (525) 
nan

>  <Num_Resolved_Atoms>  (525) 
nan

>  <Num_Not_Resolved_Atoms>  (525) 
nan

$$$$
CHEMBL4069124
     RDKit          3D

  0  0  0  0  0  0  0  0  0  0999 V3000
M  V30 BEGIN CTAB
M  V30 COUNTS 40 43 0 0 0
M  V30 BEGIN ATOM
M  V30 1 C -1.913271 -5.260866 2.910029 0
M  V30 2 C -1.458052 -3.829421 2.831917 0
M  V30 3 C -0.558338 -3.417001 1.847183 0
M  V30 4 C -0.240878 -2.092979 1.904305 0
M  V30 5 C 0.701913 -1.544457 0.913200 0
M  V30 6 C 1.683488 -2.435982 0.475256 0
M  V30 7 C 2.652046 -2.116734 -0.444483 0
M  V30 8 C 2.615637 -0.838167 -0.934858 0
M  V30 9 N 3.580870 -0.524405 -1.850086 0
M  V30 10 C 3.611966 0.712198 -2.378725 0
M  V30 11 C 2.652474 1.603448 -1.958689 0
M  V30 12 N 2.450995 2.863624 -2.307353 0
M  V30 13 N 1.424927 3.301554 -1.648529 0
M  V30 14 N 0.867832 2.388679 -0.822385 0
M  V30 15 C -0.278184 2.649410 0.006638 0
M  V30 16 C -1.567508 2.033563 -0.404384 0
M  V30 17 C -0.031826 2.796650 1.484202 0
M  V30 18 C 1.656240 1.342212 -1.039568 0
M  V30 19 C 1.684497 0.067850 -0.543887 0
M  V30 20 C 0.735085 -0.275518 0.370126 0
M  V30 21 C -0.766300 -1.229075 2.858528 0
M  V30 22 C -1.644956 -1.706885 3.794431 0
M  V30 23 N -1.977290 -3.006275 3.764457 0
M  V30 24 H -1.366730 -5.805228 3.696148 0
M  V30 25 H -3.015810 -5.305876 3.040079 0
M  V30 26 H -1.673027 -5.723712 1.936503 0
M  V30 27 H -0.185165 -4.117849 1.139274 0
M  V30 28 H 1.719064 -3.448674 0.858259 0
M  V30 29 H 3.391245 -2.812079 -0.764618 0
M  V30 30 H 4.358156 1.011239 -3.109091 0
M  V30 31 H -0.506733 3.753467 -0.255977 0
M  V30 32 H -1.340047 1.346913 -1.267837 0
M  V30 33 H -2.090974 1.472002 0.399715 0
M  V30 34 H -2.330929 2.723309 -0.805175 0
M  V30 35 H 1.006478 2.547370 1.787195 0
M  V30 36 H -0.779107 2.169581 2.056058 0
M  V30 37 H -0.216684 3.806819 1.898567 0
M  V30 38 H -0.065133 0.255008 0.806869 0
M  V30 39 H -0.520025 -0.170663 2.913576 0
M  V30 40 H -2.062472 -1.031495 4.548959 0
M  V30 END ATOM
M  V30 BEGIN BOND
M  V30 1 1 1 2
M  V30 2 2 2 3
M  V30 3 1 3 4
M  V30 4 1 4 5
M  V30 5 2 5 6
M  V30 6 1 6 7
M  V30 7 2 7 8
M  V30 8 1 8 9
M  V30 9 2 9 10
M  V30 10 1 10 11
M  V30 11 1 11 12
M  V30 12 2 12 13
M  V30 13 1 13 14
M  V30 14 1 14 15
M  V30 15 1 15 16
M  V30 16 1 15 17
M  V30 17 1 14 18
M  V30 18 1 18 19
M  V30 19 2 19 20
M  V30 20 2 4 21
M  V30 21 1 21 22
M  V30 22 2 22 23
M  V30 23 1 23 2
M  V30 24 1 20 5
M  V30 25 1 19 8
M  V30 26 2 18 11
M  V30 27 1 1 24
M  V30 28 1 1 25
M  V30 29 1 1 26
M  V30 30 1 3 27
M  V30 31 1 6 28
M  V30 32 1 7 29
M  V30 33 1 10 30
M  V30 34 1 15 31
M  V30 35 1 16 32
M  V30 36 1 16 33
M  V30 37 1 16 34
M  V30 38 1 17 35
M  V30 39 1 17 36
M  V30 40 1 17 37
M  V30 41 1 20 38
M  V30 42 1 21 39
M  V30 43 1 22 40
M  V30 END BOND
M  V30 END CTAB
M  END
>  <Dataset>  (526) 
ChEMBL_Kinases

>  <Ligand_Instance>  (526) 
nan

>  <PDB_ID>  (526) 
nan

>  <Standardized_SMILES>  (526) 
Cc1cc(-c2ccc3ncc4nnn(C(C)C)c4c3c2)ccn1

>  <Name>  (526) 
nan

>  <Pocket>  (526) 
nan

>  <ATP_Site>  (526) 
nan

>  <Peripheral>  (526) 
nan

>  <Num_H_Atoms_ProtBoundConf>  (526) 
nan

>  <Num_Resolved_Atoms>  (526) 
nan

>  <Num_Not_Resolved_Atoms>  (526) 
nan

$$$$
CHEMBL3655777
     RDKit          3D

  0  0  0  0  0  0  0  0  0  0999 V3000
M  V30 BEGIN CTAB
M  V30 COUNTS 54 56 0 0 0
M  V30 BEGIN ATOM
M  V30 1 C -2.259210 -2.381431 3.158306 0
M  V30 2 C -1.530685 -3.597800 3.551947 0
M  V30 3 C -0.493364 -4.158772 2.654939 0
M  V30 4 N 0.620891 -3.312719 2.346833 0
M  V30 5 C 0.554748 -2.115556 1.571659 0
M  V30 6 N 1.675993 -1.397318 1.538321 0
M  V30 7 C 1.807282 -0.267985 0.867415 0
M  V30 8 N 2.888572 0.660785 0.702709 0
M  V30 9 C 3.930704 1.552078 0.546374 0
M  V30 10 C 3.447676 2.682451 -0.371220 0
M  V30 11 C 2.840178 3.801310 0.192578 0
M  V30 12 C 2.398628 4.841989 -0.621709 0
M  V30 13 C 2.583415 4.724237 -1.982093 0
M  V30 14 N 3.171086 3.639360 -2.514367 0
M  V30 15 C 3.601615 2.628926 -1.747429 0
M  V30 16 C 0.727018 0.241184 0.131706 0
M  V30 17 N 0.388762 1.289519 -0.665886 0
M  V30 18 C -0.888939 1.139208 -1.054026 0
M  V30 19 N -1.427277 0.018157 -0.541862 0
M  V30 20 C -2.782625 -0.473222 -0.738134 0
M  V30 21 C -3.771918 0.395356 -0.000762 0
M  V30 22 C -3.091546 -0.465833 -2.212664 0
M  V30 23 C -0.430564 -0.521806 0.180130 0
M  V30 24 N -0.444615 -1.632134 0.884081 0
M  V30 25 C -1.080717 -4.870449 1.446220 0
M  V30 26 O -1.535156 -4.018259 0.468257 0
M  V30 27 C -0.120965 -5.857601 0.831310 0
M  V30 28 F 1.050727 -5.248641 0.393031 0
M  V30 29 F 0.223415 -6.860836 1.732058 0
M  V30 30 F -0.667805 -6.500414 -0.259507 0
M  V30 31 H -1.733400 -1.415563 3.297838 0
M  V30 32 H -2.752970 -2.409602 2.189986 0
M  V30 33 H -3.123938 -2.291003 3.900420 0
M  V30 34 H -2.305602 -4.411833 3.688925 0
M  V30 35 H -1.078187 -3.488588 4.560062 0
M  V30 36 H -0.066423 -5.038697 3.256865 0
M  V30 37 H 1.568658 -3.622270 2.735480 0
M  V30 38 H 3.549674 0.088161 1.320959 0
M  V30 39 H 4.237797 2.098449 1.481863 0
M  V30 40 H 4.882733 1.160963 0.074180 0
M  V30 41 H 2.693960 3.897839 1.259477 0
M  V30 42 H 1.922803 5.728367 -0.237553 0
M  V30 43 H 2.259434 5.506496 -2.667836 0
M  V30 44 H 4.087514 1.723850 -2.143782 0
M  V30 45 H -1.358261 1.878382 -1.705349 0
M  V30 46 H -2.855614 -1.545480 -0.418299 0
M  V30 47 H -3.252350 1.325995 0.294404 0
M  V30 48 H -4.580380 0.665836 -0.691361 0
M  V30 49 H -4.189260 -0.113183 0.894366 0
M  V30 50 H -3.285817 0.605007 -2.484165 0
M  V30 51 H -2.209770 -0.794867 -2.763065 0
M  V30 52 H -3.996510 -1.076314 -2.445769 0
M  V30 53 H -1.953293 -5.478547 1.812550 0
M  V30 54 H -1.955164 -4.450635 -0.289709 0
M  V30 END ATOM
M  V30 BEGIN BOND
M  V30 1 1 1 2
M  V30 2 1 2 3
M  V30 3 1 3 4
M  V30 4 1 4 5
M  V30 5 2 5 6
M  V30 6 1 6 7
M  V30 7 1 7 8
M  V30 8 1 8 9
M  V30 9 1 9 10
M  V30 10 2 10 11
M  V30 11 1 11 12
M  V30 12 2 12 13
M  V30 13 1 13 14
M  V30 14 2 14 15
M  V30 15 2 7 16
M  V30 16 1 16 17
M  V30 17 2 17 18
M  V30 18 1 18 19
M  V30 19 1 19 20
M  V30 20 1 20 21
M  V30 21 1 20 22
M  V30 22 1 19 23
M  V30 23 2 23 24
M  V30 24 1 3 25
M  V30 25 1 25 26
M  V30 26 1 25 27
M  V30 27 1 27 28
M  V30 28 1 27 29
M  V30 29 1 27 30
M  V30 30 1 24 5
M  V30 31 1 15 10
M  V30 32 1 23 16
M  V30 33 1 1 31
M  V30 34 1 1 32
M  V30 35 1 1 33
M  V30 36 1 2 34
M  V30 37 1 2 35
M  V30 38 1 3 36
M  V30 39 1 4 37
M  V30 40 1 8 38
M  V30 41 1 9 39
M  V30 42 1 9 40
M  V30 43 1 11 41
M  V30 44 1 12 42
M  V30 45 1 13 43
M  V30 46 1 15 44
M  V30 47 1 18 45
M  V30 48 1 20 46
M  V30 49 1 21 47
M  V30 50 1 21 48
M  V30 51 1 21 49
M  V30 52 1 22 50
M  V30 53 1 22 51
M  V30 54 1 22 52
M  V30 55 1 25 53
M  V30 56 1 26 54
M  V30 END BOND
M  V30 END CTAB
M  END
>  <Dataset>  (527) 
ChEMBL_Kinases

>  <Ligand_Instance>  (527) 
nan

>  <PDB_ID>  (527) 
nan

>  <Standardized_SMILES>  (527) 
CCC(Nc1nc(NCc2cccnc2)c2ncn(C(C)C)c2n1)C(O)C(F)(F)F

>  <Name>  (527) 
nan

>  <Pocket>  (527) 
nan

>  <ATP_Site>  (527) 
nan

>  <Peripheral>  (527) 
nan

>  <Num_H_Atoms_ProtBoundConf>  (527) 
nan

>  <Num_Resolved_Atoms>  (527) 
nan

>  <Num_Not_Resolved_Atoms>  (527) 
nan

$$$$
CHEMBL3655776
     RDKit          3D

  0  0  0  0  0  0  0  0  0  0999 V3000
M  V30 BEGIN CTAB
M  V30 COUNTS 48 50 0 0 0
M  V30 BEGIN ATOM
M  V30 1 C -0.483354 -4.787195 0.911307 0
M  V30 2 C 0.866092 -4.308695 0.391294 0
M  V30 3 C 0.634959 -3.851808 -1.048013 0
M  V30 4 N 1.322995 -3.157026 1.153947 0
M  V30 5 C 2.377848 -3.143386 2.005436 0
M  V30 6 N 2.475587 -1.918300 2.504953 0
M  V30 7 C 1.486704 -1.171014 1.967944 0
M  V30 8 C 1.156757 0.174538 2.165583 0
M  V30 9 N 1.905447 0.992745 3.050530 0
M  V30 10 C 1.727968 2.389571 3.386919 0
M  V30 11 C 1.880336 3.226075 2.174276 0
M  V30 12 C 0.928892 3.673060 1.314286 0
M  V30 13 C 1.194330 4.441150 0.208582 0
M  V30 14 C 2.511299 4.748273 0.004040 0
M  V30 15 N 3.483930 4.331399 0.823282 0
M  V30 16 C 3.191854 3.577252 1.902508 0
M  V30 17 N 0.102793 0.637195 1.478569 0
M  V30 18 C -0.598121 -0.137220 0.649757 0
M  V30 19 N -1.700001 0.390832 -0.056149 0
M  V30 20 C -2.527974 -0.370549 -0.971302 0
M  V30 21 C -3.210214 -1.517600 -0.280538 0
M  V30 22 O -3.998975 -0.967537 0.723578 0
M  V30 23 C -4.062522 -2.226025 -1.320974 0
M  V30 24 F -4.998747 -1.380383 -1.850235 0
M  V30 25 F -4.730504 -3.272816 -0.705394 0
M  V30 26 F -3.233658 -2.769670 -2.279013 0
M  V30 27 N -0.281935 -1.430302 0.459091 0
M  V30 28 C 0.749470 -1.950106 1.108360 0
M  V30 29 H -0.561722 -4.489765 1.983263 0
M  V30 30 H -0.565623 -5.887835 0.866890 0
M  V30 31 H -1.317162 -4.339209 0.345733 0
M  V30 32 H 1.635520 -5.095652 0.438282 0
M  V30 33 H -0.315634 -3.293795 -1.078156 0
M  V30 34 H 0.573702 -4.755219 -1.686617 0
M  V30 35 H 1.506419 -3.252418 -1.407573 0
M  V30 36 H 3.020378 -3.968817 2.237525 0
M  V30 37 H 2.707416 0.514735 3.533046 0
M  V30 38 H 0.666466 2.516039 3.736282 0
M  V30 39 H 2.422275 2.707826 4.163704 0
M  V30 40 H -0.082731 3.394206 1.548203 0
M  V30 41 H 0.394732 4.761388 -0.431172 0
M  V30 42 H 2.804334 5.354669 -0.852480 0
M  V30 43 H 4.055283 3.296401 2.495155 0
M  V30 44 H -1.965138 1.404890 0.068803 0
M  V30 45 H -3.238765 0.252805 -1.512646 0
M  V30 46 H -1.852694 -0.827647 -1.754952 0
M  V30 47 H -2.468571 -2.246047 0.064703 0
M  V30 48 H -4.845715 -1.436229 0.864102 0
M  V30 END ATOM
M  V30 BEGIN BOND
M  V30 1 1 1 2
M  V30 2 1 2 3
M  V30 3 1 2 4
M  V30 4 1 4 5
M  V30 5 2 5 6
M  V30 6 1 6 7
M  V30 7 2 7 8
M  V30 8 1 8 9
M  V30 9 1 9 10
M  V30 10 1 10 11
M  V30 11 2 11 12
M  V30 12 1 12 13
M  V30 13 2 13 14
M  V30 14 1 14 15
M  V30 15 2 15 16
M  V30 16 1 8 17
M  V30 17 2 17 18
M  V30 18 1 18 19
M  V30 19 1 19 20
M  V30 20 1 20 21
M  V30 21 1 21 22
M  V30 22 1 21 23
M  V30 23 1 23 24
M  V30 24 1 23 25
M  V30 25 1 23 26
M  V30 26 1 18 27
M  V30 27 2 27 28
M  V30 28 1 28 4
M  V30 29 1 28 7
M  V30 30 1 16 11
M  V30 31 1 1 29
M  V30 32 1 1 30
M  V30 33 1 1 31
M  V30 34 1 2 32
M  V30 35 1 3 33
M  V30 36 1 3 34
M  V30 37 1 3 35
M  V30 38 1 5 36
M  V30 39 1 9 37
M  V30 40 1 10 38
M  V30 41 1 10 39
M  V30 42 1 12 40
M  V30 43 1 13 41
M  V30 44 1 14 42
M  V30 45 1 16 43
M  V30 46 1 19 44
M  V30 47 1 20 45
M  V30 48 1 20 46
M  V30 49 1 21 47
M  V30 50 1 22 48
M  V30 END BOND
M  V30 END CTAB
M  END
>  <Dataset>  (528) 
ChEMBL_Kinases

>  <Ligand_Instance>  (528) 
nan

>  <PDB_ID>  (528) 
nan

>  <Standardized_SMILES>  (528) 
CC(C)n1cnc2c(NCc3cccnc3)nc(NCC(O)C(F)(F)F)nc21

>  <Name>  (528) 
nan

>  <Pocket>  (528) 
nan

>  <ATP_Site>  (528) 
nan

>  <Peripheral>  (528) 
nan

>  <Num_H_Atoms_ProtBoundConf>  (528) 
nan

>  <Num_Resolved_Atoms>  (528) 
nan

>  <Num_Not_Resolved_Atoms>  (528) 
nan

$$$$
CHEMBL4068933
     RDKit          3D

  0  0  0  0  0  0  0  0  0  0999 V3000
M  V30 BEGIN CTAB
M  V30 COUNTS 29 31 0 0 0
M  V30 BEGIN ATOM
M  V30 1 N -1.671090 -4.686089 3.238946 0
M  V30 2 S -0.010197 -4.249645 3.410478 0
M  V30 3 O 0.221142 -3.793137 4.820635 0
M  V30 4 O 0.805623 -5.465520 3.061197 0
M  V30 5 C 0.330572 -2.902772 2.330081 0
M  V30 6 C 0.159086 -1.625931 2.814999 0
M  V30 7 C 0.400240 -0.506623 2.045389 0
M  V30 8 C 0.828500 -0.659124 0.743028 0
M  V30 9 C 1.143273 0.362931 -0.248859 0
M  V30 10 N 2.269377 0.234090 -0.990489 0
M  V30 11 C 2.633231 1.130317 -1.925654 0
M  V30 12 N 1.870817 2.228465 -2.173267 0
M  V30 13 C 0.729919 2.413075 -1.462003 0
M  V30 14 N -0.199689 3.385631 -1.492260 0
M  V30 15 C -1.140376 3.079382 -0.565862 0
M  V30 16 C -0.793549 1.892626 0.056475 0
M  V30 17 C 0.389147 1.486314 -0.521351 0
M  V30 18 C 0.999007 -1.950536 0.261547 0
M  V30 19 C 0.756766 -3.077195 1.034706 0
M  V30 20 H -2.270183 -4.243393 3.994482 0
M  V30 21 H -2.045580 -4.292561 2.326267 0
M  V30 22 H -0.173518 -1.430231 3.824102 0
M  V30 23 H 0.293684 0.525752 2.339776 0
M  V30 24 H 3.537720 1.021575 -2.517439 0
M  V30 25 H -0.201724 4.235799 -2.121276 0
M  V30 26 H -2.006567 3.710396 -0.389956 0
M  V30 27 H -1.350362 1.407072 0.830434 0
M  V30 28 H 1.332247 -2.196191 -0.748031 0
M  V30 29 H 0.885381 -4.086878 0.672597 0
M  V30 END ATOM
M  V30 BEGIN BOND
M  V30 1 1 1 2
M  V30 2 2 2 3
M  V30 3 2 2 4
M  V30 4 1 2 5
M  V30 5 2 5 6
M  V30 6 1 6 7
M  V30 7 2 7 8
M  V30 8 1 8 9
M  V30 9 2 9 10
M  V30 10 1 10 11
M  V30 11 2 11 12
M  V30 12 1 12 13
M  V30 13 1 13 14
M  V30 14 1 14 15
M  V30 15 2 15 16
M  V30 16 1 16 17
M  V30 17 1 8 18
M  V30 18 2 18 19
M  V30 19 1 19 5
M  V30 20 1 17 9
M  V30 21 2 17 13
M  V30 22 1 1 20
M  V30 23 1 1 21
M  V30 24 1 6 22
M  V30 25 1 7 23
M  V30 26 1 11 24
M  V30 27 1 14 25
M  V30 28 1 15 26
M  V30 29 1 16 27
M  V30 30 1 18 28
M  V30 31 1 19 29
M  V30 END BOND
M  V30 END CTAB
M  END
>  <Dataset>  (529) 
ChEMBL_Kinases

>  <Ligand_Instance>  (529) 
nan

>  <PDB_ID>  (529) 
nan

>  <Standardized_SMILES>  (529) 
NS(=O)(=O)c1ccc(-c2ncnc3[nH]ccc23)cc1

>  <Name>  (529) 
nan

>  <Pocket>  (529) 
nan

>  <ATP_Site>  (529) 
nan

>  <Peripheral>  (529) 
nan

>  <Num_H_Atoms_ProtBoundConf>  (529) 
nan

>  <Num_Resolved_Atoms>  (529) 
nan

>  <Num_Not_Resolved_Atoms>  (529) 
nan

$$$$
CHEMBL3658023
     RDKit          3D

  0  0  0  0  0  0  0  0  0  0999 V3000
M  V30 BEGIN CTAB
M  V30 COUNTS 70 74 0 0 0
M  V30 BEGIN ATOM
M  V30 1 C 3.140263 -5.759712 4.204418 0
M  V30 2 N 2.748387 -4.711085 3.275496 0
M  V30 3 C 1.329021 -4.596402 2.942492 0
M  V30 4 C 3.794272 -3.872095 2.760542 0
M  V30 5 O 4.812536 -4.361801 3.334389 0
M  V30 6 C 3.501826 -2.795955 1.824807 0
M  V30 7 C 3.717025 -3.075226 0.470355 0
M  V30 8 C 3.370688 -1.921691 -0.201528 0
M  V30 9 C 3.340485 -1.518955 -1.516765 0
M  V30 10 N 2.930359 -0.267816 -1.879973 0
M  V30 11 C 2.540219 0.602744 -0.899385 0
M  V30 12 N 2.141545 1.842639 -1.470890 0
M  V30 13 C 0.746661 1.974529 -1.799797 0
M  V30 14 C 0.207738 3.129328 -2.378799 0
M  V30 15 C -1.156351 3.190757 -2.672481 0
M  V30 16 C -2.016939 2.149972 -2.415381 0
M  V30 17 N -3.394155 2.138683 -2.701970 0
M  V30 18 C -4.085376 3.140679 -3.475283 0
M  V30 19 C -4.330169 2.505134 -4.851494 0
M  V30 20 C -4.271975 1.002669 -4.759607 0
M  V30 21 C -4.837584 0.321551 -5.954027 0
M  V30 22 C -4.124550 0.673629 -7.226016 0
M  V30 23 O -4.157057 2.000132 -7.563786 0
M  V30 24 C -4.976500 0.528489 -3.487530 0
M  V30 25 C -4.327677 1.118923 -2.272098 0
M  V30 26 C -1.438883 1.039043 -1.846507 0
M  V30 27 N -0.127916 0.982641 -1.565598 0
M  V30 28 N 2.559843 0.232001 0.411247 0
M  V30 29 C 2.966786 -1.008448 0.766058 0
M  V30 30 N 3.048834 -1.545221 1.997235 0
M  V30 31 C 2.722957 -0.919075 3.231931 0
M  V30 32 C 1.277853 -1.049899 3.648804 0
M  V30 33 C 1.279249 -1.388218 5.115473 0
M  V30 34 C 2.674631 -1.878100 5.448240 0
M  V30 35 C 3.585673 -1.231603 4.402298 0
M  V30 36 H 4.091542 -6.255862 3.871518 0
M  V30 37 H 2.372294 -6.559246 4.303654 0
M  V30 38 H 3.379312 -5.327234 5.201372 0
M  V30 39 H 0.738702 -4.201370 3.790687 0
M  V30 40 H 1.249303 -3.915276 2.044850 0
M  V30 41 H 0.887819 -5.552630 2.630461 0
M  V30 42 H 4.070108 -3.956913 -0.045287 0
M  V30 43 H 3.657517 -2.230497 -2.291684 0
M  V30 44 H 2.756553 2.652842 -1.670642 0
M  V30 45 H 0.863063 3.943644 -2.583148 0
M  V30 46 H -1.549821 4.087134 -3.116919 0
M  V30 47 H -5.064717 3.369669 -3.034157 0
M  V30 48 H -3.535997 4.101158 -3.552017 0
M  V30 49 H -5.313755 2.789624 -5.268054 0
M  V30 50 H -3.556675 2.884467 -5.562900 0
M  V30 51 H -3.211616 0.694233 -4.623058 0
M  V30 52 H -4.788857 -0.782144 -5.817426 0
M  V30 53 H -5.916762 0.616271 -6.123678 0
M  V30 54 H -3.065898 0.320830 -7.119253 0
M  V30 55 H -4.526732 0.101402 -8.093148 0
M  V30 56 H -4.250557 2.126164 -8.545513 0
M  V30 57 H -4.876994 -0.577845 -3.425439 0
M  V30 58 H -6.047883 0.787354 -3.596158 0
M  V30 59 H -5.149468 1.664902 -1.713909 0
M  V30 60 H -3.898560 0.372434 -1.587345 0
M  V30 61 H -1.923200 0.117919 -1.566871 0
M  V30 62 H 2.857115 0.195253 3.053827 0
M  V30 63 H 0.698614 -0.092089 3.544060 0
M  V30 64 H 0.769638 -1.760695 3.000732 0
M  V30 65 H 0.505036 -2.143687 5.301092 0
M  V30 66 H 1.099030 -0.470686 5.745691 0
M  V30 67 H 2.951496 -1.564465 6.490865 0
M  V30 68 H 2.703173 -2.966193 5.446847 0
M  V30 69 H 3.958070 -0.300866 4.932753 0
M  V30 70 H 4.496910 -1.797578 4.205773 0
M  V30 END ATOM
M  V30 BEGIN BOND
M  V30 1 1 1 2
M  V30 2 1 2 3
M  V30 3 1 2 4
M  V30 4 2 4 5
M  V30 5 1 4 6
M  V30 6 2 6 7
M  V30 7 1 7 8
M  V30 8 2 8 9
M  V30 9 1 9 10
M  V30 10 2 10 11
M  V30 11 1 11 12
M  V30 12 1 12 13
M  V30 13 2 13 14
M  V30 14 1 14 15
M  V30 15 2 15 16
M  V30 16 1 16 17
M  V30 17 1 17 18
M  V30 18 1 18 19
M  V30 19 1 19 20
M  V30 20 1 20 21
M  V30 21 1 21 22
M  V30 22 1 22 23
M  V30 23 1 20 24
M  V30 24 1 24 25
M  V30 25 1 16 26
M  V30 26 2 26 27
M  V30 27 1 11 28
M  V30 28 2 28 29
M  V30 29 1 29 30
M  V30 30 1 30 31
M  V30 31 1 31 32
M  V30 32 1 32 33
M  V30 33 1 33 34
M  V30 34 1 34 35
M  V30 35 1 30 6
M  V30 36 1 35 31
M  V30 37 1 29 8
M  V30 38 1 27 13
M  V30 39 1 25 17
M  V30 40 1 1 36
M  V30 41 1 1 37
M  V30 42 1 1 38
M  V30 43 1 3 39
M  V30 44 1 3 40
M  V30 45 1 3 41
M  V30 46 1 7 42
M  V30 47 1 9 43
M  V30 48 1 12 44
M  V30 49 1 14 45
M  V30 50 1 15 46
M  V30 51 1 18 47
M  V30 52 1 18 48
M  V30 53 1 19 49
M  V30 54 1 19 50
M  V30 55 1 20 51
M  V30 56 1 21 52
M  V30 57 1 21 53
M  V30 58 1 22 54
M  V30 59 1 22 55
M  V30 60 1 23 56
M  V30 61 1 24 57
M  V30 62 1 24 58
M  V30 63 1 25 59
M  V30 64 1 25 60
M  V30 65 1 26 61
M  V30 66 1 31 62
M  V30 67 1 32 63
M  V30 68 1 32 64
M  V30 69 1 33 65
M  V30 70 1 33 66
M  V30 71 1 34 67
M  V30 72 1 34 68
M  V30 73 1 35 69
M  V30 74 1 35 70
M  V30 END BOND
M  V30 END CTAB
M  END
>  <Dataset>  (530) 
ChEMBL_Kinases

>  <Ligand_Instance>  (530) 
nan

>  <PDB_ID>  (530) 
nan

>  <Standardized_SMILES>  (530) 
CN(C)C(=O)c1cc2cnc(Nc3ccc(N4CCC(CCO)CC4)cn3)nc2n1C1CCCC1

>  <Name>  (530) 
nan

>  <Pocket>  (530) 
nan

>  <ATP_Site>  (530) 
nan

>  <Peripheral>  (530) 
nan

>  <Num_H_Atoms_ProtBoundConf>  (530) 
nan

>  <Num_Resolved_Atoms>  (530) 
nan

>  <Num_Not_Resolved_Atoms>  (530) 
nan

$$$$
CHEMBL3629384
     RDKit          3D

  0  0  0  0  0  0  0  0  0  0999 V3000
M  V30 BEGIN CTAB
M  V30 COUNTS 43 47 0 0 0
M  V30 BEGIN ATOM
M  V30 1 O 3.052421 -4.936505 -0.963594 0
M  V30 2 C 2.035660 -5.100163 -0.261518 0
M  V30 3 C 1.191898 -3.934521 0.027687 0
M  V30 4 C 0.052672 -3.930346 0.772037 0
M  V30 5 N -0.413250 -2.669099 0.792498 0
M  V30 6 C 0.422614 -1.865371 0.064406 0
M  V30 7 C 1.425153 -2.648965 -0.414751 0
M  V30 8 C 2.434390 -2.103565 -1.197465 0
M  V30 9 C 2.445511 -0.756597 -1.507979 0
M  V30 10 C 1.417025 0.021950 -1.010778 0
M  V30 11 C 1.187315 1.368737 -1.163992 0
M  V30 12 C 1.870109 2.367975 -1.835436 0
M  V30 13 C 1.336886 3.638519 -1.773065 0
M  V30 14 C 0.179632 3.935506 -1.083448 0
M  V30 15 C -0.503432 2.932987 -0.411091 0
M  V30 16 C 0.024172 1.659051 -0.469023 0
M  V30 17 N -0.446780 0.531065 0.092930 0
M  V30 18 C 0.395602 -0.500676 -0.225248 0
M  V30 19 C -1.620812 0.320069 0.906622 0
M  V30 20 C -1.470510 -0.745576 1.936402 0
M  V30 21 O -0.362616 -0.657729 2.709059 0
M  V30 22 C -0.486539 -0.423967 4.038904 0
M  V30 23 C 0.879497 -0.369622 4.678122 0
M  V30 24 O 0.729323 -0.127452 6.050609 0
M  V30 25 C -1.616991 -2.156839 1.466154 0
M  V30 26 H 1.773159 -6.067228 0.128241 0
M  V30 27 H -0.443262 -4.745070 1.280164 0
M  V30 28 H 3.250304 -2.692395 -1.598417 0
M  V30 29 H 3.239883 -0.337657 -2.121694 0
M  V30 30 H 2.779175 2.173249 -2.385845 0
M  V30 31 H 1.869448 4.443315 -2.302498 0
M  V30 32 H -0.237031 4.946314 -1.038767 0
M  V30 33 H -1.416473 3.125742 0.142357 0
M  V30 34 H -2.437544 0.064935 0.197223 0
M  V30 35 H -1.908677 1.306236 1.319155 0
M  V30 36 H -2.328009 -0.590433 2.636069 0
M  V30 37 H -1.169146 0.385005 4.345403 0
M  V30 38 H -0.972219 -1.343297 4.479171 0
M  V30 39 H 1.327517 -1.381559 4.586203 0
M  V30 40 H 1.568916 0.349579 4.209564 0
M  V30 41 H 1.215517 -0.769710 6.591622 0
M  V30 42 H -1.768507 -2.794355 2.356841 0
M  V30 43 H -2.527032 -2.300917 0.845955 0
M  V30 END ATOM
M  V30 BEGIN BOND
M  V30 1 2 1 2
M  V30 2 1 2 3
M  V30 3 2 3 4
M  V30 4 1 4 5
M  V30 5 1 5 6
M  V30 6 2 6 7
M  V30 7 1 7 8
M  V30 8 2 8 9
M  V30 9 1 9 10
M  V30 10 1 10 11
M  V30 11 2 11 12
M  V30 12 1 12 13
M  V30 13 2 13 14
M  V30 14 1 14 15
M  V30 15 2 15 16
M  V30 16 1 16 17
M  V30 17 1 17 18
M  V30 18 1 17 19
M  V30 19 1 19 20
M  V30 20 1 20 21
M  V30 21 1 21 22
M  V30 22 1 22 23
M  V30 23 1 23 24
M  V30 24 1 20 25
M  V30 25 1 7 3
M  V30 26 2 18 10
M  V30 27 1 25 5
M  V30 28 1 18 6
M  V30 29 1 16 11
M  V30 30 1 2 26
M  V30 31 1 4 27
M  V30 32 1 8 28
M  V30 33 1 9 29
M  V30 34 1 12 30
M  V30 35 1 13 31
M  V30 36 1 14 32
M  V30 37 1 15 33
M  V30 38 1 19 34
M  V30 39 1 19 35
M  V30 40 1 20 36
M  V30 41 1 22 37
M  V30 42 1 22 38
M  V30 43 1 23 39
M  V30 44 1 23 40
M  V30 45 1 24 41
M  V30 46 1 25 42
M  V30 47 1 25 43
M  V30 END BOND
M  V30 END CTAB
M  END
>  <Dataset>  (531) 
ChEMBL_Kinases

>  <Ligand_Instance>  (531) 
nan

>  <PDB_ID>  (531) 
nan

>  <Standardized_SMILES>  (531) 
O=Cc1cn2c3c1ccc1c4ccccc4n(c13)CC(OCCO)C2

>  <Name>  (531) 
nan

>  <Pocket>  (531) 
nan

>  <ATP_Site>  (531) 
nan

>  <Peripheral>  (531) 
nan

>  <Num_H_Atoms_ProtBoundConf>  (531) 
nan

>  <Num_Resolved_Atoms>  (531) 
nan

>  <Num_Not_Resolved_Atoms>  (531) 
nan

$$$$
CHEMBL3629391
     RDKit          3D

  0  0  0  0  0  0  0  0  0  0999 V3000
M  V30 BEGIN CTAB
M  V30 COUNTS 45 49 0 0 0
M  V30 BEGIN ATOM
M  V30 1 O 1.471297 -6.218880 0.010222 0
M  V30 2 C 1.593287 -5.210732 -0.764184 0
M  V30 3 C 1.092820 -3.894067 -0.391438 0
M  V30 4 C 0.462070 -3.611763 0.786544 0
M  V30 5 N 0.122022 -2.294966 0.822994 0
M  V30 6 C 0.560380 -1.799666 -0.352273 0
M  V30 7 C 1.159135 -2.748442 -1.119722 0
M  V30 8 C 1.673114 -2.418139 -2.361102 0
M  V30 9 C 1.574433 -1.101090 -2.825759 0
M  V30 10 C 0.968994 -0.131277 -2.056160 0
M  V30 11 C 0.677681 1.192066 -2.128768 0
M  V30 12 C 0.945002 2.106513 -3.154517 0
M  V30 13 C 0.564891 3.431558 -3.043230 0
M  V30 14 C -0.091767 3.854699 -1.893424 0
M  V30 15 C -0.338127 2.926464 -0.904233 0
M  V30 16 C 0.036482 1.603932 -1.005356 0
M  V30 17 N -0.094917 0.538303 -0.184868 0
M  V30 18 C 0.469981 -0.503711 -0.824775 0
M  V30 19 C -0.739738 0.664324 1.070841 0
M  V30 20 C -0.430097 -0.276755 2.162072 0
M  V30 21 O -1.266990 0.080378 3.239297 0
M  V30 22 C -0.661539 0.559364 4.341279 0
M  V30 23 C 0.255893 -0.294646 5.126193 0
M  V30 24 C -0.395599 -1.505095 5.729597 0
M  V30 25 Br -1.805598 -0.855351 6.926401 0
M  V30 26 C -0.556067 -1.727826 1.977101 0
M  V30 27 H 2.090814 -5.409675 -1.705598 0
M  V30 28 H 0.261683 -4.319679 1.570750 0
M  V30 29 H 2.139883 -3.179770 -2.947835 0
M  V30 30 H 1.960087 -0.807419 -3.780036 0
M  V30 31 H 1.452142 1.767034 -4.035998 0
M  V30 32 H 0.781261 4.123659 -3.848819 0
M  V30 33 H -0.392117 4.908305 -1.808883 0
M  V30 34 H -0.853332 3.277627 -0.011940 0
M  V30 35 H -1.848814 0.614325 0.851069 0
M  V30 36 H -0.621847 1.700238 1.463854 0
M  V30 37 H 0.608720 -0.073068 2.526376 0
M  V30 38 H -0.177479 1.575068 4.189313 0
M  V30 39 H -1.501069 0.831343 5.056261 0
M  V30 40 H 1.217091 -0.527365 4.623730 0
M  V30 41 H 0.581526 0.335916 6.005633 0
M  V30 42 H 0.298700 -2.053135 6.419475 0
M  V30 43 H -0.781515 -2.249854 5.046451 0
M  V30 44 H -0.021966 -2.209699 2.853468 0
M  V30 45 H -1.611977 -2.042053 2.070141 0
M  V30 END ATOM
M  V30 BEGIN BOND
M  V30 1 2 1 2
M  V30 2 1 2 3
M  V30 3 2 3 4
M  V30 4 1 4 5
M  V30 5 1 5 6
M  V30 6 2 6 7
M  V30 7 1 7 8
M  V30 8 2 8 9
M  V30 9 1 9 10
M  V30 10 1 10 11
M  V30 11 2 11 12
M  V30 12 1 12 13
M  V30 13 2 13 14
M  V30 14 1 14 15
M  V30 15 2 15 16
M  V30 16 1 16 17
M  V30 17 1 17 18
M  V30 18 1 17 19
M  V30 19 1 19 20
M  V30 20 1 20 21
M  V30 21 1 21 22
M  V30 22 1 22 23
M  V30 23 1 23 24
M  V30 24 1 24 25
M  V30 25 1 20 26
M  V30 26 1 7 3
M  V30 27 2 18 10
M  V30 28 1 26 5
M  V30 29 1 18 6
M  V30 30 1 16 11
M  V30 31 1 2 27
M  V30 32 1 4 28
M  V30 33 1 8 29
M  V30 34 1 9 30
M  V30 35 1 12 31
M  V30 36 1 13 32
M  V30 37 1 14 33
M  V30 38 1 15 34
M  V30 39 1 19 35
M  V30 40 1 19 36
M  V30 41 1 20 37
M  V30 42 1 22 38
M  V30 43 1 22 39
M  V30 44 1 23 40
M  V30 45 1 23 41
M  V30 46 1 24 42
M  V30 47 1 24 43
M  V30 48 1 26 44
M  V30 49 1 26 45
M  V30 END BOND
M  V30 END CTAB
M  END
>  <Dataset>  (532) 
ChEMBL_Kinases

>  <Ligand_Instance>  (532) 
nan

>  <PDB_ID>  (532) 
nan

>  <Standardized_SMILES>  (532) 
O=Cc1cn2c3c1ccc1c4ccccc4n(c13)CC(OCCCBr)C2

>  <Name>  (532) 
nan

>  <Pocket>  (532) 
nan

>  <ATP_Site>  (532) 
nan

>  <Peripheral>  (532) 
nan

>  <Num_H_Atoms_ProtBoundConf>  (532) 
nan

>  <Num_Resolved_Atoms>  (532) 
nan

>  <Num_Not_Resolved_Atoms>  (532) 
nan

$$$$
CHEMBL4073390
     RDKit          3D

  0  0  0  0  0  0  0  0  0  0999 V3000
M  V30 BEGIN CTAB
M  V30 COUNTS 49 53 0 0 0
M  V30 BEGIN ATOM
M  V30 1 C 3.526165 -5.150952 -1.367043 0
M  V30 2 C 4.251813 -3.986784 -0.771004 0
M  V30 3 C 3.819678 -3.238127 0.325250 0
M  V30 4 C 4.764086 -2.258779 0.561758 0
M  V30 5 C 4.586323 -1.290319 1.677474 0 CFG=2
M  V30 6 C 5.710101 -0.311818 1.770687 0
M  V30 7 O 4.462039 -2.073816 2.833082 0
M  V30 8 C 3.337981 -0.516010 1.505262 0
M  V30 9 C 2.303177 0.103477 1.364661 0
M  V30 10 C 1.063475 0.818199 1.206340 0
M  V30 11 C -0.127784 0.122224 1.047792 0
M  V30 12 C -1.305848 0.790158 0.897275 0
M  V30 13 C -1.334558 2.195563 0.900033 0
M  V30 14 C -0.176831 2.905903 1.054271 0
M  V30 15 C 1.009127 2.199538 1.205640 0
M  V30 16 F 2.152692 2.911822 1.358041 0
M  V30 17 C -2.580889 3.033994 0.741420 0
M  V30 18 C -3.448186 2.507751 -0.402180 0
M  V30 19 C -4.271887 1.648846 0.522909 0
M  V30 20 C -3.644051 2.449736 1.664996 0
M  V30 21 N -3.770730 0.260694 0.577027 0
M  V30 22 C -4.495586 -0.862614 0.475738 0
M  V30 23 C -3.666333 -1.961258 0.574168 0
M  V30 24 C -4.015662 -3.373684 0.518964 0
M  V30 25 N -5.358140 -3.777623 0.343545 0
M  V30 26 O -3.140047 -4.287170 0.624770 0
M  V30 27 N -2.411303 -1.475097 0.738867 0
M  V30 28 C -2.466924 -0.129944 0.741570 0
M  V30 29 N 5.706128 -2.453430 -0.381409 0
M  V30 30 O 5.399246 -3.447014 -1.137950 0
M  V30 31 H 3.546852 -5.143252 -2.463431 0
M  V30 32 H 3.865250 -6.120879 -0.943381 0
M  V30 33 H 2.449950 -5.070388 -1.053692 0
M  V30 34 H 2.885377 -3.461383 0.841680 0
M  V30 35 H 5.354872 0.586452 2.334948 0
M  V30 36 H 6.119831 -0.022635 0.804226 0
M  V30 37 H 6.516949 -0.740101 2.420357 0
M  V30 38 H 3.549362 -2.001553 3.231392 0
M  V30 39 H -0.092374 -0.958462 1.047421 0
M  V30 40 H -0.228189 3.988366 1.052573 0
M  V30 41 H -2.414969 4.101461 0.782572 0
M  V30 42 H -2.912652 1.976381 -1.200704 0
M  V30 43 H -4.076247 3.358338 -0.774508 0
M  V30 44 H -5.352221 1.703690 0.459103 0
M  V30 45 H -4.309141 3.203797 2.108573 0
M  V30 46 H -3.215344 1.764960 2.421207 0
M  V30 47 H -5.568802 -0.885884 0.337764 0
M  V30 48 H -5.568860 -4.131300 -0.609032 0
M  V30 49 H -5.834014 -3.608523 1.276574 0
M  V30 END ATOM
M  V30 BEGIN BOND
M  V30 1 1 1 2
M  V30 2 2 2 3
M  V30 3 1 3 4
M  V30 4 1 4 5
M  V30 5 1 5 6
M  V30 6 1 5 7
M  V30 7 1 5 8 CFG=3
M  V30 8 3 8 9
M  V30 9 1 9 10
M  V30 10 2 10 11
M  V30 11 1 11 12
M  V30 12 2 12 13
M  V30 13 1 13 14
M  V30 14 2 14 15
M  V30 15 1 15 16
M  V30 16 1 13 17
M  V30 17 1 17 18
M  V30 18 1 18 19
M  V30 19 1 19 20
M  V30 20 1 19 21
M  V30 21 1 21 22
M  V30 22 2 22 23
M  V30 23 1 23 24
M  V30 24 1 24 25
M  V30 25 2 24 26
M  V30 26 1 23 27
M  V30 27 2 27 28
M  V30 28 2 4 29
M  V30 29 1 29 30
M  V30 30 1 30 2
M  V30 31 1 15 10
M  V30 32 1 20 17
M  V30 33 1 28 21
M  V30 34 1 28 12
M  V30 35 1 1 31
M  V30 36 1 1 32
M  V30 37 1 1 33
M  V30 38 1 3 34
M  V30 39 1 6 35
M  V30 40 1 6 36
M  V30 41 1 6 37
M  V30 42 1 7 38
M  V30 43 1 11 39
M  V30 44 1 14 40
M  V30 45 1 17 41
M  V30 46 1 18 42
M  V30 47 1 18 43
M  V30 48 1 19 44
M  V30 49 1 20 45
M  V30 50 1 20 46
M  V30 51 1 22 47
M  V30 52 1 25 48
M  V30 53 1 25 49
M  V30 END BOND
M  V30 END CTAB
M  END
>  <Dataset>  (533) 
ChEMBL_Kinases

>  <Ligand_Instance>  (533) 
nan

>  <PDB_ID>  (533) 
nan

>  <Standardized_SMILES>  (533) 
Cc1cc([C@](C)(O)C#Cc2cc3c(cc2F)C2CC(C2)n2cc(C(N)=O)nc2-3)no1

>  <Name>  (533) 
nan

>  <Pocket>  (533) 
nan

>  <ATP_Site>  (533) 
nan

>  <Peripheral>  (533) 
nan

>  <Num_H_Atoms_ProtBoundConf>  (533) 
nan

>  <Num_Resolved_Atoms>  (533) 
nan

>  <Num_Not_Resolved_Atoms>  (533) 
nan

$$$$
CHEMBL3659489
     RDKit          3D

  0  0  0  0  0  0  0  0  0  0999 V3000
M  V30 BEGIN CTAB
M  V30 COUNTS 49 53 0 0 0
M  V30 BEGIN ATOM
M  V30 1 F 2.847700 -4.476251 3.212562 0
M  V30 2 C 2.438260 -3.568865 2.284035 0
M  V30 3 C 3.406280 -2.641496 2.091186 0
M  V30 4 C 3.182903 -1.632002 1.194428 0
M  V30 5 C 1.972796 -1.568881 0.493160 0
M  V30 6 N 1.669322 -0.499362 -0.358051 0
M  V30 7 C 0.885796 0.594999 -0.782820 0
M  V30 8 N 0.518952 0.547719 -2.076322 0
M  V30 9 C -0.214578 1.414340 -2.742500 0
M  V30 10 N -0.647631 2.453098 -2.072959 0
M  V30 11 C -0.283950 2.527215 -0.740783 0
M  V30 12 S -0.710799 3.883702 0.497136 0
M  V30 13 C 0.154401 3.149557 1.824764 0
M  V30 14 C 0.689829 1.992647 1.310193 0
M  V30 15 C 0.507045 1.617031 0.021062 0
M  V30 16 C 1.423453 1.388132 2.442388 0
M  V30 17 C 0.468664 1.396180 3.637323 0
M  V30 18 N 0.434699 2.738249 4.193847 0
M  V30 19 C 0.238245 3.717651 3.137749 0
M  V30 20 C 0.974746 -2.487586 0.657079 0
M  V30 21 O -0.244119 -2.788677 0.224614 0
M  V30 22 C -1.100997 -2.425444 -0.784410 0
M  V30 23 C -1.589785 -3.623899 -1.575125 0
M  V30 24 C -2.918744 -4.154273 -1.151688 0
M  V30 25 O -3.841523 -3.147977 -0.868687 0
M  V30 26 C -3.330848 -2.377134 0.200536 0
M  V30 27 C -2.239444 -1.528248 -0.357097 0
M  V30 28 C 1.219723 -3.518965 1.585270 0
M  V30 29 H 4.378187 -2.561110 2.549961 0
M  V30 30 H 3.870460 -0.830167 0.947389 0
M  V30 31 H 2.496598 -0.585554 -1.024803 0
M  V30 32 H -0.498290 1.359296 -3.768847 0
M  V30 33 H 1.796453 0.395064 2.334465 0
M  V30 34 H 2.237482 2.119842 2.762591 0
M  V30 35 H 0.890983 0.724395 4.393757 0
M  V30 36 H -0.508814 1.047756 3.320525 0
M  V30 37 H -0.392306 2.771288 4.829351 0
M  V30 38 H -0.653618 4.331228 3.360604 0
M  V30 39 H 1.105139 4.429558 3.192121 0
M  V30 40 H -0.527064 -1.820259 -1.517233 0
M  V30 41 H -0.824235 -4.432132 -1.366786 0
M  V30 42 H -1.521041 -3.457451 -2.668323 0
M  V30 43 H -2.888001 -4.861079 -0.301111 0
M  V30 44 H -3.343180 -4.695629 -2.024104 0
M  V30 45 H -2.934058 -3.045115 0.999763 0
M  V30 46 H -4.185112 -1.788449 0.600400 0
M  V30 47 H -2.619652 -0.956659 -1.238270 0
M  V30 48 H -1.850917 -0.835503 0.418146 0
M  V30 49 H 0.653492 -4.398227 1.949115 0
M  V30 END ATOM
M  V30 BEGIN BOND
M  V30 1 1 1 2
M  V30 2 2 2 3
M  V30 3 1 3 4
M  V30 4 2 4 5
M  V30 5 1 5 6
M  V30 6 1 6 7
M  V30 7 2 7 8
M  V30 8 1 8 9
M  V30 9 2 9 10
M  V30 10 1 10 11
M  V30 11 1 11 12
M  V30 12 1 12 13
M  V30 13 2 13 14
M  V30 14 1 14 15
M  V30 15 1 14 16
M  V30 16 1 16 17
M  V30 17 1 17 18
M  V30 18 1 18 19
M  V30 19 1 5 20
M  V30 20 1 20 21
M  V30 21 1 21 22
M  V30 22 1 22 23
M  V30 23 1 23 24
M  V30 24 1 24 25
M  V30 25 1 25 26
M  V30 26 1 26 27
M  V30 27 2 20 28
M  V30 28 1 28 2
M  V30 29 1 15 7
M  V30 30 1 27 22
M  V30 31 2 15 11
M  V30 32 1 19 13
M  V30 33 1 3 29
M  V30 34 1 4 30
M  V30 35 1 6 31
M  V30 36 1 9 32
M  V30 37 1 16 33
M  V30 38 1 16 34
M  V30 39 1 17 35
M  V30 40 1 17 36
M  V30 41 1 18 37
M  V30 42 1 19 38
M  V30 43 1 19 39
M  V30 44 1 22 40
M  V30 45 1 23 41
M  V30 46 1 23 42
M  V30 47 1 24 43
M  V30 48 1 24 44
M  V30 49 1 26 45
M  V30 50 1 26 46
M  V30 51 1 27 47
M  V30 52 1 27 48
M  V30 53 1 28 49
M  V30 END BOND
M  V30 END CTAB
M  END
>  <Dataset>  (534) 
ChEMBL_Kinases

>  <Ligand_Instance>  (534) 
nan

>  <PDB_ID>  (534) 
nan

>  <Standardized_SMILES>  (534) 
Fc1ccc(Nc2ncnc3sc4c(c23)CCNC4)c(OC2CCOCC2)c1

>  <Name>  (534) 
nan

>  <Pocket>  (534) 
nan

>  <ATP_Site>  (534) 
nan

>  <Peripheral>  (534) 
nan

>  <Num_H_Atoms_ProtBoundConf>  (534) 
nan

>  <Num_Resolved_Atoms>  (534) 
nan

>  <Num_Not_Resolved_Atoms>  (534) 
nan

$$$$
CHEMBL4073332
     RDKit          3D

  0  0  0  0  0  0  0  0  0  0999 V3000
M  V30 BEGIN CTAB
M  V30 COUNTS 45 48 0 0 0
M  V30 BEGIN ATOM
M  V30 1 N 0.368313 -5.851898 1.488778 0
M  V30 2 C 1.662595 -5.318227 1.235910 0
M  V30 3 O 2.609801 -6.144981 1.303954 0
M  V30 4 C 1.878053 -3.910623 0.919629 0
M  V30 5 C 3.171042 -3.492826 0.691066 0
M  V30 6 C 3.335690 -2.159226 0.395762 0
M  V30 7 Cl 4.955205 -1.566466 0.095048 0
M  V30 8 C 2.197916 -1.360950 0.354492 0
M  V30 9 C 2.210811 -0.011109 0.071840 0
M  V30 10 Cl 3.562359 1.052873 -0.297864 0
M  V30 11 C 0.865565 0.377214 0.138274 0
M  V30 12 C 0.411418 1.746628 -0.102018 0
M  V30 13 C 0.016692 2.003104 -1.537836 0
M  V30 14 C -0.108920 3.510759 -1.516206 0
M  V30 15 C 0.893782 3.858130 -0.407059 0
M  V30 16 O 1.520460 2.648438 -0.099355 0
M  V30 17 N 0.110557 -0.692911 0.443873 0
M  V30 18 C -1.278478 -0.829031 0.619367 0
M  V30 19 C -1.540635 -1.684554 1.865196 0
M  V30 20 C -0.807101 -1.047525 2.997541 0
M  V30 21 C -1.031611 0.437479 3.012701 0
M  V30 22 N -2.107001 0.875639 2.190820 0
M  V30 23 C -2.141688 0.332312 0.857603 0
M  V30 24 C 0.925657 -1.762796 0.577498 0
M  V30 25 N 0.827982 -3.074290 0.860847 0
M  V30 26 H -0.307092 -5.568668 2.230388 0
M  V30 27 H -0.074995 -6.623970 0.935823 0
M  V30 28 H 3.973866 -4.209153 0.752005 0
M  V30 29 H -0.218478 2.205616 0.653075 0
M  V30 30 H 0.879672 1.767729 -2.183395 0
M  V30 31 H -0.855831 1.471979 -1.889617 0
M  V30 32 H -1.085462 3.865781 -1.159744 0
M  V30 33 H 0.204290 3.972963 -2.469044 0
M  V30 34 H 1.659244 4.583318 -0.776252 0
M  V30 35 H 0.397272 4.190142 0.510886 0
M  V30 36 H -1.703006 -1.433070 -0.226102 0
M  V30 37 H -1.347094 -2.743329 1.725788 0
M  V30 38 H -2.634965 -1.635395 2.152835 0
M  V30 39 H -1.058292 -1.515093 3.989576 0
M  V30 40 H 0.281786 -1.221954 2.886948 0
M  V30 41 H -1.287106 0.725246 4.061806 0
M  V30 42 H -0.101899 1.024713 2.793327 0
M  V30 43 H -2.982379 0.869203 2.715810 0
M  V30 44 H -3.189683 -0.119375 0.807023 0
M  V30 45 H -2.229477 1.085148 0.049149 0
M  V30 END ATOM
M  V30 BEGIN BOND
M  V30 1 1 1 2
M  V30 2 2 2 3
M  V30 3 1 2 4
M  V30 4 2 4 5
M  V30 5 1 5 6
M  V30 6 1 6 7
M  V30 7 2 6 8
M  V30 8 1 8 9
M  V30 9 1 9 10
M  V30 10 2 9 11
M  V30 11 1 11 12
M  V30 12 1 12 13
M  V30 13 1 13 14
M  V30 14 1 14 15
M  V30 15 1 15 16
M  V30 16 1 11 17
M  V30 17 1 17 18
M  V30 18 1 18 19
M  V30 19 1 19 20
M  V30 20 1 20 21
M  V30 21 1 21 22
M  V30 22 1 22 23
M  V30 23 1 17 24
M  V30 24 2 24 25
M  V30 25 1 25 4
M  V30 26 1 24 8
M  V30 27 1 16 12
M  V30 28 1 23 18
M  V30 29 1 1 26
M  V30 30 1 1 27
M  V30 31 1 5 28
M  V30 32 1 12 29
M  V30 33 1 13 30
M  V30 34 1 13 31
M  V30 35 1 14 32
M  V30 36 1 14 33
M  V30 37 1 15 34
M  V30 38 1 15 35
M  V30 39 1 18 36
M  V30 40 1 19 37
M  V30 41 1 19 38
M  V30 42 1 20 39
M  V30 43 1 20 40
M  V30 44 1 21 41
M  V30 45 1 21 42
M  V30 46 1 22 43
M  V30 47 1 23 44
M  V30 48 1 23 45
M  V30 END BOND
M  V30 END CTAB
M  END
>  <Dataset>  (535) 
ChEMBL_Kinases

>  <Ligand_Instance>  (535) 
nan

>  <PDB_ID>  (535) 
nan

>  <Standardized_SMILES>  (535) 
NC(=O)c1cc(Cl)c2c(Cl)c(C3CCCO3)n(C3CCCNC3)c2n1

>  <Name>  (535) 
nan

>  <Pocket>  (535) 
nan

>  <ATP_Site>  (535) 
nan

>  <Peripheral>  (535) 
nan

>  <Num_H_Atoms_ProtBoundConf>  (535) 
nan

>  <Num_Resolved_Atoms>  (535) 
nan

>  <Num_Not_Resolved_Atoms>  (535) 
nan

$$$$
CHEMBL3659488
     RDKit          3D

  0  0  0  0  0  0  0  0  0  0999 V3000
M  V30 BEGIN CTAB
M  V30 COUNTS 66 69 0 0 0
M  V30 BEGIN ATOM
M  V30 1 C 0.200790 -1.460671 2.146070 0
M  V30 2 C 1.119731 -0.294138 2.097977 0
M  V30 3 C 2.275246 -0.487699 1.466471 0
M  V30 4 C 3.081414 -1.375989 0.706001 0
M  V30 5 O 4.242933 -0.996595 0.307950 0
M  V30 6 N 2.991039 -2.682721 0.200345 0
M  V30 7 C 4.000057 -3.347188 -0.565688 0
M  V30 8 C 4.338137 -2.699820 -1.883730 0
M  V30 9 C 3.127985 -2.636947 -2.797019 0
M  V30 10 N 2.615550 -3.959631 -3.082615 0
M  V30 11 C 3.514262 -4.739888 -3.898258 0
M  V30 12 C 1.365753 -3.807577 -3.801649 0
M  V30 13 S 3.170394 1.081230 1.689497 0
M  V30 14 C 1.835743 1.870810 2.651057 0
M  V30 15 N 1.757882 3.094397 3.200815 0
M  V30 16 C 0.691485 3.499495 3.879935 0
M  V30 17 N -0.231204 2.558823 3.924230 0
M  V30 18 C -0.230857 1.334131 3.409776 0
M  V30 19 N -1.440490 0.666096 3.660945 0
M  V30 20 C -2.444984 -0.286931 3.405266 0
M  V30 21 C -2.833574 -1.395888 4.170361 0
M  V30 22 C -3.833819 -2.220273 3.707319 0
M  V30 23 C -4.426271 -1.931880 2.504133 0
M  V30 24 C -5.470288 -2.971646 2.225122 0
M  V30 25 F -6.229345 -3.254585 3.335874 0
M  V30 26 F -6.238590 -2.533361 1.165465 0
M  V30 27 F -4.819406 -4.129441 1.843773 0
M  V30 28 N -4.049237 -0.857363 1.767609 0
M  V30 29 C -3.060483 -0.002130 2.178888 0
M  V30 30 O -3.069446 0.851450 1.154435 0
M  V30 31 C -2.473343 2.006185 0.754094 0
M  V30 32 C -3.462745 3.038317 0.206433 0
M  V30 33 C -2.831778 3.857850 -0.890045 0
M  V30 34 O -1.493518 4.049229 -0.643167 0
M  V30 35 C -0.739096 2.905038 -0.814130 0
M  V30 36 C -1.498551 1.672271 -0.381108 0
M  V30 37 C 0.857565 0.887605 2.708314 0
M  V30 38 H 0.684444 -2.408704 1.861355 0
M  V30 39 H -0.612154 -1.252618 1.465559 0
M  V30 40 H -0.143737 -1.647521 3.197583 0
M  V30 41 H 2.103158 -3.172231 0.414637 0
M  V30 42 H 4.943247 -3.446221 0.019168 0
M  V30 43 H 3.609871 -4.368897 -0.837609 0
M  V30 44 H 5.116457 -3.380114 -2.346826 0
M  V30 45 H 4.741547 -1.682086 -1.791808 0
M  V30 46 H 2.291347 -2.082722 -2.330061 0
M  V30 47 H 3.360042 -2.127087 -3.749442 0
M  V30 48 H 3.759736 -4.183886 -4.824945 0
M  V30 49 H 4.406939 -5.055025 -3.340305 0
M  V30 50 H 2.964442 -5.669413 -4.182606 0
M  V30 51 H 0.503273 -3.717785 -3.083370 0
M  V30 52 H 1.133156 -4.670837 -4.460630 0
M  V30 53 H 1.341108 -2.906193 -4.425501 0
M  V30 54 H 0.689068 4.480795 4.292788 0
M  V30 55 H -2.000325 0.977676 4.517827 0
M  V30 56 H -2.221928 -1.404391 5.068128 0
M  V30 57 H -4.011089 -3.016581 4.406695 0
M  V30 58 H -1.844085 2.515850 1.507613 0
M  V30 59 H -3.811944 3.666883 1.055751 0
M  V30 60 H -4.355233 2.498290 -0.168272 0
M  V30 61 H -3.296579 4.877920 -0.936308 0
M  V30 62 H -3.052407 3.339003 -1.846357 0
M  V30 63 H -0.449765 2.774615 -1.883214 0
M  V30 64 H 0.229668 2.988789 -0.254183 0
M  V30 65 H -0.748189 0.979691 0.056075 0
M  V30 66 H -2.082233 1.217936 -1.195256 0
M  V30 END ATOM
M  V30 BEGIN BOND
M  V30 1 1 1 2
M  V30 2 2 2 3
M  V30 3 1 3 4
M  V30 4 2 4 5
M  V30 5 1 4 6
M  V30 6 1 6 7
M  V30 7 1 7 8
M  V30 8 1 8 9
M  V30 9 1 9 10
M  V30 10 1 10 11
M  V30 11 1 10 12
M  V30 12 1 3 13
M  V30 13 1 13 14
M  V30 14 2 14 15
M  V30 15 1 15 16
M  V30 16 2 16 17
M  V30 17 1 17 18
M  V30 18 1 18 19
M  V30 19 1 19 20
M  V30 20 2 20 21
M  V30 21 1 21 22
M  V30 22 2 22 23
M  V30 23 1 23 24
M  V30 24 1 24 25
M  V30 25 1 24 26
M  V30 26 1 24 27
M  V30 27 1 23 28
M  V30 28 2 28 29
M  V30 29 1 29 30
M  V30 30 1 30 31
M  V30 31 1 31 32
M  V30 32 1 32 33
M  V30 33 1 33 34
M  V30 34 1 34 35
M  V30 35 1 35 36
M  V30 36 2 18 37
M  V30 37 1 37 2
M  V30 38 1 37 14
M  V30 39 1 29 20
M  V30 40 1 36 31
M  V30 41 1 1 38
M  V30 42 1 1 39
M  V30 43 1 1 40
M  V30 44 1 6 41
M  V30 45 1 7 42
M  V30 46 1 7 43
M  V30 47 1 8 44
M  V30 48 1 8 45
M  V30 49 1 9 46
M  V30 50 1 9 47
M  V30 51 1 11 48
M  V30 52 1 11 49
M  V30 53 1 11 50
M  V30 54 1 12 51
M  V30 55 1 12 52
M  V30 56 1 12 53
M  V30 57 1 16 54
M  V30 58 1 19 55
M  V30 59 1 21 56
M  V30 60 1 22 57
M  V30 61 1 31 58
M  V30 62 1 32 59
M  V30 63 1 32 60
M  V30 64 1 33 61
M  V30 65 1 33 62
M  V30 66 1 35 63
M  V30 67 1 35 64
M  V30 68 1 36 65
M  V30 69 1 36 66
M  V30 END BOND
M  V30 END CTAB
M  END
>  <Dataset>  (536) 
ChEMBL_Kinases

>  <Ligand_Instance>  (536) 
nan

>  <PDB_ID>  (536) 
nan

>  <Standardized_SMILES>  (536) 
Cc1c(C(=O)NCCCN(C)C)sc2ncnc(Nc3ccc(C(F)(F)F)nc3OC3CCOCC3)c12

>  <Name>  (536) 
nan

>  <Pocket>  (536) 
nan

>  <ATP_Site>  (536) 
nan

>  <Peripheral>  (536) 
nan

>  <Num_H_Atoms_ProtBoundConf>  (536) 
nan

>  <Num_Resolved_Atoms>  (536) 
nan

>  <Num_Not_Resolved_Atoms>  (536) 
nan

$$$$
CHEMBL3659487
     RDKit          3D

  0  0  0  0  0  0  0  0  0  0999 V3000
M  V30 BEGIN CTAB
M  V30 COUNTS 66 70 0 0 0
M  V30 BEGIN ATOM
M  V30 1 C 1.660733 -1.501179 0.583669 0
M  V30 2 C 1.431073 -0.119522 1.107723 0
M  V30 3 C 2.281739 0.782968 0.684154 0
M  V30 4 C 3.494877 0.948401 -0.140196 0
M  V30 5 O 4.002033 2.120702 -0.222503 0
M  V30 6 N 4.287992 0.067119 -0.910766 0
M  V30 7 C 5.452915 0.381019 -1.661207 0
M  V30 8 C 5.270818 1.398034 -2.768215 0
M  V30 9 N 4.345359 1.010297 -3.741967 0
M  V30 10 C 4.640587 -0.057481 -4.592014 0
M  V30 11 C 3.367910 -0.506439 -5.315906 0
M  V30 12 O 2.883241 0.565009 -6.023301 0
M  V30 13 C 2.469599 1.583558 -5.214327 0
M  V30 14 C 3.092244 1.627557 -3.846021 0
M  V30 15 S 1.730332 2.291200 1.435057 0
M  V30 16 C 0.361414 1.564984 2.285556 0
M  V30 17 N -0.577036 2.101683 3.129218 0
M  V30 18 C -1.519174 1.325376 3.681240 0
M  V30 19 N -1.442846 0.037370 3.334296 0
M  V30 20 C -0.532300 -0.500378 2.511732 0
M  V30 21 N -0.829446 -1.860704 2.498672 0
M  V30 22 C -1.525427 -3.041168 2.158064 0
M  V30 23 C -1.039030 -4.158428 1.542411 0
M  V30 24 C -1.880713 -5.217998 1.322079 0
M  V30 25 C -3.189507 -5.112043 1.733218 0
M  V30 26 F -3.894787 -6.255705 1.440058 0
M  V30 27 C -3.711644 -4.002727 2.355294 0
M  V30 28 C -2.850624 -2.921942 2.578479 0
M  V30 29 O -3.480918 -1.872989 3.205096 0
M  V30 30 C -4.779687 -1.854063 3.711918 0
M  V30 31 C -5.828387 -1.366404 2.738850 0
M  V30 32 C -6.044170 0.114917 2.732766 0
M  V30 33 O -6.256069 0.568699 4.054227 0
M  V30 34 C -4.978271 0.436656 4.653684 0
M  V30 35 C -4.830550 -1.035479 4.957113 0
M  V30 36 C 0.441343 0.248592 1.927219 0
M  V30 37 H 1.671760 -1.476426 -0.553970 0
M  V30 38 H 0.813295 -2.153464 0.808669 0
M  V30 39 H 2.624334 -1.923633 0.874294 0
M  V30 40 H 3.901911 -0.921289 -0.866385 0
M  V30 41 H 5.762623 -0.564518 -2.197077 0
M  V30 42 H 6.332857 0.635789 -1.027159 0
M  V30 43 H 6.300903 1.623596 -3.203032 0
M  V30 44 H 4.892518 2.355410 -2.296657 0
M  V30 45 H 5.423168 0.235984 -5.324333 0
M  V30 46 H 5.040408 -0.977774 -4.104553 0
M  V30 47 H 3.702029 -1.329809 -5.980347 0
M  V30 48 H 2.684600 -0.871806 -4.506599 0
M  V30 49 H 1.355586 1.517882 -5.091489 0
M  V30 50 H 2.670019 2.548445 -5.755465 0
M  V30 51 H 2.359151 1.204888 -3.098209 0
M  V30 52 H 3.135985 2.716061 -3.553878 0
M  V30 53 H -2.189082 1.875662 4.319672 0
M  V30 54 H -0.068248 -2.242854 3.132452 0
M  V30 55 H -0.008880 -4.219219 1.242836 0
M  V30 56 H -1.444295 -6.084955 0.827947 0
M  V30 57 H -4.752964 -4.193290 2.557500 0
M  V30 58 H -5.124283 -2.915089 3.973140 0
M  V30 59 H -5.666281 -1.730843 1.703424 0
M  V30 60 H -6.809355 -1.815743 3.061297 0
M  V30 61 H -6.978597 0.326459 2.174667 0
M  V30 62 H -5.214993 0.673289 2.252614 0
M  V30 63 H -4.289987 0.801749 3.857994 0
M  V30 64 H -4.878048 1.071088 5.554048 0
M  V30 65 H -5.738801 -1.301307 5.571228 0
M  V30 66 H -3.974175 -1.228075 5.639239 0
M  V30 END ATOM
M  V30 BEGIN BOND
M  V30 1 1 1 2
M  V30 2 2 2 3
M  V30 3 1 3 4
M  V30 4 2 4 5
M  V30 5 1 4 6
M  V30 6 1 6 7
M  V30 7 1 7 8
M  V30 8 1 8 9
M  V30 9 1 9 10
M  V30 10 1 10 11
M  V30 11 1 11 12
M  V30 12 1 12 13
M  V30 13 1 13 14
M  V30 14 1 3 15
M  V30 15 1 15 16
M  V30 16 2 16 17
M  V30 17 1 17 18
M  V30 18 2 18 19
M  V30 19 1 19 20
M  V30 20 1 20 21
M  V30 21 1 21 22
M  V30 22 2 22 23
M  V30 23 1 23 24
M  V30 24 2 24 25
M  V30 25 1 25 26
M  V30 26 1 25 27
M  V30 27 2 27 28
M  V30 28 1 28 29
M  V30 29 1 29 30
M  V30 30 1 30 31
M  V30 31 1 31 32
M  V30 32 1 32 33
M  V30 33 1 33 34
M  V30 34 1 34 35
M  V30 35 2 20 36
M  V30 36 1 36 2
M  V30 37 1 14 9
M  V30 38 1 36 16
M  V30 39 1 28 22
M  V30 40 1 35 30
M  V30 41 1 1 37
M  V30 42 1 1 38
M  V30 43 1 1 39
M  V30 44 1 6 40
M  V30 45 1 7 41
M  V30 46 1 7 42
M  V30 47 1 8 43
M  V30 48 1 8 44
M  V30 49 1 10 45
M  V30 50 1 10 46
M  V30 51 1 11 47
M  V30 52 1 11 48
M  V30 53 1 13 49
M  V30 54 1 13 50
M  V30 55 1 14 51
M  V30 56 1 14 52
M  V30 57 1 18 53
M  V30 58 1 21 54
M  V30 59 1 23 55
M  V30 60 1 24 56
M  V30 61 1 27 57
M  V30 62 1 30 58
M  V30 63 1 31 59
M  V30 64 1 31 60
M  V30 65 1 32 61
M  V30 66 1 32 62
M  V30 67 1 34 63
M  V30 68 1 34 64
M  V30 69 1 35 65
M  V30 70 1 35 66
M  V30 END BOND
M  V30 END CTAB
M  END
>  <Dataset>  (537) 
ChEMBL_Kinases

>  <Ligand_Instance>  (537) 
nan

>  <PDB_ID>  (537) 
nan

>  <Standardized_SMILES>  (537) 
Cc1c(C(=O)NCCN2CCOCC2)sc2ncnc(Nc3ccc(F)cc3OC3CCOCC3)c12

>  <Name>  (537) 
nan

>  <Pocket>  (537) 
nan

>  <ATP_Site>  (537) 
nan

>  <Peripheral>  (537) 
nan

>  <Num_H_Atoms_ProtBoundConf>  (537) 
nan

>  <Num_Resolved_Atoms>  (537) 
nan

>  <Num_Not_Resolved_Atoms>  (537) 
nan

$$$$
CHEMBL3659486
     RDKit          3D

  0  0  0  0  0  0  0  0  0  0999 V3000
M  V30 BEGIN CTAB
M  V30 COUNTS 64 67 0 0 0
M  V30 BEGIN ATOM
M  V30 1 C 1.269769 -1.220175 -0.157682 0
M  V30 2 C 0.919026 -1.033128 1.272168 0
M  V30 3 C 1.464970 -0.045409 1.977895 0
M  V30 4 C 2.350838 1.079818 1.887703 0
M  V30 5 O 2.576562 1.786001 2.938010 0
M  V30 6 N 3.115025 1.705419 0.921555 0
M  V30 7 C 3.823627 2.843440 1.472468 0
M  V30 8 C 4.658478 3.514017 0.380990 0
M  V30 9 C 3.824362 4.009537 -0.765124 0
M  V30 10 N 4.623793 4.654965 -1.797694 0
M  V30 11 C 3.746937 5.096655 -2.864433 0
M  V30 12 C 5.228754 5.847206 -1.216873 0
M  V30 13 S 0.824321 -0.231770 3.603539 0
M  V30 14 C -0.207302 -1.703131 3.255358 0
M  V30 15 N -1.011103 -2.416712 4.056946 0
M  V30 16 C -1.669003 -3.454051 3.552656 0
M  V30 17 N -1.453331 -3.682268 2.259704 0
M  V30 18 C -0.657745 -2.984403 1.444632 0
M  V30 19 N -0.643862 -3.449950 0.117240 0
M  V30 20 C -1.401292 -4.583897 -0.252674 0
M  V30 21 C -0.864085 -5.784012 -0.757806 0
M  V30 22 C -1.593306 -6.903074 -1.124143 0
M  V30 23 C -2.953428 -6.799105 -0.968847 0
M  V30 24 F -3.681243 -7.882241 -1.320126 0
M  V30 25 C -3.504859 -5.638238 -0.477873 0
M  V30 26 C -2.786571 -4.522742 -0.111690 0
M  V30 27 O -3.318819 -3.353797 0.380051 0
M  V30 28 C -4.699695 -3.183164 0.546424 0
M  V30 29 C -5.062474 -2.894068 2.001065 0
M  V30 30 C -4.760863 -1.450186 2.273904 0
M  V30 31 O -3.679275 -0.973415 1.532754 0
M  V30 32 C -4.072177 -0.848986 0.196013 0
M  V30 33 C -5.056699 -1.908199 -0.230574 0
M  V30 34 C 0.063423 -1.894249 1.886175 0
M  V30 35 H 2.172411 -0.634713 -0.384944 0
M  V30 36 H 0.430091 -1.003995 -0.822914 0
M  V30 37 H 1.695766 -2.274831 -0.310725 0
M  V30 38 H 3.094785 1.318110 -0.036327 0
M  V30 39 H 4.561597 2.546636 2.260843 0
M  V30 40 H 3.105450 3.607142 1.826477 0
M  V30 41 H 5.152399 4.406735 0.852421 0
M  V30 42 H 5.494796 2.872601 0.057324 0
M  V30 43 H 3.373784 3.111555 -1.274205 0
M  V30 44 H 2.974297 4.620146 -0.418028 0
M  V30 45 H 4.147303 4.721515 -3.848470 0
M  V30 46 H 2.732646 4.629583 -2.769236 0
M  V30 47 H 3.645269 6.179482 -2.864051 0
M  V30 48 H 5.659452 6.434579 -2.060073 0
M  V30 49 H 6.051272 5.621470 -0.512697 0
M  V30 50 H 4.460634 6.495186 -0.733920 0
M  V30 51 H -2.296694 -4.004819 4.193373 0
M  V30 52 H -0.264796 -3.272802 -0.830956 0
M  V30 53 H 0.233899 -5.799579 -0.856026 0
M  V30 54 H -1.023578 -7.741891 -1.492467 0
M  V30 55 H -4.571934 -5.687554 -0.406190 0
M  V30 56 H -5.334303 -4.015377 0.246731 0
M  V30 57 H -6.169955 -3.066097 2.086585 0
M  V30 58 H -4.578035 -3.586250 2.696296 0
M  V30 59 H -4.535535 -1.366807 3.357028 0
M  V30 60 H -5.628849 -0.786845 2.031487 0
M  V30 61 H -3.179556 -0.905829 -0.441276 0
M  V30 62 H -4.604056 0.123819 0.115114 0
M  V30 63 H -6.105522 -1.628671 -0.136612 0
M  V30 64 H -4.895323 -2.194564 -1.302558 0
M  V30 END ATOM
M  V30 BEGIN BOND
M  V30 1 1 1 2
M  V30 2 2 2 3
M  V30 3 1 3 4
M  V30 4 2 4 5
M  V30 5 1 4 6
M  V30 6 1 6 7
M  V30 7 1 7 8
M  V30 8 1 8 9
M  V30 9 1 9 10
M  V30 10 1 10 11
M  V30 11 1 10 12
M  V30 12 1 3 13
M  V30 13 1 13 14
M  V30 14 2 14 15
M  V30 15 1 15 16
M  V30 16 2 16 17
M  V30 17 1 17 18
M  V30 18 1 18 19
M  V30 19 1 19 20
M  V30 20 2 20 21
M  V30 21 1 21 22
M  V30 22 2 22 23
M  V30 23 1 23 24
M  V30 24 1 23 25
M  V30 25 2 25 26
M  V30 26 1 26 27
M  V30 27 1 27 28
M  V30 28 1 28 29
M  V30 29 1 29 30
M  V30 30 1 30 31
M  V30 31 1 31 32
M  V30 32 1 32 33
M  V30 33 2 18 34
M  V30 34 1 34 2
M  V30 35 1 34 14
M  V30 36 1 26 20
M  V30 37 1 33 28
M  V30 38 1 1 35
M  V30 39 1 1 36
M  V30 40 1 1 37
M  V30 41 1 6 38
M  V30 42 1 7 39
M  V30 43 1 7 40
M  V30 44 1 8 41
M  V30 45 1 8 42
M  V30 46 1 9 43
M  V30 47 1 9 44
M  V30 48 1 11 45
M  V30 49 1 11 46
M  V30 50 1 11 47
M  V30 51 1 12 48
M  V30 52 1 12 49
M  V30 53 1 12 50
M  V30 54 1 16 51
M  V30 55 1 19 52
M  V30 56 1 21 53
M  V30 57 1 22 54
M  V30 58 1 25 55
M  V30 59 1 28 56
M  V30 60 1 29 57
M  V30 61 1 29 58
M  V30 62 1 30 59
M  V30 63 1 30 60
M  V30 64 1 32 61
M  V30 65 1 32 62
M  V30 66 1 33 63
M  V30 67 1 33 64
M  V30 END BOND
M  V30 END CTAB
M  END
>  <Dataset>  (538) 
ChEMBL_Kinases

>  <Ligand_Instance>  (538) 
nan

>  <PDB_ID>  (538) 
nan

>  <Standardized_SMILES>  (538) 
Cc1c(C(=O)NCCCN(C)C)sc2ncnc(Nc3ccc(F)cc3OC3CCOCC3)c12

>  <Name>  (538) 
nan

>  <Pocket>  (538) 
nan

>  <ATP_Site>  (538) 
nan

>  <Peripheral>  (538) 
nan

>  <Num_H_Atoms_ProtBoundConf>  (538) 
nan

>  <Num_Resolved_Atoms>  (538) 
nan

>  <Num_Not_Resolved_Atoms>  (538) 
nan

$$$$
CHEMBL3659485
     RDKit          3D

  0  0  0  0  0  0  0  0  0  0999 V3000
M  V30 BEGIN CTAB
M  V30 COUNTS 57 60 0 0 0
M  V30 BEGIN ATOM
M  V30 1 C 5.284796 -2.971099 6.269605 0
M  V30 2 O 5.765130 -2.823395 4.969241 0
M  V30 3 C 5.016974 -1.894771 4.247041 0
M  V30 4 C 5.561818 -1.768585 2.864182 0
M  V30 5 N 4.893986 -0.849219 2.002324 0
M  V30 6 C 3.531589 -0.983439 1.644226 0
M  V30 7 O 3.057245 -2.006173 2.194649 0
M  V30 8 C 2.971035 0.101806 0.707941 0
M  V30 9 S 3.853439 1.425018 0.088802 0
M  V30 10 C 2.409920 2.115142 -0.890506 0
M  V30 11 N 2.375908 3.224265 -1.672985 0
M  V30 12 C 1.211180 3.506908 -2.270313 0
M  V30 13 N 0.214043 2.666842 -2.031352 0
M  V30 14 C 0.266759 1.580888 -1.259317 0
M  V30 15 N -0.966525 0.896209 -1.230810 0
M  V30 16 C -2.285262 1.357281 -1.148293 0
M  V30 17 C -2.526220 2.720152 -1.062358 0
M  V30 18 C -3.817556 3.225789 -0.974444 0
M  V30 19 C -4.873574 2.342182 -0.973321 0
M  V30 20 F -6.146179 2.789401 -0.888034 0
M  V30 21 C -4.589790 1.005528 -1.060143 0
M  V30 22 C -3.344016 0.442152 -1.149295 0
M  V30 23 O -3.007414 -0.885858 -1.238613 0
M  V30 24 C -3.913576 -1.951498 -1.248967 0
M  V30 25 C -3.825460 -2.748694 -2.541033 0
M  V30 26 C -3.188171 -4.099639 -2.316543 0
M  V30 27 O -3.958170 -4.897346 -1.470060 0
M  V30 28 C -4.388053 -4.181042 -0.354596 0
M  V30 29 C -3.599767 -2.926527 -0.119161 0
M  V30 30 C 1.412352 1.204942 -0.600434 0
M  V30 31 C 1.692005 0.168224 0.221491 0
M  V30 32 C 0.667580 -0.842052 0.622172 0
M  V30 33 H 4.229599 -3.317775 6.233659 0
M  V30 34 H 5.409816 -2.041305 6.855427 0
M  V30 35 H 5.936954 -3.735255 6.762017 0
M  V30 36 H 5.131187 -0.911695 4.791233 0
M  V30 37 H 3.975144 -2.197873 4.296242 0
M  V30 38 H 6.625739 -1.437933 2.978233 0
M  V30 39 H 5.648218 -2.791639 2.422457 0
M  V30 40 H 5.446814 -0.022893 1.610309 0
M  V30 41 H 1.232561 4.391581 -2.876310 0
M  V30 42 H -0.787558 -0.126573 -1.315025 0
M  V30 43 H -1.772780 3.490836 -1.053946 0
M  V30 44 H -4.067379 4.280331 -0.906018 0
M  V30 45 H -5.432870 0.332514 -1.058957 0
M  V30 46 H -4.946956 -1.612680 -1.110215 0
M  V30 47 H -4.846407 -2.939549 -2.956240 0
M  V30 48 H -3.237698 -2.213778 -3.307600 0
M  V30 49 H -3.208286 -4.619947 -3.308434 0
M  V30 50 H -2.136166 -4.019418 -2.012007 0
M  V30 51 H -4.207059 -4.866831 0.523653 0
M  V30 52 H -5.484660 -4.022899 -0.353674 0
M  V30 53 H -3.884623 -2.508692 0.852655 0
M  V30 54 H -2.524767 -3.206044 -0.133233 0
M  V30 55 H 0.517787 -1.654155 -0.075419 0
M  V30 56 H 0.989055 -1.335932 1.588862 0
M  V30 57 H -0.299676 -0.369538 0.912321 0
M  V30 END ATOM
M  V30 BEGIN BOND
M  V30 1 1 1 2
M  V30 2 1 2 3
M  V30 3 1 3 4
M  V30 4 1 4 5
M  V30 5 1 5 6
M  V30 6 2 6 7
M  V30 7 1 6 8
M  V30 8 1 8 9
M  V30 9 1 9 10
M  V30 10 2 10 11
M  V30 11 1 11 12
M  V30 12 2 12 13
M  V30 13 1 13 14
M  V30 14 1 14 15
M  V30 15 1 15 16
M  V30 16 2 16 17
M  V30 17 1 17 18
M  V30 18 2 18 19
M  V30 19 1 19 20
M  V30 20 1 19 21
M  V30 21 2 21 22
M  V30 22 1 22 23
M  V30 23 1 23 24
M  V30 24 1 24 25
M  V30 25 1 25 26
M  V30 26 1 26 27
M  V30 27 1 27 28
M  V30 28 1 28 29
M  V30 29 2 14 30
M  V30 30 1 30 31
M  V30 31 1 31 32
M  V30 32 2 31 8
M  V30 33 1 30 10
M  V30 34 1 22 16
M  V30 35 1 29 24
M  V30 36 1 1 33
M  V30 37 1 1 34
M  V30 38 1 1 35
M  V30 39 1 3 36
M  V30 40 1 3 37
M  V30 41 1 4 38
M  V30 42 1 4 39
M  V30 43 1 5 40
M  V30 44 1 12 41
M  V30 45 1 15 42
M  V30 46 1 17 43
M  V30 47 1 18 44
M  V30 48 1 21 45
M  V30 49 1 24 46
M  V30 50 1 25 47
M  V30 51 1 25 48
M  V30 52 1 26 49
M  V30 53 1 26 50
M  V30 54 1 28 51
M  V30 55 1 28 52
M  V30 56 1 29 53
M  V30 57 1 29 54
M  V30 58 1 32 55
M  V30 59 1 32 56
M  V30 60 1 32 57
M  V30 END BOND
M  V30 END CTAB
M  END
>  <Dataset>  (539) 
ChEMBL_Kinases

>  <Ligand_Instance>  (539) 
nan

>  <PDB_ID>  (539) 
nan

>  <Standardized_SMILES>  (539) 
COCCNC(=O)c1sc2ncnc(Nc3ccc(F)cc3OC3CCOCC3)c2c1C

>  <Name>  (539) 
nan

>  <Pocket>  (539) 
nan

>  <ATP_Site>  (539) 
nan

>  <Peripheral>  (539) 
nan

>  <Num_H_Atoms_ProtBoundConf>  (539) 
nan

>  <Num_Resolved_Atoms>  (539) 
nan

>  <Num_Not_Resolved_Atoms>  (539) 
nan

$$$$
CHEMBL3903492
     RDKit          3D

  0  0  0  0  0  0  0  0  0  0999 V3000
M  V30 BEGIN CTAB
M  V30 COUNTS 41 44 0 0 0
M  V30 BEGIN ATOM
M  V30 1 C -0.403041 -5.234854 1.079269 0
M  V30 2 C 0.922001 -4.745077 1.559074 0
M  V30 3 N 1.757576 -5.350150 2.407841 0
M  V30 4 N 2.841585 -4.595156 2.587828 0
M  V30 5 C 2.773377 -3.461991 1.871519 0
M  V30 6 N 3.573088 -2.398353 1.704451 0
M  V30 7 C 3.263796 -1.364451 0.908195 0
M  V30 8 C 2.064654 -1.444985 0.256955 0
M  V30 9 C 1.560082 -0.415669 -0.635611 0
M  V30 10 O 1.440200 -0.342230 -1.895280 0
M  V30 11 N 1.014775 0.900830 -0.375921 0
M  V30 12 C 0.671712 1.468186 -1.684213 0
M  V30 13 C 0.081169 2.820718 -1.387702 0
M  V30 14 C 0.629771 3.148707 -0.048210 0
M  V30 15 C 0.685670 1.861857 0.692817 0 CFG=1
M  V30 16 C -0.542251 1.446449 1.363960 0
M  V30 17 C -0.638226 0.252023 2.023836 0
M  V30 18 C -1.771210 -0.219457 2.659961 0
M  V30 19 C -2.919921 0.541857 2.654141 0
M  V30 20 Cl -4.376561 0.005761 3.432921 0
M  V30 21 C -2.857564 1.766581 1.990146 0
M  V30 22 C -1.705576 2.186626 1.374714 0
M  V30 23 C 1.182764 -2.524714 0.385219 0
M  V30 24 C 1.557130 -3.562737 1.222488 0
M  V30 25 H -1.039138 -5.570381 1.918304 0
M  V30 26 H -0.926089 -4.389458 0.557344 0
M  V30 27 H -0.207211 -6.059764 0.359717 0
M  V30 28 H 3.640296 -4.873505 3.217324 0
M  V30 29 H 3.833598 -0.479692 0.709154 0
M  V30 30 H 1.605910 1.638446 -2.275799 0
M  V30 31 H -0.000194 0.835546 -2.270940 0
M  V30 32 H -1.006065 2.856738 -1.443399 0
M  V30 33 H 0.463964 3.568842 -2.138079 0
M  V30 34 H 0.095221 3.967348 0.481222 0
M  V30 35 H 1.675402 3.511159 -0.183510 0
M  V30 36 H 1.547656 1.833579 1.431158 0
M  V30 37 H 0.181187 -0.442957 2.122031 0
M  V30 38 H -1.834960 -1.162005 3.182161 0
M  V30 39 H -3.772233 2.378757 1.981030 0
M  V30 40 H -1.740340 3.152822 0.879165 0
M  V30 41 H 0.230830 -2.601295 -0.120200 0
M  V30 END ATOM
M  V30 BEGIN BOND
M  V30 1 1 1 2
M  V30 2 2 2 3
M  V30 3 1 3 4
M  V30 4 1 4 5
M  V30 5 2 5 6
M  V30 6 1 6 7
M  V30 7 2 7 8
M  V30 8 1 8 9
M  V30 9 2 9 10
M  V30 10 1 9 11
M  V30 11 1 11 12
M  V30 12 1 12 13
M  V30 13 1 13 14
M  V30 14 1 14 15
M  V30 15 1 15 16
M  V30 16 2 16 17
M  V30 17 1 17 18
M  V30 18 2 18 19
M  V30 19 1 19 20
M  V30 20 1 19 21
M  V30 21 2 21 22
M  V30 22 1 8 23
M  V30 23 2 23 24
M  V30 24 1 24 2
M  V30 25 1 24 5
M  V30 26 1 15 11
M  V30 27 1 22 16
M  V30 28 1 1 25
M  V30 29 1 1 26
M  V30 30 1 1 27
M  V30 31 1 4 28
M  V30 32 1 7 29
M  V30 33 1 12 30
M  V30 34 1 12 31
M  V30 35 1 13 32
M  V30 36 1 13 33
M  V30 37 1 14 34
M  V30 38 1 14 35
M  V30 39 1 15 36 CFG=1
M  V30 40 1 17 37
M  V30 41 1 18 38
M  V30 42 1 21 39
M  V30 43 1 22 40
M  V30 44 1 23 41
M  V30 END BOND
M  V30 END CTAB
M  END
>  <Dataset>  (540) 
ChEMBL_Kinases

>  <Ligand_Instance>  (540) 
nan

>  <PDB_ID>  (540) 
nan

>  <Standardized_SMILES>  (540) 
Cc1n[nH]c2ncc(C(=O)N3CCC[C@H]3c3ccc(Cl)cc3)cc12

>  <Name>  (540) 
nan

>  <Pocket>  (540) 
nan

>  <ATP_Site>  (540) 
nan

>  <Peripheral>  (540) 
nan

>  <Num_H_Atoms_ProtBoundConf>  (540) 
nan

>  <Num_Resolved_Atoms>  (540) 
nan

>  <Num_Not_Resolved_Atoms>  (540) 
nan

$$$$
CHEMBL3632739
     RDKit          3D

  0  0  0  0  0  0  0  0  0  0999 V3000
M  V30 BEGIN CTAB
M  V30 COUNTS 44 46 0 0 0
M  V30 BEGIN ATOM
M  V30 1 C 1.928940 -6.079115 2.628052 0
M  V30 2 O 1.937069 -5.004986 1.763722 0
M  V30 3 C 0.905059 -4.144425 1.418954 0
M  V30 4 O 0.552188 -4.974033 2.201198 0
M  V30 5 C 1.257758 -3.147399 0.502697 0
M  V30 6 S 2.827706 -2.828341 -0.295336 0
M  V30 7 C 2.239240 -1.392971 -1.226408 0
M  V30 8 N 2.873049 -0.580109 -2.093891 0
M  V30 9 C 2.237602 0.442202 -2.684599 0
M  V30 10 N 0.970247 0.536889 -2.316778 0
M  V30 11 C 0.309795 -0.226801 -1.478483 0
M  V30 12 N -1.025718 0.244561 -1.371946 0
M  V30 13 C -1.078811 1.530174 -0.708137 0
M  V30 14 C -1.675348 2.525790 -1.497656 0
M  V30 15 C -1.833803 3.859475 -1.096416 0
M  V30 16 C -1.373058 4.205744 0.152390 0
M  V30 17 F -1.507045 5.471075 0.572910 0
M  V30 18 C -0.789466 3.229481 0.922975 0
M  V30 19 C -0.627174 1.922359 0.543595 0
M  V30 20 O -0.050408 0.899707 1.262939 0
M  V30 21 C 0.512264 0.977077 2.531658 0
M  V30 22 C -0.143989 0.076154 3.565017 0
M  V30 23 C 1.992022 0.616284 2.535107 0
M  V30 24 C 0.906171 -1.289400 -0.844217 0
M  V30 25 C 0.376584 -2.174620 0.039024 0
M  V30 26 C -1.057226 -2.171639 0.502199 0
M  V30 27 H 1.306441 -6.929304 2.288543 0
M  V30 28 H 3.005840 -6.455039 2.658073 0
M  V30 29 H 1.751109 -5.770267 3.678573 0
M  V30 30 H 2.876176 0.990920 -3.344348 0
M  V30 31 H -2.001937 -0.041975 -1.632906 0
M  V30 32 H -2.071423 2.337410 -2.508012 0
M  V30 33 H -2.296674 4.595151 -1.733392 0
M  V30 34 H -0.435049 3.509208 1.893948 0
M  V30 35 H 0.466761 2.021703 2.893470 0
M  V30 36 H -1.235006 0.212289 3.613012 0
M  V30 37 H 0.367923 0.316577 4.534184 0
M  V30 38 H 0.175582 -0.962067 3.324475 0
M  V30 39 H 2.383424 0.873015 3.539457 0
M  V30 40 H 2.565097 1.227942 1.808444 0
M  V30 41 H 2.132842 -0.475475 2.387484 0
M  V30 42 H -1.350104 -3.205014 0.796935 0
M  V30 43 H -1.144331 -1.571800 1.413430 0
M  V30 44 H -1.762432 -1.867227 -0.262354 0
M  V30 END ATOM
M  V30 BEGIN BOND
M  V30 1 1 1 2
M  V30 2 1 2 3
M  V30 3 2 3 4
M  V30 4 1 3 5
M  V30 5 1 5 6
M  V30 6 1 6 7
M  V30 7 2 7 8
M  V30 8 1 8 9
M  V30 9 2 9 10
M  V30 10 1 10 11
M  V30 11 1 11 12
M  V30 12 1 12 13
M  V30 13 2 13 14
M  V30 14 1 14 15
M  V30 15 2 15 16
M  V30 16 1 16 17
M  V30 17 1 16 18
M  V30 18 2 18 19
M  V30 19 1 19 20
M  V30 20 1 20 21
M  V30 21 1 21 22
M  V30 22 1 21 23
M  V30 23 2 11 24
M  V30 24 1 24 25
M  V30 25 1 25 26
M  V30 26 2 25 5
M  V30 27 1 24 7
M  V30 28 1 19 13
M  V30 29 1 1 27
M  V30 30 1 1 28
M  V30 31 1 1 29
M  V30 32 1 9 30
M  V30 33 1 12 31
M  V30 34 1 14 32
M  V30 35 1 15 33
M  V30 36 1 18 34
M  V30 37 1 21 35
M  V30 38 1 22 36
M  V30 39 1 22 37
M  V30 40 1 22 38
M  V30 41 1 23 39
M  V30 42 1 23 40
M  V30 43 1 23 41
M  V30 44 1 26 42
M  V30 45 1 26 43
M  V30 46 1 26 44
M  V30 END BOND
M  V30 END CTAB
M  END
>  <Dataset>  (541) 
ChEMBL_Kinases

>  <Ligand_Instance>  (541) 
nan

>  <PDB_ID>  (541) 
nan

>  <Standardized_SMILES>  (541) 
COC(=O)c1sc2ncnc(Nc3ccc(F)cc3OC(C)C)c2c1C

>  <Name>  (541) 
nan

>  <Pocket>  (541) 
nan

>  <ATP_Site>  (541) 
nan

>  <Peripheral>  (541) 
nan

>  <Num_H_Atoms_ProtBoundConf>  (541) 
nan

>  <Num_Resolved_Atoms>  (541) 
nan

>  <Num_Not_Resolved_Atoms>  (541) 
nan

$$$$
CHEMBL3632740
     RDKit          3D

  0  0  0  0  0  0  0  0  0  0999 V3000
M  V30 BEGIN CTAB
M  V30 COUNTS 31 33 0 0 0
M  V30 BEGIN ATOM
M  V30 1 C 1.235907 -0.899670 2.274829 0
M  V30 2 C 1.914181 -1.081628 0.966618 0
M  V30 3 C 2.937367 -2.049377 0.908212 0
M  V30 4 C 3.506052 -2.935439 1.818068 0
M  V30 5 O 4.435808 -3.726361 1.527913 0
M  V30 6 O 3.157139 -3.089885 3.147204 0
M  V30 7 S 3.538030 -1.992286 -0.823307 0
M  V30 8 C 2.373607 -0.678139 -1.336846 0
M  V30 9 N 2.186859 -0.067098 -2.522068 0
M  V30 10 C 1.255977 0.886567 -2.685366 0
M  V30 11 N 0.566476 1.148227 -1.585911 0
M  V30 12 C 0.708184 0.583873 -0.409690 0
M  V30 13 N -0.195493 1.092092 0.552763 0
M  V30 14 C -1.441196 0.429596 0.735375 0
M  V30 15 C -2.388079 0.823308 1.660009 0
M  V30 16 C -3.601973 0.203118 1.856874 0
M  V30 17 C -3.892967 -0.908527 1.058700 0
M  V30 18 F -5.075707 -1.558810 1.213428 0
M  V30 19 C -2.989737 -1.344699 0.123422 0
M  V30 20 C -1.789001 -0.678355 -0.025356 0
M  V30 21 C 1.638874 -0.393947 -0.179635 0
M  V30 22 H 1.943465 -1.110490 3.098524 0
M  V30 23 H 0.421648 -1.637693 2.358680 0
M  V30 24 H 0.898232 0.151413 2.401216 0
M  V30 25 H 3.307634 -3.912445 3.702644 0
M  V30 26 H 1.260637 1.250217 -3.695312 0
M  V30 27 H -0.038808 1.940581 1.164022 0
M  V30 28 H -2.171761 1.686502 2.289705 0
M  V30 29 H -4.289599 0.578238 2.604148 0
M  V30 30 H -3.185139 -2.203081 -0.510306 0
M  V30 31 H -1.071982 -1.030113 -0.773096 0
M  V30 END ATOM
M  V30 BEGIN BOND
M  V30 1 1 1 2
M  V30 2 2 2 3
M  V30 3 1 3 4
M  V30 4 2 4 5
M  V30 5 1 4 6
M  V30 6 1 3 7
M  V30 7 1 7 8
M  V30 8 2 8 9
M  V30 9 1 9 10
M  V30 10 2 10 11
M  V30 11 1 11 12
M  V30 12 1 12 13
M  V30 13 1 13 14
M  V30 14 2 14 15
M  V30 15 1 15 16
M  V30 16 2 16 17
M  V30 17 1 17 18
M  V30 18 1 17 19
M  V30 19 2 19 20
M  V30 20 2 12 21
M  V30 21 1 21 2
M  V30 22 1 21 8
M  V30 23 1 20 14
M  V30 24 1 1 22
M  V30 25 1 1 23
M  V30 26 1 1 24
M  V30 27 1 6 25
M  V30 28 1 10 26
M  V30 29 1 13 27
M  V30 30 1 15 28
M  V30 31 1 16 29
M  V30 32 1 19 30
M  V30 33 1 20 31
M  V30 END BOND
M  V30 END CTAB
M  END
>  <Dataset>  (542) 
ChEMBL_Kinases

>  <Ligand_Instance>  (542) 
nan

>  <PDB_ID>  (542) 
nan

>  <Standardized_SMILES>  (542) 
Cc1c(C(=O)O)sc2ncnc(Nc3ccc(F)cc3)c12

>  <Name>  (542) 
nan

>  <Pocket>  (542) 
nan

>  <ATP_Site>  (542) 
nan

>  <Peripheral>  (542) 
nan

>  <Num_H_Atoms_ProtBoundConf>  (542) 
nan

>  <Num_Resolved_Atoms>  (542) 
nan

>  <Num_Not_Resolved_Atoms>  (542) 
nan

$$$$
CHEMBL3884929
     RDKit          3D

  0  0  0  0  0  0  0  0  0  0999 V3000
M  V30 BEGIN CTAB
M  V30 COUNTS 51 54 0 0 0
M  V30 BEGIN ATOM
M  V30 1 C -0.980111 -1.039172 4.766197 0
M  V30 2 C 0.041713 -1.569289 3.761168 0
M  V30 3 C 0.568800 -2.902179 4.253554 0
M  V30 4 C 1.121560 -0.567005 3.578592 0
M  V30 5 O 1.751627 -0.349557 4.636769 0
M  V30 6 N 1.165387 -0.105071 2.235607 0
M  V30 7 C 2.150879 0.873672 1.865100 0
M  V30 8 C 3.518478 0.244380 2.135532 0
M  V30 9 C 2.000657 2.156405 2.648836 0
M  V30 10 C 2.056295 1.202042 0.428193 0
M  V30 11 C 3.076127 0.921757 -0.457756 0
M  V30 12 C 3.040023 1.207789 -1.793670 0
M  V30 13 C 1.930785 1.816479 -2.334594 0
M  V30 14 C 0.881736 2.118689 -1.491932 0
M  V30 15 C 0.969007 1.806518 -0.140550 0
M  V30 16 C 0.129617 -0.800963 1.559375 0
M  V30 17 N -0.212071 -0.696440 0.269306 0
M  V30 18 C -1.211664 -1.397544 -0.296718 0
M  V30 19 N -1.520042 -1.238860 -1.665936 0
M  V30 20 C -2.520132 -1.878431 -2.429855 0
M  V30 21 C -3.417373 -2.809442 -1.978640 0
M  V30 22 C -4.383701 -3.416911 -2.750145 0
M  V30 23 C -4.459446 -3.068759 -4.069792 0
M  V30 24 N -3.592765 -2.157077 -4.545028 0
M  V30 25 C -2.670739 -1.594702 -3.754040 0
M  V30 26 N -1.850746 -2.223139 0.543671 0
M  V30 27 C -1.571244 -2.385313 1.843234 0
M  V30 28 C -0.544035 -1.657010 2.399962 0
M  V30 29 H -0.532682 -0.456388 5.576186 0
M  V30 30 H -1.661654 -1.842398 5.087096 0
M  V30 31 H -1.614119 -0.327004 4.163945 0
M  V30 32 H -0.042577 -3.246377 5.111524 0
M  V30 33 H 0.593489 -3.651418 3.422875 0
M  V30 34 H 1.620231 -2.796079 4.592472 0
M  V30 35 H 3.604867 -0.678573 1.548242 0
M  V30 36 H 4.338343 0.919357 1.820455 0
M  V30 37 H 3.594734 -0.019591 3.219775 0
M  V30 38 H 2.417959 2.974308 2.021421 0
M  V30 39 H 2.580665 2.164374 3.578108 0
M  V30 40 H 0.925215 2.376856 2.775068 0
M  V30 41 H 3.985971 0.446394 -0.132439 0
M  V30 42 H 3.841251 0.985666 -2.480184 0
M  V30 43 H 1.779200 2.093550 -3.368700 0
M  V30 44 H -0.027761 2.605126 -1.872793 0
M  V30 45 H 0.101200 2.072539 0.483251 0
M  V30 46 H -0.915932 -0.542991 -2.190500 0
M  V30 47 H -3.394813 -3.115122 -0.943019 0
M  V30 48 H -5.071614 -4.138419 -2.379708 0
M  V30 49 H -5.193217 -3.505487 -4.733693 0
M  V30 50 H -2.034165 -0.869562 -4.279725 0
M  V30 51 H -2.115510 -3.066335 2.488563 0
M  V30 END ATOM
M  V30 BEGIN BOND
M  V30 1 1 1 2
M  V30 2 1 2 3
M  V30 3 1 2 4
M  V30 4 2 4 5
M  V30 5 1 4 6
M  V30 6 1 6 7
M  V30 7 1 7 8
M  V30 8 1 7 9
M  V30 9 1 7 10
M  V30 10 2 10 11
M  V30 11 1 11 12
M  V30 12 2 12 13
M  V30 13 1 13 14
M  V30 14 2 14 15
M  V30 15 1 6 16
M  V30 16 2 16 17
M  V30 17 1 17 18
M  V30 18 1 18 19
M  V30 19 1 19 20
M  V30 20 2 20 21
M  V30 21 1 21 22
M  V30 22 2 22 23
M  V30 23 1 23 24
M  V30 24 2 24 25
M  V30 25 2 18 26
M  V30 26 1 26 27
M  V30 27 2 27 28
M  V30 28 1 28 2
M  V30 29 1 15 10
M  V30 30 1 28 16
M  V30 31 1 25 20
M  V30 32 1 1 29
M  V30 33 1 1 30
M  V30 34 1 1 31
M  V30 35 1 3 32
M  V30 36 1 3 33
M  V30 37 1 3 34
M  V30 38 1 8 35
M  V30 39 1 8 36
M  V30 40 1 8 37
M  V30 41 1 9 38
M  V30 42 1 9 39
M  V30 43 1 9 40
M  V30 44 1 11 41
M  V30 45 1 12 42
M  V30 46 1 13 43
M  V30 47 1 14 44
M  V30 48 1 15 45
M  V30 49 1 19 46
M  V30 50 1 21 47
M  V30 51 1 22 48
M  V30 52 1 23 49
M  V30 53 1 25 50
M  V30 54 1 27 51
M  V30 END BOND
M  V30 END CTAB
M  END
>  <Dataset>  (543) 
ChEMBL_Kinases

>  <Ligand_Instance>  (543) 
nan

>  <PDB_ID>  (543) 
nan

>  <Standardized_SMILES>  (543) 
CC1(C)C(=O)N(C(C)(C)c2ccccc2)c2nc(Nc3cccnc3)ncc21

>  <Name>  (543) 
nan

>  <Pocket>  (543) 
nan

>  <ATP_Site>  (543) 
nan

>  <Peripheral>  (543) 
nan

>  <Num_H_Atoms_ProtBoundConf>  (543) 
nan

>  <Num_Resolved_Atoms>  (543) 
nan

>  <Num_Not_Resolved_Atoms>  (543) 
nan

$$$$
CHEMBL3632742
     RDKit          3D

  0  0  0  0  0  0  0  0  0  0999 V3000
M  V30 BEGIN CTAB
M  V30 COUNTS 41 43 0 0 0
M  V30 BEGIN ATOM
M  V30 1 C -0.568597 -2.470182 1.874692 0
M  V30 2 C 0.336951 -2.709727 0.724681 0
M  V30 3 C 1.316828 -3.666660 0.994912 0
M  V30 4 C 1.659087 -4.465993 2.115072 0
M  V30 5 O 2.602770 -5.267915 2.110710 0
M  V30 6 O 0.999473 -4.453124 3.326589 0
M  V30 7 S 2.267568 -3.787062 -0.529374 0
M  V30 8 C 1.256388 -2.519855 -1.428638 0
M  V30 9 N 1.382825 -2.058506 -2.708114 0
M  V30 10 C 0.524146 -1.142098 -3.139491 0
M  V30 11 N -0.394882 -0.757782 -2.257299 0
M  V30 12 C -0.528403 -1.196438 -1.014385 0
M  V30 13 N -1.613391 -0.585532 -0.341758 0
M  V30 14 C -1.327320 0.779745 0.016477 0
M  V30 15 C -2.308667 1.563893 -0.609522 0
M  V30 16 C -2.310175 2.957510 -0.464865 0
M  V30 17 C -1.340252 3.571266 0.299211 0
M  V30 18 F -1.269257 4.924090 0.492445 0
M  V30 19 C -0.396087 2.766512 0.896003 0
M  V30 20 C -0.363570 1.403336 0.776502 0
M  V30 21 O 0.506871 0.487306 1.306550 0
M  V30 22 C 1.596075 0.803296 2.120330 0
M  V30 23 C 2.853688 0.255077 1.471353 0
M  V30 24 C 1.465760 0.124351 3.476180 0
M  V30 25 C 0.317909 -2.139928 -0.499842 0
M  V30 26 H -0.000836 -2.286105 2.815163 0
M  V30 27 H -1.264051 -3.352388 2.006346 0
M  V30 28 H -1.228395 -1.591427 1.754719 0
M  V30 29 H 1.401797 -4.772219 4.197505 0
M  V30 30 H 0.656375 -0.804712 -4.152645 0
M  V30 31 H -2.542966 -1.018094 -0.108302 0
M  V30 32 H -3.147812 1.273071 -1.245374 0
M  V30 33 H -3.023517 3.637850 -0.908632 0
M  V30 34 H 0.394720 3.174605 1.508565 0
M  V30 35 H 1.728379 1.886983 2.329430 0
M  V30 36 H 3.322985 -0.536584 2.083626 0
M  V30 37 H 3.587535 1.078910 1.312737 0
M  V30 38 H 2.652635 -0.177971 0.470599 0
M  V30 39 H 0.412138 0.183601 3.849631 0
M  V30 40 H 2.078457 0.692717 4.206150 0
M  V30 41 H 1.859652 -0.899869 3.427146 0
M  V30 END ATOM
M  V30 BEGIN BOND
M  V30 1 1 1 2
M  V30 2 2 2 3
M  V30 3 1 3 4
M  V30 4 2 4 5
M  V30 5 1 4 6
M  V30 6 1 3 7
M  V30 7 1 7 8
M  V30 8 2 8 9
M  V30 9 1 9 10
M  V30 10 2 10 11
M  V30 11 1 11 12
M  V30 12 1 12 13
M  V30 13 1 13 14
M  V30 14 2 14 15
M  V30 15 1 15 16
M  V30 16 2 16 17
M  V30 17 1 17 18
M  V30 18 1 17 19
M  V30 19 2 19 20
M  V30 20 1 20 21
M  V30 21 1 21 22
M  V30 22 1 22 23
M  V30 23 1 22 24
M  V30 24 2 12 25
M  V30 25 1 25 2
M  V30 26 1 25 8
M  V30 27 1 20 14
M  V30 28 1 1 26
M  V30 29 1 1 27
M  V30 30 1 1 28
M  V30 31 1 6 29
M  V30 32 1 10 30
M  V30 33 1 13 31
M  V30 34 1 15 32
M  V30 35 1 16 33
M  V30 36 1 19 34
M  V30 37 1 22 35
M  V30 38 1 23 36
M  V30 39 1 23 37
M  V30 40 1 23 38
M  V30 41 1 24 39
M  V30 42 1 24 40
M  V30 43 1 24 41
M  V30 END BOND
M  V30 END CTAB
M  END
>  <Dataset>  (544) 
ChEMBL_Kinases

>  <Ligand_Instance>  (544) 
nan

>  <PDB_ID>  (544) 
nan

>  <Standardized_SMILES>  (544) 
Cc1c(C(=O)O)sc2ncnc(Nc3ccc(F)cc3OC(C)C)c12

>  <Name>  (544) 
nan

>  <Pocket>  (544) 
nan

>  <ATP_Site>  (544) 
nan

>  <Peripheral>  (544) 
nan

>  <Num_H_Atoms_ProtBoundConf>  (544) 
nan

>  <Num_Resolved_Atoms>  (544) 
nan

>  <Num_Not_Resolved_Atoms>  (544) 
nan

$$$$
CHEMBL3632743
     RDKit          3D

  0  0  0  0  0  0  0  0  0  0999 V3000
M  V30 BEGIN CTAB
M  V30 COUNTS 42 44 0 0 0
M  V30 BEGIN ATOM
M  V30 1 C -1.034101 -3.101846 1.598700 0
M  V30 2 C -0.080839 -3.227684 0.468925 0
M  V30 3 C 0.445128 -4.529640 0.157612 0
M  V30 4 C 0.216900 -5.803757 0.768254 0
M  V30 5 N -0.523038 -6.370073 1.830864 0
M  V30 6 O 0.775569 -6.839169 0.342562 0
M  V30 7 S 1.516839 -4.321939 -1.212630 0
M  V30 8 C 1.236589 -2.492316 -1.338671 0
M  V30 9 N 1.781665 -1.614765 -2.232854 0
M  V30 10 C 1.436733 -0.343872 -2.134010 0
M  V30 11 N 0.577491 -0.029345 -1.158207 0
M  V30 12 C 0.047530 -0.883073 -0.288696 0
M  V30 13 N -0.831913 -0.278847 0.644893 0
M  V30 14 C -1.076488 1.120064 0.628659 0
M  V30 15 C -2.327961 1.676742 0.332130 0
M  V30 16 C -2.527959 3.041255 0.321185 0
M  V30 17 C -1.484224 3.895705 0.606226 0
M  V30 18 F -1.856427 5.188587 0.549099 0
M  V30 19 C -0.260407 3.316345 0.896471 0
M  V30 20 C -0.004690 1.931049 0.921852 0
M  V30 21 O 1.276016 1.827890 1.244606 0
M  V30 22 C 2.249035 0.937394 1.509039 0
M  V30 23 C 2.961649 1.205427 2.857908 0
M  V30 24 C 3.288465 0.989855 0.394780 0
M  V30 25 C 0.347850 -2.217018 -0.317318 0
M  V30 26 H -0.683341 -2.506477 2.438301 0
M  V30 27 H -1.282810 -4.129196 1.996648 0
M  V30 28 H -2.035144 -2.762713 1.196262 0
M  V30 29 H -0.214136 -6.119558 2.797449 0
M  V30 30 H -0.252775 -6.149783 2.821456 0
M  V30 31 H 1.877874 0.325084 -2.847459 0
M  V30 32 H -1.436070 -0.517665 1.441038 0
M  V30 33 H -3.073302 0.895778 0.123600 0
M  V30 34 H -3.550237 3.242833 0.071746 0
M  V30 35 H 0.408628 4.179617 1.088253 0
M  V30 36 H 1.890237 -0.090337 1.599773 0
M  V30 37 H 2.222698 1.350768 3.650582 0
M  V30 38 H 3.562136 0.302676 3.108670 0
M  V30 39 H 3.654807 2.052553 2.764328 0
M  V30 40 H 4.228597 1.351719 0.821851 0
M  V30 41 H 2.980252 1.709672 -0.395724 0
M  V30 42 H 3.418067 -0.004486 -0.036442 0
M  V30 END ATOM
M  V30 BEGIN BOND
M  V30 1 1 1 2
M  V30 2 2 2 3
M  V30 3 1 3 4
M  V30 4 1 4 5
M  V30 5 2 4 6
M  V30 6 1 3 7
M  V30 7 1 7 8
M  V30 8 2 8 9
M  V30 9 1 9 10
M  V30 10 2 10 11
M  V30 11 1 11 12
M  V30 12 1 12 13
M  V30 13 1 13 14
M  V30 14 2 14 15
M  V30 15 1 15 16
M  V30 16 2 16 17
M  V30 17 1 17 18
M  V30 18 1 17 19
M  V30 19 2 19 20
M  V30 20 1 20 21
M  V30 21 1 21 22
M  V30 22 1 22 23
M  V30 23 1 22 24
M  V30 24 2 12 25
M  V30 25 1 25 2
M  V30 26 1 25 8
M  V30 27 1 20 14
M  V30 28 1 1 26
M  V30 29 1 1 27
M  V30 30 1 1 28
M  V30 31 1 5 29
M  V30 32 1 5 30
M  V30 33 1 10 31
M  V30 34 1 13 32
M  V30 35 1 15 33
M  V30 36 1 16 34
M  V30 37 1 19 35
M  V30 38 1 22 36
M  V30 39 1 23 37
M  V30 40 1 23 38
M  V30 41 1 23 39
M  V30 42 1 24 40
M  V30 43 1 24 41
M  V30 44 1 24 42
M  V30 END BOND
M  V30 END CTAB
M  END
>  <Dataset>  (545) 
ChEMBL_Kinases

>  <Ligand_Instance>  (545) 
nan

>  <PDB_ID>  (545) 
nan

>  <Standardized_SMILES>  (545) 
Cc1c(C(N)=O)sc2ncnc(Nc3ccc(F)cc3OC(C)C)c12

>  <Name>  (545) 
nan

>  <Pocket>  (545) 
nan

>  <ATP_Site>  (545) 
nan

>  <Peripheral>  (545) 
nan

>  <Num_H_Atoms_ProtBoundConf>  (545) 
nan

>  <Num_Resolved_Atoms>  (545) 
nan

>  <Num_Not_Resolved_Atoms>  (545) 
nan

$$$$
CHEMBL3632744
     RDKit          3D

  0  0  0  0  0  0  0  0  0  0999 V3000
M  V30 BEGIN CTAB
M  V30 COUNTS 45 47 0 0 0
M  V30 BEGIN ATOM
M  V30 1 C -0.010733 -6.496935 2.356860 0
M  V30 2 N 0.230967 -5.581952 1.258141 0
M  V30 3 C -0.413364 -4.324314 1.440442 0
M  V30 4 O -1.004585 -4.436573 2.545065 0
M  V30 5 C -0.231476 -3.322549 0.383043 0
M  V30 6 S 0.707313 -3.547535 -1.069134 0
M  V30 7 C 0.359661 -1.855420 -1.727811 0
M  V30 8 N 0.773859 -1.247919 -2.902514 0
M  V30 9 C 0.390662 -0.004456 -3.173019 0
M  V30 10 N -0.379576 0.551426 -2.255035 0
M  V30 11 C -0.779039 -0.012851 -1.139263 0
M  V30 12 N -1.591945 0.868371 -0.382042 0
M  V30 13 C -0.861381 2.023831 0.096630 0
M  V30 14 C -1.371994 3.272812 -0.292571 0
M  V30 15 C -0.827906 4.494979 0.037846 0
M  V30 16 C 0.310798 4.491723 0.814445 0
M  V30 17 F 0.923440 5.634950 1.195090 0
M  V30 18 C 0.831315 3.266941 1.209748 0
M  V30 19 C 0.295309 2.043206 0.883814 0
M  V30 20 O 0.698503 0.790907 1.193893 0
M  V30 21 C 1.757604 0.289590 1.899910 0
M  V30 22 C 1.847711 0.608686 3.355099 0
M  V30 23 C 3.045172 0.580577 1.129964 0
M  V30 24 C -0.440870 -1.289440 -0.767099 0
M  V30 25 C -0.747143 -2.039695 0.317570 0
M  V30 26 C -1.625153 -1.568714 1.438146 0
M  V30 27 H 0.622739 -7.397550 2.217142 0
M  V30 28 H 0.356380 -6.021239 3.316845 0
M  V30 29 H -1.057271 -6.796640 2.389466 0
M  V30 30 H 0.830163 -5.864689 0.426234 0
M  V30 31 H 0.809254 0.287233 -4.119170 0
M  V30 32 H -2.593296 0.984551 -0.036507 0
M  V30 33 H -2.279090 3.341383 -0.913742 0
M  V30 34 H -1.267725 5.423443 -0.293006 0
M  V30 35 H 1.718909 3.215772 1.823060 0
M  V30 36 H 1.693934 -0.844703 1.853899 0
M  V30 37 H 0.940296 0.244141 3.875467 0
M  V30 38 H 2.082453 1.661384 3.601004 0
M  V30 39 H 2.699371 -0.012494 3.764686 0
M  V30 40 H 3.138019 1.612260 0.798445 0
M  V30 41 H 2.983561 -0.045591 0.189114 0
M  V30 42 H 3.874261 0.160426 1.700174 0
M  V30 43 H -2.065411 -2.458200 1.980351 0
M  V30 44 H -2.512584 -1.013785 1.099212 0
M  V30 45 H -1.032280 -1.038355 2.200254 0
M  V30 END ATOM
M  V30 BEGIN BOND
M  V30 1 1 1 2
M  V30 2 1 2 3
M  V30 3 2 3 4
M  V30 4 1 3 5
M  V30 5 1 5 6
M  V30 6 1 6 7
M  V30 7 2 7 8
M  V30 8 1 8 9
M  V30 9 2 9 10
M  V30 10 1 10 11
M  V30 11 1 11 12
M  V30 12 1 12 13
M  V30 13 2 13 14
M  V30 14 1 14 15
M  V30 15 2 15 16
M  V30 16 1 16 17
M  V30 17 1 16 18
M  V30 18 2 18 19
M  V30 19 1 19 20
M  V30 20 1 20 21
M  V30 21 1 21 22
M  V30 22 1 21 23
M  V30 23 2 11 24
M  V30 24 1 24 25
M  V30 25 1 25 26
M  V30 26 2 25 5
M  V30 27 1 24 7
M  V30 28 1 19 13
M  V30 29 1 1 27
M  V30 30 1 1 28
M  V30 31 1 1 29
M  V30 32 1 2 30
M  V30 33 1 9 31
M  V30 34 1 12 32
M  V30 35 1 14 33
M  V30 36 1 15 34
M  V30 37 1 18 35
M  V30 38 1 21 36
M  V30 39 1 22 37
M  V30 40 1 22 38
M  V30 41 1 22 39
M  V30 42 1 23 40
M  V30 43 1 23 41
M  V30 44 1 23 42
M  V30 45 1 26 43
M  V30 46 1 26 44
M  V30 47 1 26 45
M  V30 END BOND
M  V30 END CTAB
M  END
>  <Dataset>  (546) 
ChEMBL_Kinases

>  <Ligand_Instance>  (546) 
nan

>  <PDB_ID>  (546) 
nan

>  <Standardized_SMILES>  (546) 
CNC(=O)c1sc2ncnc(Nc3ccc(F)cc3OC(C)C)c2c1C

>  <Name>  (546) 
nan

>  <Pocket>  (546) 
nan

>  <ATP_Site>  (546) 
nan

>  <Peripheral>  (546) 
nan

>  <Num_H_Atoms_ProtBoundConf>  (546) 
nan

>  <Num_Resolved_Atoms>  (546) 
nan

>  <Num_Not_Resolved_Atoms>  (546) 
nan

$$$$
CHEMBL3632745
     RDKit          3D

  0  0  0  0  0  0  0  0  0  0999 V3000
M  V30 BEGIN CTAB
M  V30 COUNTS 48 50 0 0 0
M  V30 BEGIN ATOM
M  V30 1 C 0.190545 -7.230532 2.278540 0
M  V30 2 C 0.334062 -6.730961 0.850134 0
M  V30 3 N 0.223164 -5.295832 0.785498 0
M  V30 4 C 0.333665 -4.713112 -0.496814 0
M  V30 5 O 0.510931 -5.707126 -1.288927 0
M  V30 6 C 0.285375 -3.392265 -0.984323 0
M  V30 7 S 0.495985 -3.402141 -2.797533 0
M  V30 8 C 0.349420 -1.536297 -2.928884 0
M  V30 9 N 0.394480 -0.721926 -4.047819 0
M  V30 10 C 0.247368 0.583699 -3.892074 0
M  V30 11 N 0.066439 0.996018 -2.652818 0
M  V30 12 C 0.022369 0.227827 -1.579396 0
M  V30 13 N -0.215393 0.972965 -0.401240 0
M  V30 14 C 0.668409 1.926607 0.171345 0
M  V30 15 C 1.914377 2.245208 -0.380336 0
M  V30 16 C 2.783057 3.167444 0.131319 0
M  V30 17 C 2.411452 3.842442 1.282146 0
M  V30 18 F 3.242572 4.762656 1.824135 0
M  V30 19 C 1.188629 3.549266 1.849727 0
M  V30 20 C 0.297131 2.612976 1.337747 0
M  V30 21 O -0.928404 2.286405 1.864088 0
M  V30 22 C -1.545296 2.833492 2.985181 0
M  V30 23 C -1.537778 1.878261 4.173095 0
M  V30 24 C -2.970399 3.195632 2.609590 0
M  V30 25 C 0.161569 -1.131574 -1.603621 0
M  V30 26 C 0.135437 -2.079390 -0.656108 0
M  V30 27 C -0.019457 -1.775155 0.787568 0
M  V30 28 H 1.087394 -6.899318 2.846453 0
M  V30 29 H 0.135556 -8.324892 2.264953 0
M  V30 30 H -0.689216 -6.763802 2.772635 0
M  V30 31 H -0.404926 -7.250628 0.201099 0
M  V30 32 H 1.342156 -7.081571 0.490944 0
M  V30 33 H 0.067475 -4.661576 1.565553 0
M  V30 34 H 0.304744 1.074121 -4.829043 0
M  V30 35 H -1.111468 0.783740 0.050082 0
M  V30 36 H 2.125821 1.660124 -1.290491 0
M  V30 37 H 3.731030 3.339554 -0.377081 0
M  V30 38 H 0.913966 4.070746 2.732936 0
M  V30 39 H -0.980307 3.730445 3.305140 0
M  V30 40 H -2.523260 1.835351 4.680133 0
M  V30 41 H -0.770606 2.191318 4.912328 0
M  V30 42 H -1.314587 0.833424 3.838720 0
M  V30 43 H -3.710039 2.636769 3.231096 0
M  V30 44 H -3.172231 4.269343 2.756598 0
M  V30 45 H -3.201442 2.958772 1.540928 0
M  V30 46 H -1.074246 -1.702479 1.102393 0
M  V30 47 H 0.531517 -2.461568 1.442483 0
M  V30 48 H 0.416983 -0.769670 1.036647 0
M  V30 END ATOM
M  V30 BEGIN BOND
M  V30 1 1 1 2
M  V30 2 1 2 3
M  V30 3 1 3 4
M  V30 4 2 4 5
M  V30 5 1 4 6
M  V30 6 1 6 7
M  V30 7 1 7 8
M  V30 8 2 8 9
M  V30 9 1 9 10
M  V30 10 2 10 11
M  V30 11 1 11 12
M  V30 12 1 12 13
M  V30 13 1 13 14
M  V30 14 2 14 15
M  V30 15 1 15 16
M  V30 16 2 16 17
M  V30 17 1 17 18
M  V30 18 1 17 19
M  V30 19 2 19 20
M  V30 20 1 20 21
M  V30 21 1 21 22
M  V30 22 1 22 23
M  V30 23 1 22 24
M  V30 24 2 12 25
M  V30 25 1 25 26
M  V30 26 1 26 27
M  V30 27 2 26 6
M  V30 28 1 25 8
M  V30 29 1 20 14
M  V30 30 1 1 28
M  V30 31 1 1 29
M  V30 32 1 1 30
M  V30 33 1 2 31
M  V30 34 1 2 32
M  V30 35 1 3 33
M  V30 36 1 10 34
M  V30 37 1 13 35
M  V30 38 1 15 36
M  V30 39 1 16 37
M  V30 40 1 19 38
M  V30 41 1 22 39
M  V30 42 1 23 40
M  V30 43 1 23 41
M  V30 44 1 23 42
M  V30 45 1 24 43
M  V30 46 1 24 44
M  V30 47 1 24 45
M  V30 48 1 27 46
M  V30 49 1 27 47
M  V30 50 1 27 48
M  V30 END BOND
M  V30 END CTAB
M  END
>  <Dataset>  (547) 
ChEMBL_Kinases

>  <Ligand_Instance>  (547) 
nan

>  <PDB_ID>  (547) 
nan

>  <Standardized_SMILES>  (547) 
CCNC(=O)c1sc2ncnc(Nc3ccc(F)cc3OC(C)C)c2c1C

>  <Name>  (547) 
nan

>  <Pocket>  (547) 
nan

>  <ATP_Site>  (547) 
nan

>  <Peripheral>  (547) 
nan

>  <Num_H_Atoms_ProtBoundConf>  (547) 
nan

>  <Num_Resolved_Atoms>  (547) 
nan

>  <Num_Not_Resolved_Atoms>  (547) 
nan

$$$$
CHEMBL3884932
     RDKit          3D

  0  0  0  0  0  0  0  0  0  0999 V3000
M  V30 BEGIN CTAB
M  V30 COUNTS 36 39 0 0 0
M  V30 BEGIN ATOM
M  V30 1 C 0.024992 -6.013545 1.724997 0
M  V30 2 O -0.048935 -5.634183 0.368778 0
M  V30 3 C 0.000535 -4.292589 0.046604 0
M  V30 4 C -0.076955 -3.994296 -1.298744 0
M  V30 5 C -0.032631 -2.669931 -1.681646 0
M  V30 6 C 0.086674 -1.605712 -0.784540 0
M  V30 7 N 0.149573 -0.268615 -0.909574 0
M  V30 8 C 0.263119 0.289700 0.294574 0
M  V30 9 C 0.362446 1.594746 0.718792 0
M  V30 10 C 0.351948 2.608529 -0.211999 0
M  V30 11 O 0.246814 2.419250 -1.579616 0
M  V30 12 C 0.244274 3.523481 -2.464331 0
M  V30 13 C 0.456098 3.880601 0.308285 0
M  V30 14 N 0.563714 4.172430 1.632500 0
M  V30 15 C 0.574411 3.180788 2.549212 0
M  V30 16 C 0.471584 1.891275 2.061282 0
M  V30 17 C 0.480422 0.860520 2.982973 0
M  V30 18 C 0.381407 -0.455039 2.571504 0
M  V30 19 C 0.398328 -1.462178 3.593256 0
M  V30 20 N 0.411380 -2.259905 4.431324 0
M  V30 21 C 0.273143 -0.729820 1.224582 0
M  V30 22 C 0.163025 -1.930631 0.564856 0
M  V30 23 C 0.120308 -3.237177 0.957019 0
M  V30 24 H 0.946334 -5.605119 2.147072 0
M  V30 25 H -0.079786 -7.107983 1.826698 0
M  V30 26 H -0.845683 -5.499614 2.218321 0
M  V30 27 H -0.170806 -4.749944 -2.067217 0
M  V30 28 H -0.095065 -2.449453 -2.751143 0
M  V30 29 H 0.105577 0.146526 -1.862726 0
M  V30 30 H -0.390769 4.373792 -2.096939 0
M  V30 31 H -0.241386 3.249430 -3.445455 0
M  V30 32 H 1.257008 3.945826 -2.619039 0
M  V30 33 H 0.462118 4.765518 -0.286260 0
M  V30 34 H 0.658289 3.372287 3.609195 0
M  V30 35 H 0.567854 1.106585 4.052796 0
M  V30 36 H 0.174309 -3.542420 1.969594 0
M  V30 END ATOM
M  V30 BEGIN BOND
M  V30 1 1 1 2
M  V30 2 1 2 3
M  V30 3 2 3 4
M  V30 4 1 4 5
M  V30 5 2 5 6
M  V30 6 1 6 7
M  V30 7 1 7 8
M  V30 8 2 8 9
M  V30 9 1 9 10
M  V30 10 1 10 11
M  V30 11 1 11 12
M  V30 12 2 10 13
M  V30 13 1 13 14
M  V30 14 2 14 15
M  V30 15 1 15 16
M  V30 16 2 16 17
M  V30 17 1 17 18
M  V30 18 1 18 19
M  V30 19 3 19 20
M  V30 20 2 18 21
M  V30 21 1 21 22
M  V30 22 2 22 23
M  V30 23 1 23 3
M  V30 24 1 22 6
M  V30 25 1 21 8
M  V30 26 1 16 9
M  V30 27 1 1 24
M  V30 28 1 1 25
M  V30 29 1 1 26
M  V30 30 1 4 27
M  V30 31 1 5 28
M  V30 32 1 7 29
M  V30 33 1 12 30
M  V30 34 1 12 31
M  V30 35 1 12 32
M  V30 36 1 13 33
M  V30 37 1 15 34
M  V30 38 1 17 35
M  V30 39 1 23 36
M  V30 END BOND
M  V30 END CTAB
M  END
>  <Dataset>  (548) 
ChEMBL_Kinases

>  <Ligand_Instance>  (548) 
nan

>  <PDB_ID>  (548) 
nan

>  <Standardized_SMILES>  (548) 
COc1ccc2[nH]c3c4c(OC)cncc4cc(C#N)c3c2c1

>  <Name>  (548) 
nan

>  <Pocket>  (548) 
nan

>  <ATP_Site>  (548) 
nan

>  <Peripheral>  (548) 
nan

>  <Num_H_Atoms_ProtBoundConf>  (548) 
nan

>  <Num_Resolved_Atoms>  (548) 
nan

>  <Num_Not_Resolved_Atoms>  (548) 
nan

$$$$
CHEMBL3632747
     RDKit          3D

  0  0  0  0  0  0  0  0  0  0999 V3000
M  V30 BEGIN CTAB
M  V30 COUNTS 55 57 0 0 0
M  V30 BEGIN ATOM
M  V30 1 C 0.878144 -1.696031 5.441555 0
M  V30 2 O 2.041609 -1.625461 4.697908 0
M  V30 3 C 3.161918 -1.355877 5.477759 0
M  V30 4 C 4.421477 -1.277758 4.681014 0
M  V30 5 C 4.400131 -0.194336 3.626763 0
M  V30 6 N 3.326357 -0.419452 2.678467 0
M  V30 7 C 3.365072 0.620102 1.749073 0
M  V30 8 O 4.308740 1.432107 2.012789 0
M  V30 9 C 2.550599 0.943383 0.565554 0
M  V30 10 S 3.016473 2.422784 -0.308904 0
M  V30 11 C 1.784808 2.350044 -1.570810 0
M  V30 12 N 1.493334 3.126575 -2.611494 0
M  V30 13 C 0.480342 2.843826 -3.444380 0
M  V30 14 N -0.191214 1.726380 -3.127384 0
M  V30 15 C 0.080066 0.927593 -2.087284 0
M  V30 16 N -0.841616 -0.138314 -2.079960 0
M  V30 17 C -2.105870 0.157648 -1.494960 0
M  V30 18 C -2.357996 1.417871 -0.981399 0
M  V30 19 C -3.563230 1.809270 -0.388646 0
M  V30 20 C -4.548636 0.846106 -0.328350 0
M  V30 21 F -5.746920 1.148869 0.233568 0
M  V30 22 C -4.315591 -0.414505 -0.834842 0
M  V30 23 C -3.128165 -0.798241 -1.418182 0
M  V30 24 O -2.798738 -2.017146 -1.948446 0
M  V30 25 C -3.583300 -3.162753 -2.026883 0
M  V30 26 C -3.840375 -3.600187 -3.454019 0
M  V30 27 C -2.884775 -4.288664 -1.256463 0
M  V30 28 C 1.119129 1.218744 -1.235639 0
M  V30 29 C 1.436573 0.441670 -0.170530 0
M  V30 30 C 0.892984 -0.812657 0.388210 0
M  V30 31 H -0.013242 -1.914700 4.793206 0
M  V30 32 H 0.636984 -0.743796 5.940338 0
M  V30 33 H 0.962396 -2.544862 6.125759 0
M  V30 34 H 2.981696 -0.433462 6.084548 0
M  V30 35 H 3.263363 -2.199541 6.191741 0
M  V30 36 H 4.546900 -2.294105 4.201786 0
M  V30 37 H 5.303072 -1.081297 5.307347 0
M  V30 38 H 4.272031 0.769142 4.161417 0
M  V30 39 H 5.393108 -0.107362 3.120794 0
M  V30 40 H 2.575460 -1.096729 2.500607 0
M  V30 41 H 0.306563 3.519576 -4.264413 0
M  V30 42 H -0.677376 -1.100907 -2.459766 0
M  V30 43 H -1.604345 2.208297 -1.010214 0
M  V30 44 H -3.702871 2.801350 -0.006953 0
M  V30 45 H -5.083852 -1.160940 -0.786818 0
M  V30 46 H -4.566495 -2.956650 -1.562947 0
M  V30 47 H -3.581152 -2.777558 -4.123168 0
M  V30 48 H -3.172923 -4.471917 -3.653747 0
M  V30 49 H -4.860761 -3.976201 -3.524423 0
M  V30 50 H -2.676604 -3.968738 -0.235527 0
M  V30 51 H -1.922452 -4.524059 -1.772971 0
M  V30 52 H -3.547581 -5.161733 -1.326092 0
M  V30 53 H 0.525060 -0.632406 1.430053 0
M  V30 54 H 1.721218 -1.561991 0.366797 0
M  V30 55 H 0.015558 -1.161932 -0.174191 0
M  V30 END ATOM
M  V30 BEGIN BOND
M  V30 1 1 1 2
M  V30 2 1 2 3
M  V30 3 1 3 4
M  V30 4 1 4 5
M  V30 5 1 5 6
M  V30 6 1 6 7
M  V30 7 2 7 8
M  V30 8 1 7 9
M  V30 9 1 9 10
M  V30 10 1 10 11
M  V30 11 2 11 12
M  V30 12 1 12 13
M  V30 13 2 13 14
M  V30 14 1 14 15
M  V30 15 1 15 16
M  V30 16 1 16 17
M  V30 17 2 17 18
M  V30 18 1 18 19
M  V30 19 2 19 20
M  V30 20 1 20 21
M  V30 21 1 20 22
M  V30 22 2 22 23
M  V30 23 1 23 24
M  V30 24 1 24 25
M  V30 25 1 25 26
M  V30 26 1 25 27
M  V30 27 2 15 28
M  V30 28 1 28 29
M  V30 29 1 29 30
M  V30 30 2 29 9
M  V30 31 1 28 11
M  V30 32 1 23 17
M  V30 33 1 1 31
M  V30 34 1 1 32
M  V30 35 1 1 33
M  V30 36 1 3 34
M  V30 37 1 3 35
M  V30 38 1 4 36
M  V30 39 1 4 37
M  V30 40 1 5 38
M  V30 41 1 5 39
M  V30 42 1 6 40
M  V30 43 1 13 41
M  V30 44 1 16 42
M  V30 45 1 18 43
M  V30 46 1 19 44
M  V30 47 1 22 45
M  V30 48 1 25 46
M  V30 49 1 26 47
M  V30 50 1 26 48
M  V30 51 1 26 49
M  V30 52 1 27 50
M  V30 53 1 27 51
M  V30 54 1 27 52
M  V30 55 1 30 53
M  V30 56 1 30 54
M  V30 57 1 30 55
M  V30 END BOND
M  V30 END CTAB
M  END
>  <Dataset>  (549) 
ChEMBL_Kinases

>  <Ligand_Instance>  (549) 
nan

>  <PDB_ID>  (549) 
nan

>  <Standardized_SMILES>  (549) 
COCCCNC(=O)c1sc2ncnc(Nc3ccc(F)cc3OC(C)C)c2c1C

>  <Name>  (549) 
nan

>  <Pocket>  (549) 
nan

>  <ATP_Site>  (549) 
nan

>  <Peripheral>  (549) 
nan

>  <Num_H_Atoms_ProtBoundConf>  (549) 
nan

>  <Num_Resolved_Atoms>  (549) 
nan

>  <Num_Not_Resolved_Atoms>  (549) 
nan

$$$$
CHEMBL3659484
     RDKit          3D

  0  0  0  0  0  0  0  0  0  0999 V3000
M  V30 BEGIN CTAB
M  V30 COUNTS 43 45 0 0 0
M  V30 BEGIN ATOM
M  V30 1 C 2.847179 -0.293457 3.896118 0
M  V30 2 C 2.382601 -1.465360 3.059386 0
M  V30 3 O 1.716282 -1.119960 1.896723 0
M  V30 4 C 2.117249 -0.400573 0.831734 0
M  V30 5 C 3.432844 0.078192 0.916786 0
M  V30 6 C 3.998321 0.832546 -0.090736 0
M  V30 7 C 5.368485 1.315513 0.028035 0
M  V30 8 N 5.895748 2.083215 -1.036991 0
M  V30 9 O 6.066383 1.064992 1.036230 0
M  V30 10 C 3.228466 1.110067 -1.201995 0
M  V30 11 C 1.930362 0.651477 -1.312323 0
M  V30 12 C 1.356029 -0.104343 -0.308416 0
M  V30 13 N 0.051031 -0.671491 -0.211252 0
M  V30 14 C -0.843689 -0.315298 0.836400 0
M  V30 15 N -0.334420 0.580328 1.691674 0
M  V30 16 C -0.954970 1.078447 2.746639 0
M  V30 17 N -2.200194 0.620909 2.941053 0
M  V30 18 C -2.713781 -0.269057 2.095994 0
M  V30 19 S -4.322666 -0.996716 2.165094 0
M  V30 20 C -4.106774 -2.018712 0.677749 0
M  V30 21 C -5.074190 -2.918523 0.109189 0
M  V30 22 N -6.321062 -3.020131 0.773334 0
M  V30 23 O -5.202364 -3.712557 -0.857001 0
M  V30 24 C -2.791383 -1.709554 0.244005 0
M  V30 25 C -2.272900 -2.380146 -0.971895 0
M  V30 26 C -2.113498 -0.812136 0.994759 0
M  V30 27 H 3.934309 -0.329846 4.128236 0
M  V30 28 H 2.345048 -0.328689 4.886933 0
M  V30 29 H 2.538294 0.649830 3.401554 0
M  V30 30 H 1.883799 -2.176635 3.704064 0
M  V30 31 H 3.329352 -1.986390 2.725221 0
M  V30 32 H 4.106382 -0.089774 1.745316 0
M  V30 33 H 6.276176 2.622777 -1.819263 0
M  V30 34 H 6.254773 3.000420 -1.381635 0
M  V30 35 H 3.609396 1.693571 -2.024237 0
M  V30 36 H 1.250290 0.813937 -2.136711 0
M  V30 37 H 0.141813 -1.269474 -1.054602 0
M  V30 38 H -0.552182 1.797768 3.437575 0
M  V30 39 H -6.485588 -3.214121 1.783816 0
M  V30 40 H -7.341508 -2.941884 0.492726 0
M  V30 41 H -2.056331 -1.691075 -1.809146 0
M  V30 42 H -3.013632 -3.092577 -1.387417 0
M  V30 43 H -1.384513 -3.044892 -0.753929 0
M  V30 END ATOM
M  V30 BEGIN BOND
M  V30 1 1 1 2
M  V30 2 1 2 3
M  V30 3 1 3 4
M  V30 4 2 4 5
M  V30 5 1 5 6
M  V30 6 1 6 7
M  V30 7 1 7 8
M  V30 8 2 7 9
M  V30 9 2 6 10
M  V30 10 1 10 11
M  V30 11 2 11 12
M  V30 12 1 12 13
M  V30 13 1 13 14
M  V30 14 2 14 15
M  V30 15 1 15 16
M  V30 16 2 16 17
M  V30 17 1 17 18
M  V30 18 1 18 19
M  V30 19 1 19 20
M  V30 20 1 20 21
M  V30 21 1 21 22
M  V30 22 2 21 23
M  V30 23 2 20 24
M  V30 24 1 24 25
M  V30 25 1 24 26
M  V30 26 1 12 4
M  V30 27 1 26 14
M  V30 28 2 26 18
M  V30 29 1 1 27
M  V30 30 1 1 28
M  V30 31 1 1 29
M  V30 32 1 2 30
M  V30 33 1 2 31
M  V30 34 1 5 32
M  V30 35 1 8 33
M  V30 36 1 8 34
M  V30 37 1 10 35
M  V30 38 1 11 36
M  V30 39 1 13 37
M  V30 40 1 16 38
M  V30 41 1 22 39
M  V30 42 1 22 40
M  V30 43 1 25 41
M  V30 44 1 25 42
M  V30 45 1 25 43
M  V30 END BOND
M  V30 END CTAB
M  END
>  <Dataset>  (550) 
ChEMBL_Kinases

>  <Ligand_Instance>  (550) 
nan

>  <PDB_ID>  (550) 
nan

>  <Standardized_SMILES>  (550) 
CCOc1cc(C(N)=O)ccc1Nc1ncnc2sc(C(N)=O)c(C)c12

>  <Name>  (550) 
nan

>  <Pocket>  (550) 
nan

>  <ATP_Site>  (550) 
nan

>  <Peripheral>  (550) 
nan

>  <Num_H_Atoms_ProtBoundConf>  (550) 
nan

>  <Num_Resolved_Atoms>  (550) 
nan

>  <Num_Not_Resolved_Atoms>  (550) 
nan

$$$$
CHEMBL3884839
     RDKit          3D

  0  0  0  0  0  0  0  0  0  0999 V3000
M  V30 BEGIN CTAB
M  V30 COUNTS 48 50 0 0 0
M  V30 BEGIN ATOM
M  V30 1 C 0.392340 -3.401312 1.474399 0
M  V30 2 C 1.672702 -3.667576 1.208835 0
M  V30 3 C 2.793716 -2.984739 0.614881 0
M  V30 4 O 3.902564 -3.566666 0.519573 0
M  V30 5 N 2.743348 -1.666854 0.114483 0
M  V30 6 C 3.715820 -0.845790 -0.493572 0
M  V30 7 C 5.008690 -1.186204 -0.738886 0
M  V30 8 C 5.985132 -0.393570 -1.309626 0
M  V30 9 C 5.585632 0.895183 -1.668135 0
M  V30 10 C 4.274794 1.298365 -1.441309 0
M  V30 11 C 3.372069 0.435452 -0.866982 0
M  V30 12 O 2.122674 0.918880 -0.685263 0
M  V30 13 C 0.919428 0.589103 -1.196289 0
M  V30 14 N -0.064546 1.316237 -0.601121 0
M  V30 15 C -1.360093 1.151718 -0.955828 0
M  V30 16 N -2.545174 1.797182 -0.486667 0
M  V30 17 C -2.976320 1.479073 0.829174 0
M  V30 18 C -4.196642 1.785450 1.399679 0
M  V30 19 N -4.196299 1.335351 2.654456 0
M  V30 20 N -3.073580 0.740524 3.004088 0
M  V30 21 C -2.435133 0.075936 4.100343 0
M  V30 22 C -2.508760 -1.400932 4.209947 0
M  V30 23 O -3.652118 -2.062680 4.342722 0
M  V30 24 C -4.624443 -2.051434 3.392315 0
M  V30 25 C -2.323364 0.836542 1.858240 0
M  V30 26 N -1.721738 0.271490 -1.902288 0
M  V30 27 C -0.808831 -0.483667 -2.538941 0
M  V30 28 C 0.486693 -0.292883 -2.158526 0
M  V30 29 Cl 1.743766 -1.187075 -2.966473 0
M  V30 30 H -0.213395 -2.522698 1.303063 0
M  V30 31 H -0.291684 -2.577774 1.346834 0
M  V30 32 H 1.798296 -4.691211 1.577712 0
M  V30 33 H 1.771360 -1.257367 0.239252 0
M  V30 34 H 5.372928 -2.166326 -0.483096 0
M  V30 35 H 7.004426 -0.728474 -1.481177 0
M  V30 36 H 6.282302 1.593413 -2.120795 0
M  V30 37 H 4.010230 2.289056 -1.733409 0
M  V30 38 H -3.100858 2.475791 -1.046111 0
M  V30 39 H -5.046454 2.303114 0.953041 0
M  V30 40 H -1.332634 0.329057 4.146002 0
M  V30 41 H -2.882216 0.506999 5.048242 0
M  V30 42 H -1.888150 -1.645326 5.145027 0
M  V30 43 H -1.902051 -1.827876 3.333307 0
M  V30 44 H -5.042038 -1.073620 3.213375 0
M  V30 45 H -5.467443 -2.763658 3.626791 0
M  V30 46 H -4.249459 -2.411546 2.393946 0
M  V30 47 H -1.296366 0.484589 1.635264 0
M  V30 48 H -1.015096 -1.218458 -3.315772 0
M  V30 END ATOM
M  V30 BEGIN BOND
M  V30 1 2 1 2
M  V30 2 1 2 3
M  V30 3 2 3 4
M  V30 4 1 3 5
M  V30 5 1 5 6
M  V30 6 2 6 7
M  V30 7 1 7 8
M  V30 8 2 8 9
M  V30 9 1 9 10
M  V30 10 2 10 11
M  V30 11 1 11 12
M  V30 12 1 12 13
M  V30 13 2 13 14
M  V30 14 1 14 15
M  V30 15 1 15 16
M  V30 16 1 16 17
M  V30 17 1 17 18
M  V30 18 2 18 19
M  V30 19 1 19 20
M  V30 20 1 20 21
M  V30 21 1 21 22
M  V30 22 1 22 23
M  V30 23 1 23 24
M  V30 24 1 20 25
M  V30 25 2 15 26
M  V30 26 1 26 27
M  V30 27 2 27 28
M  V30 28 1 28 29
M  V30 29 1 11 6
M  V30 30 1 28 13
M  V30 31 2 25 17
M  V30 32 1 1 30
M  V30 33 1 1 31
M  V30 34 1 2 32
M  V30 35 1 5 33
M  V30 36 1 7 34
M  V30 37 1 8 35
M  V30 38 1 9 36
M  V30 39 1 10 37
M  V30 40 1 16 38
M  V30 41 1 18 39
M  V30 42 1 21 40
M  V30 43 1 21 41
M  V30 44 1 22 42
M  V30 45 1 22 43
M  V30 46 1 24 44
M  V30 47 1 24 45
M  V30 48 1 24 46
M  V30 49 1 25 47
M  V30 50 1 27 48
M  V30 END BOND
M  V30 END CTAB
M  END
>  <Dataset>  (551) 
ChEMBL_Kinases

>  <Ligand_Instance>  (551) 
nan

>  <PDB_ID>  (551) 
nan

>  <Standardized_SMILES>  (551) 
C=CC(=O)Nc1ccccc1Oc1nc(Nc2cnn(CCOC)c2)ncc1Cl

>  <Name>  (551) 
nan

>  <Pocket>  (551) 
nan

>  <ATP_Site>  (551) 
nan

>  <Peripheral>  (551) 
nan

>  <Num_H_Atoms_ProtBoundConf>  (551) 
nan

>  <Num_Resolved_Atoms>  (551) 
nan

>  <Num_Not_Resolved_Atoms>  (551) 
nan

$$$$
CHEMBL4075220
     RDKit          3D

  0  0  0  0  0  0  0  0  0  0999 V3000
M  V30 BEGIN CTAB
M  V30 COUNTS 32 34 0 0 0
M  V30 BEGIN ATOM
M  V30 1 N 1.810946 -2.443625 3.476562 0
M  V30 2 C 2.011170 -2.438260 2.352000 0
M  V30 3 C 2.269338 -2.455432 0.945022 0
M  V30 4 C 3.074548 -3.428527 0.343400 0
M  V30 5 N 3.115674 -3.193246 -1.000549 0
M  V30 6 C 2.372593 -2.110959 -1.294103 0
M  V30 7 N 2.071002 -1.471103 -2.438594 0
M  V30 8 C 1.250943 -0.381640 -2.373569 0
M  V30 9 N 0.941802 0.282390 -3.593907 0
M  V30 10 N 0.759485 0.041045 -1.203305 0
M  V30 11 C 1.031745 -0.567876 -0.009174 0
M  V30 12 C 0.400714 0.034971 1.150777 0
M  V30 13 C 0.880021 0.465362 2.348421 0
M  V30 14 C 0.067159 0.990124 3.328233 0
M  V30 15 C -1.295042 1.115127 3.157832 0
M  V30 16 C -1.814623 0.689281 1.955124 0
M  V30 17 S -3.543885 0.856730 1.758525 0
M  V30 18 N -4.372117 -0.569981 2.307391 0
M  V30 19 O -4.055704 1.993954 2.597862 0
M  V30 20 O -3.916508 1.079031 0.319905 0
M  V30 21 C -0.986229 0.166242 0.985755 0
M  V30 22 C 1.857646 -1.662881 -0.098786 0
M  V30 23 H 3.590372 -4.241507 0.831765 0
M  V30 24 H 3.627676 -3.734289 -1.741451 0
M  V30 25 H 0.031964 -0.117696 -3.953581 0
M  V30 26 H 1.710068 0.982227 -3.787128 0
M  V30 27 H 1.939365 0.371788 2.447528 0
M  V30 28 H 0.609456 1.287821 4.230813 0
M  V30 29 H -1.814902 1.541233 4.001965 0
M  V30 30 H -3.658435 -1.177705 2.765000 0
M  V30 31 H -4.737238 -1.121925 1.500045 0
M  V30 32 H -1.531118 -0.124970 0.097594 0
M  V30 END ATOM
M  V30 BEGIN BOND
M  V30 1 3 1 2
M  V30 2 1 2 3
M  V30 3 2 3 4
M  V30 4 1 4 5
M  V30 5 1 5 6
M  V30 6 2 6 7
M  V30 7 1 7 8
M  V30 8 1 8 9
M  V30 9 2 8 10
M  V30 10 1 10 11
M  V30 11 1 11 12
M  V30 12 2 12 13
M  V30 13 1 13 14
M  V30 14 2 14 15
M  V30 15 1 15 16
M  V30 16 1 16 17
M  V30 17 1 17 18
M  V30 18 2 17 19
M  V30 19 2 17 20
M  V30 20 2 16 21
M  V30 21 2 11 22
M  V30 22 1 22 3
M  V30 23 1 22 6
M  V30 24 1 21 12
M  V30 25 1 4 23
M  V30 26 1 5 24
M  V30 27 1 9 25
M  V30 28 1 9 26
M  V30 29 1 13 27
M  V30 30 1 14 28
M  V30 31 1 15 29
M  V30 32 1 18 30
M  V30 33 1 18 31
M  V30 34 1 21 32
M  V30 END BOND
M  V30 END CTAB
M  END
>  <Dataset>  (552) 
ChEMBL_Kinases

>  <Ligand_Instance>  (552) 
nan

>  <PDB_ID>  (552) 
nan

>  <Standardized_SMILES>  (552) 
N#Cc1c[nH]c2nc(N)nc(-c3cccc(S(N)(=O)=O)c3)c12

>  <Name>  (552) 
nan

>  <Pocket>  (552) 
nan

>  <ATP_Site>  (552) 
nan

>  <Peripheral>  (552) 
nan

>  <Num_H_Atoms_ProtBoundConf>  (552) 
nan

>  <Num_Resolved_Atoms>  (552) 
nan

>  <Num_Not_Resolved_Atoms>  (552) 
nan

$$$$
CHEMBL4075183
     RDKit          3D

  0  0  0  0  0  0  0  0  0  0999 V3000
M  V30 BEGIN CTAB
M  V30 COUNTS 48 51 0 0 0
M  V30 BEGIN ATOM
M  V30 1 O -0.963214 5.004147 0.429486 0
M  V30 2 S 0.023555 3.934913 0.028634 0
M  V30 3 O 1.387765 4.538577 0.073883 0
M  V30 4 C -0.402512 3.436801 -1.641014 0
M  V30 5 C 0.466624 2.364271 -2.139410 0
M  V30 6 C 1.614437 2.812045 -2.800452 0
M  V30 7 C 2.539714 1.929948 -3.331434 0
M  V30 8 C 2.348807 0.551321 -3.219496 0
M  V30 9 C 1.212306 0.130002 -2.565004 0
M  V30 10 C 0.277133 0.994053 -2.028302 0
M  V30 11 C -0.144776 2.542801 1.077411 0
M  V30 12 C -1.357107 2.298379 1.687844 0
M  V30 13 C -1.460799 1.194291 2.509029 0
M  V30 14 C -0.352122 0.391896 2.679098 0
M  V30 15 C 0.876643 0.598823 2.089042 0
M  V30 16 N 1.999802 -0.251421 2.278912 0
M  V30 17 C 2.084250 -1.443320 3.054191 0
M  V30 18 C 1.235722 -2.569423 2.572342 0
M  V30 19 N 0.006164 -3.084402 2.749626 0
M  V30 20 C -0.193075 -4.157459 1.997649 0
M  V30 21 C -1.531916 -4.731312 2.180359 0
M  V30 22 C -2.611315 -4.171940 1.518270 0
M  V30 23 C -3.886149 -4.695785 1.674377 0
M  V30 24 N -4.069855 -5.769454 2.487392 0
M  V30 25 C -3.032027 -6.327249 3.139793 0
M  V30 26 C -1.736431 -5.823851 3.004094 0
M  V30 27 N 0.924131 -4.386489 1.286730 0
M  V30 28 N 1.760314 -3.429776 1.644614 0
M  V30 29 C 0.922639 1.708002 1.285211 0
M  V30 30 H -1.445269 3.060412 -1.635441 0
M  V30 31 H -0.402040 4.300492 -2.324602 0
M  V30 32 H 1.852676 3.864534 -2.939124 0
M  V30 33 H 3.432036 2.282886 -3.845343 0
M  V30 34 H 3.044338 -0.176427 -3.618536 0
M  V30 35 H 1.032785 -0.932096 -2.460106 0
M  V30 36 H -0.619621 0.705486 -1.511944 0
M  V30 37 H -2.162851 2.989222 1.487775 0
M  V30 38 H -2.407624 1.013192 2.978827 0
M  V30 39 H -0.509215 -0.438145 3.332511 0
M  V30 40 H 2.876693 0.067027 1.763655 0
M  V30 41 H 3.124887 -1.769921 3.114974 0
M  V30 42 H 1.784655 -1.171896 4.101599 0
M  V30 43 H -2.517471 -3.323138 0.865106 0
M  V30 44 H -4.760578 -4.291667 1.176848 0
M  V30 45 H -3.165962 -7.188244 3.794480 0
M  V30 46 H -0.922683 -6.276504 3.527751 0
M  V30 47 H 2.721176 -3.428592 1.189495 0
M  V30 48 H 1.849383 1.957775 0.773924 0
M  V30 END ATOM
M  V30 BEGIN BOND
M  V30 1 2 1 2
M  V30 2 2 2 3
M  V30 3 1 2 4
M  V30 4 1 4 5
M  V30 5 2 5 6
M  V30 6 1 6 7
M  V30 7 2 7 8
M  V30 8 1 8 9
M  V30 9 2 9 10
M  V30 10 1 2 11
M  V30 11 2 11 12
M  V30 12 1 12 13
M  V30 13 2 13 14
M  V30 14 1 14 15
M  V30 15 1 15 16
M  V30 16 1 16 17
M  V30 17 1 17 18
M  V30 18 2 18 19
M  V30 19 1 19 20
M  V30 20 1 20 21
M  V30 21 2 21 22
M  V30 22 1 22 23
M  V30 23 2 23 24
M  V30 24 1 24 25
M  V30 25 2 25 26
M  V30 26 2 20 27
M  V30 27 1 27 28
M  V30 28 2 15 29
M  V30 29 1 10 5
M  V30 30 1 29 11
M  V30 31 1 28 18
M  V30 32 1 26 21
M  V30 33 1 4 30
M  V30 34 1 4 31
M  V30 35 1 6 32
M  V30 36 1 7 33
M  V30 37 1 8 34
M  V30 38 1 9 35
M  V30 39 1 10 36
M  V30 40 1 12 37
M  V30 41 1 13 38
M  V30 42 1 14 39
M  V30 43 1 16 40
M  V30 44 1 17 41
M  V30 45 1 17 42
M  V30 46 1 22 43
M  V30 47 1 23 44
M  V30 48 1 25 45
M  V30 49 1 26 46
M  V30 50 1 28 47
M  V30 51 1 29 48
M  V30 END BOND
M  V30 END CTAB
M  END
>  <Dataset>  (553) 
ChEMBL_Kinases

>  <Ligand_Instance>  (553) 
nan

>  <PDB_ID>  (553) 
nan

>  <Standardized_SMILES>  (553) 
O=S(=O)(Cc1ccccc1)c1cccc(NCc2nc(-c3ccncc3)n[nH]2)c1

>  <Name>  (553) 
nan

>  <Pocket>  (553) 
nan

>  <ATP_Site>  (553) 
nan

>  <Peripheral>  (553) 
nan

>  <Num_H_Atoms_ProtBoundConf>  (553) 
nan

>  <Num_Resolved_Atoms>  (553) 
nan

>  <Num_Not_Resolved_Atoms>  (553) 
nan

$$$$
CHEMBL4075063
     RDKit          3D

  0  0  0  0  0  0  0  0  0  0999 V3000
M  V30 BEGIN CTAB
M  V30 COUNTS 55 58 0 0 0
M  V30 BEGIN ATOM
M  V30 1 O 0.629519 1.464777 3.904720 0
M  V30 2 C 0.299953 1.003229 2.792134 0
M  V30 3 N 1.337908 0.374527 2.053487 0
M  V30 4 C 2.678989 0.260309 2.520987 0
M  V30 5 C 3.398384 1.531051 2.803444 0
M  V30 6 C 3.559745 2.462035 1.671039 0
M  V30 7 C 4.295929 1.955278 0.514015 0
M  V30 8 C 5.676021 2.065877 0.344171 0
M  V30 9 C 6.297024 1.557998 -0.783126 0
M  V30 10 C 5.586602 0.930839 -1.770296 0
M  V30 11 C 4.237905 0.801707 -1.644003 0
M  V30 12 C 3.627527 1.305602 -0.527116 0
M  V30 13 C -1.082975 1.143749 2.355821 0
M  V30 14 C -1.961061 1.781470 3.195347 0
M  V30 15 C -3.263574 1.934375 2.826216 0
M  V30 16 C -3.705158 1.456509 1.623041 0
M  V30 17 C -2.865248 0.796098 0.717737 0
M  V30 18 N -3.329494 0.315648 -0.527481 0
M  V30 19 C -2.707039 -0.395332 -1.595837 0
M  V30 20 C -2.312352 -1.757165 -1.159228 0
M  V30 21 N -3.249563 -2.723359 -1.232202 0
M  V30 22 C -2.714856 -3.870120 -0.814579 0
M  V30 23 C -3.387732 -5.166738 -0.733268 0
M  V30 24 C -2.836905 -6.226438 -0.047705 0
M  V30 25 C -3.426630 -7.477057 0.064157 0
M  V30 26 N -4.612501 -7.620735 -0.551789 0
M  V30 27 C -5.172762 -6.600819 -1.228539 0
M  V30 28 C -4.608700 -5.352154 -1.354147 0
M  V30 29 N -1.439820 -3.609511 -0.482097 0
M  V30 30 N -1.193399 -2.318847 -0.692683 0
M  V30 31 C -1.572223 0.679690 1.155584 0
M  V30 32 H 1.092969 -0.021666 1.118688 0
M  V30 33 H 2.624322 -0.308301 3.494808 0
M  V30 34 H 3.284504 -0.367793 1.869236 0
M  V30 35 H 4.388300 1.265922 3.228508 0
M  V30 36 H 2.864558 2.070862 3.612409 0
M  V30 37 H 2.547020 2.828452 1.332814 0
M  V30 38 H 4.082874 3.368591 2.039632 0
M  V30 39 H 6.207115 2.566032 1.141128 0
M  V30 40 H 7.368420 1.658759 -0.886866 0
M  V30 41 H 6.127790 0.552000 -2.632542 0
M  V30 42 H 3.675435 0.305745 -2.424435 0
M  V30 43 H 2.536856 1.164882 -0.493371 0
M  V30 44 H -1.665166 2.175151 4.151151 0
M  V30 45 H -3.964518 2.428019 3.464735 0
M  V30 46 H -4.761264 1.598575 1.360534 0
M  V30 47 H -4.362276 0.535881 -0.690167 0
M  V30 48 H -3.367768 -0.439081 -2.474483 0
M  V30 49 H -1.798582 0.165477 -1.965456 0
M  V30 50 H -1.872228 -6.059949 0.435765 0
M  V30 51 H -2.907702 -8.255109 0.631936 0
M  V30 52 H -6.130029 -6.751416 -1.713414 0
M  V30 53 H -5.047053 -4.531436 -1.891712 0
M  V30 54 H -0.317075 -1.795152 -0.547142 0
M  V30 55 H -0.844933 0.202124 0.547689 0
M  V30 END ATOM
M  V30 BEGIN BOND
M  V30 1 2 1 2
M  V30 2 1 2 3
M  V30 3 1 3 4
M  V30 4 1 4 5
M  V30 5 1 5 6
M  V30 6 1 6 7
M  V30 7 2 7 8
M  V30 8 1 8 9
M  V30 9 2 9 10
M  V30 10 1 10 11
M  V30 11 2 11 12
M  V30 12 1 2 13
M  V30 13 2 13 14
M  V30 14 1 14 15
M  V30 15 2 15 16
M  V30 16 1 16 17
M  V30 17 1 17 18
M  V30 18 1 18 19
M  V30 19 1 19 20
M  V30 20 2 20 21
M  V30 21 1 21 22
M  V30 22 1 22 23
M  V30 23 2 23 24
M  V30 24 1 24 25
M  V30 25 2 25 26
M  V30 26 1 26 27
M  V30 27 2 27 28
M  V30 28 2 22 29
M  V30 29 1 29 30
M  V30 30 2 17 31
M  V30 31 1 12 7
M  V30 32 1 31 13
M  V30 33 1 30 20
M  V30 34 1 28 23
M  V30 35 1 3 32
M  V30 36 1 4 33
M  V30 37 1 4 34
M  V30 38 1 5 35
M  V30 39 1 5 36
M  V30 40 1 6 37
M  V30 41 1 6 38
M  V30 42 1 8 39
M  V30 43 1 9 40
M  V30 44 1 10 41
M  V30 45 1 11 42
M  V30 46 1 12 43
M  V30 47 1 14 44
M  V30 48 1 15 45
M  V30 49 1 16 46
M  V30 50 1 18 47
M  V30 51 1 19 48
M  V30 52 1 19 49
M  V30 53 1 24 50
M  V30 54 1 25 51
M  V30 55 1 27 52
M  V30 56 1 28 53
M  V30 57 1 30 54
M  V30 58 1 31 55
M  V30 END BOND
M  V30 END CTAB
M  END
>  <Dataset>  (554) 
ChEMBL_Kinases

>  <Ligand_Instance>  (554) 
nan

>  <PDB_ID>  (554) 
nan

>  <Standardized_SMILES>  (554) 
O=C(NCCCc1ccccc1)c1cccc(NCc2nc(-c3ccncc3)n[nH]2)c1

>  <Name>  (554) 
nan

>  <Pocket>  (554) 
nan

>  <ATP_Site>  (554) 
nan

>  <Peripheral>  (554) 
nan

>  <Num_H_Atoms_ProtBoundConf>  (554) 
nan

>  <Num_Resolved_Atoms>  (554) 
nan

>  <Num_Not_Resolved_Atoms>  (554) 
nan

$$$$
CHEMBL4074524
     RDKit          3D

  0  0  0  0  0  0  0  0  0  0999 V3000
M  V30 BEGIN CTAB
M  V30 COUNTS 46 49 0 0 0
M  V30 BEGIN ATOM
M  V30 1 C 1.835913 -5.164993 4.493599 0
M  V30 2 S 2.840458 -4.444991 3.187780 0
M  V30 3 C 2.249772 -2.789865 2.759536 0
M  V30 4 N 3.035472 -2.299598 1.770204 0
M  V30 5 C 2.588153 -1.054190 1.449374 0
M  V30 6 C 2.984936 -0.023370 0.500215 0
M  V30 7 C 2.847039 -0.173923 -0.884541 0
M  V30 8 C 3.212741 0.757574 -1.821350 0
M  V30 9 C 3.765099 1.947181 -1.365038 0
M  V30 10 F 4.158338 2.928545 -2.242155 0
M  V30 11 C 3.935188 2.171169 0.006396 0
M  V30 12 C 3.544205 1.189809 0.894411 0
M  V30 13 C 1.510510 -0.806470 2.273254 0
M  V30 14 C 0.532132 0.277329 2.510267 0
M  V30 15 C 0.618442 1.295908 3.451595 0
M  V30 16 C -0.404533 2.216112 3.522098 0
M  V30 17 N -1.495211 2.192418 2.727858 0
M  V30 18 C -1.648099 1.248440 1.803236 0
M  V30 19 N -2.788612 1.161658 0.953172 0
M  V30 20 C -2.980491 0.300571 -0.163436 0
M  V30 21 C -1.908478 0.163005 -1.050030 0
M  V30 22 C -2.032328 -0.693185 -2.135304 0
M  V30 23 C -3.238867 -1.360117 -2.256414 0
M  V30 24 N -3.343317 -2.231742 -3.367822 0
M  V30 25 C -4.318453 -1.252904 -1.406861 0
M  V30 26 C -4.181422 -0.388576 -0.320273 0
M  V30 27 C -0.626517 0.318391 1.724749 0
M  V30 28 N 1.299056 -1.860138 3.073957 0
M  V30 29 H 2.038636 -4.640349 5.454697 0
M  V30 30 H 0.763121 -5.168164 4.316180 0
M  V30 31 H 2.185829 -6.215347 4.624435 0
M  V30 32 H 2.412493 -1.114619 -1.215895 0
M  V30 33 H 3.080258 0.584341 -2.879397 0
M  V30 34 H 4.367579 3.094706 0.414444 0
M  V30 35 H 3.640039 1.274932 1.986308 0
M  V30 36 H 1.508321 1.270826 4.062665 0
M  V30 37 H -0.308193 3.007354 4.274526 0
M  V30 38 H -3.587665 1.803449 1.162550 0
M  V30 39 H -0.953770 0.690732 -0.982515 0
M  V30 40 H -1.232056 -0.832486 -2.844316 0
M  V30 41 H -3.496825 -2.365017 -4.389783 0
M  V30 42 H -3.319985 -3.200012 -3.743816 0
M  V30 43 H -5.219971 -1.841588 -1.617351 0
M  V30 44 H -4.992830 -0.278148 0.356816 0
M  V30 45 H -0.693653 -0.502330 0.991807 0
M  V30 46 H 0.705840 -2.238798 3.828071 0
M  V30 END ATOM
M  V30 BEGIN BOND
M  V30 1 1 1 2
M  V30 2 1 2 3
M  V30 3 2 3 4
M  V30 4 1 4 5
M  V30 5 1 5 6
M  V30 6 2 6 7
M  V30 7 1 7 8
M  V30 8 2 8 9
M  V30 9 1 9 10
M  V30 10 1 9 11
M  V30 11 2 11 12
M  V30 12 2 5 13
M  V30 13 1 13 14
M  V30 14 2 14 15
M  V30 15 1 15 16
M  V30 16 2 16 17
M  V30 17 1 17 18
M  V30 18 1 18 19
M  V30 19 1 19 20
M  V30 20 2 20 21
M  V30 21 1 21 22
M  V30 22 2 22 23
M  V30 23 1 23 24
M  V30 24 1 23 25
M  V30 25 2 25 26
M  V30 26 2 18 27
M  V30 27 1 13 28
M  V30 28 1 28 3
M  V30 29 1 12 6
M  V30 30 1 27 14
M  V30 31 1 26 20
M  V30 32 1 1 29
M  V30 33 1 1 30
M  V30 34 1 1 31
M  V30 35 1 7 32
M  V30 36 1 8 33
M  V30 37 1 11 34
M  V30 38 1 12 35
M  V30 39 1 15 36
M  V30 40 1 16 37
M  V30 41 1 19 38
M  V30 42 1 21 39
M  V30 43 1 22 40
M  V30 44 1 24 41
M  V30 45 1 24 42
M  V30 46 1 25 43
M  V30 47 1 26 44
M  V30 48 1 27 45
M  V30 49 1 28 46
M  V30 END BOND
M  V30 END CTAB
M  END
>  <Dataset>  (555) 
ChEMBL_Kinases

>  <Ligand_Instance>  (555) 
nan

>  <PDB_ID>  (555) 
nan

>  <Standardized_SMILES>  (555) 
CSc1nc(-c2ccc(F)cc2)c(-c2ccnc(Nc3ccc(N)cc3)c2)[nH]1

>  <Name>  (555) 
nan

>  <Pocket>  (555) 
nan

>  <ATP_Site>  (555) 
nan

>  <Peripheral>  (555) 
nan

>  <Num_H_Atoms_ProtBoundConf>  (555) 
nan

>  <Num_Resolved_Atoms>  (555) 
nan

>  <Num_Not_Resolved_Atoms>  (555) 
nan

$$$$
CHEMBL3884845
     RDKit          3D

  0  0  0  0  0  0  0  0  0  0999 V3000
M  V30 BEGIN CTAB
M  V30 COUNTS 42 45 0 0 0
M  V30 BEGIN ATOM
M  V30 1 C -1.205530 -6.187357 0.346322 0
M  V30 2 O -0.308782 -5.525371 1.216193 0
M  V30 3 C -0.008253 -4.182693 1.034082 0
M  V30 4 C 0.881493 -3.531505 1.898434 0
M  V30 5 C 1.170610 -2.194523 1.703770 0
M  V30 6 C 0.612706 -1.467441 0.681730 0
M  V30 7 C -0.259242 -2.126601 -0.156191 0
M  V30 8 C -0.574805 -3.460760 0.003502 0
M  V30 9 N -0.670512 -1.220816 -1.062912 0
M  V30 10 C -0.076887 -0.043326 -0.798574 0
M  V30 11 C -0.190721 1.164906 -1.451733 0
M  V30 12 C -0.979454 1.399907 -2.558240 0
M  V30 13 C -1.047368 2.636568 -3.163669 0
M  V30 14 N -0.323026 3.672851 -2.672905 0
M  V30 15 C 0.474253 3.504675 -1.583745 0
M  V30 16 C 0.526103 2.257093 -0.994083 0
M  V30 17 C 1.323886 2.055543 0.110028 0
M  V30 18 C 1.484608 0.858191 0.818333 0
M  V30 19 C 2.388773 0.793780 1.992920 0
M  V30 20 N 1.706546 0.786870 3.223320 0
M  V30 21 C 2.417880 0.711398 4.426659 0
M  V30 22 C 0.309091 0.670742 3.261844 0
M  V30 23 C 0.741598 -0.173600 0.302549 0
M  V30 24 H -2.259046 -6.086285 0.611224 0
M  V30 25 H -0.972712 -7.290218 0.426859 0
M  V30 26 H -1.064297 -5.925676 -0.711912 0
M  V30 27 H 1.285261 -4.159842 2.680919 0
M  V30 28 H 1.860781 -1.849494 2.447682 0
M  V30 29 H -1.268982 -3.899015 -0.700116 0
M  V30 30 H -1.341608 -1.393666 -1.848348 0
M  V30 31 H -1.553233 0.546148 -2.932904 0
M  V30 32 H -1.691407 2.722808 -4.023304 0
M  V30 33 H 1.058398 4.331964 -1.183923 0
M  V30 34 H 1.887073 2.922894 0.466235 0
M  V30 35 H 2.992603 1.752386 1.953409 0
M  V30 36 H 3.137665 -0.019177 1.950440 0
M  V30 37 H 2.360682 -0.284888 4.900248 0
M  V30 38 H 1.936283 1.410409 5.167797 0
M  V30 39 H 3.461553 1.056930 4.280009 0
M  V30 40 H -0.209389 0.925432 2.336489 0
M  V30 41 H -0.067888 -0.331255 3.590069 0
M  V30 42 H -0.079811 1.379469 4.043208 0
M  V30 END ATOM
M  V30 BEGIN BOND
M  V30 1 1 1 2
M  V30 2 1 2 3
M  V30 3 2 3 4
M  V30 4 1 4 5
M  V30 5 2 5 6
M  V30 6 1 6 7
M  V30 7 2 7 8
M  V30 8 1 7 9
M  V30 9 1 9 10
M  V30 10 2 10 11
M  V30 11 1 11 12
M  V30 12 2 12 13
M  V30 13 1 13 14
M  V30 14 2 14 15
M  V30 15 1 15 16
M  V30 16 2 16 17
M  V30 17 1 17 18
M  V30 18 1 18 19
M  V30 19 1 19 20
M  V30 20 1 20 21
M  V30 21 1 20 22
M  V30 22 2 18 23
M  V30 23 1 8 3
M  V30 24 1 23 10
M  V30 25 1 23 6
M  V30 26 1 16 11
M  V30 27 1 1 24
M  V30 28 1 1 25
M  V30 29 1 1 26
M  V30 30 1 4 27
M  V30 31 1 5 28
M  V30 32 1 8 29
M  V30 33 1 9 30
M  V30 34 1 12 31
M  V30 35 1 13 32
M  V30 36 1 15 33
M  V30 37 1 17 34
M  V30 38 1 19 35
M  V30 39 1 19 36
M  V30 40 1 21 37
M  V30 41 1 21 38
M  V30 42 1 21 39
M  V30 43 1 22 40
M  V30 44 1 22 41
M  V30 45 1 22 42
M  V30 END BOND
M  V30 END CTAB
M  END
>  <Dataset>  (556) 
ChEMBL_Kinases

>  <Ligand_Instance>  (556) 
nan

>  <PDB_ID>  (556) 
nan

>  <Standardized_SMILES>  (556) 
COc1ccc2c(c1)[nH]c1c3ccncc3cc(CN(C)C)c21

>  <Name>  (556) 
nan

>  <Pocket>  (556) 
nan

>  <ATP_Site>  (556) 
nan

>  <Peripheral>  (556) 
nan

>  <Num_H_Atoms_ProtBoundConf>  (556) 
nan

>  <Num_Resolved_Atoms>  (556) 
nan

>  <Num_Not_Resolved_Atoms>  (556) 
nan

$$$$
CHEMBL4074201
     RDKit          3D

  0  0  0  0  0  0  0  0  0  0999 V3000
M  V30 BEGIN CTAB
M  V30 COUNTS 57 61 0 0 0
M  V30 BEGIN ATOM
M  V30 1 C 1.678871 -2.313901 5.271034 0
M  V30 2 C 2.962193 -2.791124 4.596583 0
M  V30 3 C 2.732233 -2.929397 3.139677 0
M  V30 4 C 2.977064 -1.796394 2.386470 0
M  V30 5 C 2.761300 -1.903901 1.010468 0
M  V30 6 C 2.326666 -3.106905 0.499572 0
M  V30 7 C 2.073528 -3.396785 -0.824701 0
M  V30 8 C 2.105564 -2.604167 -2.068680 0
M  V30 9 C 1.508584 -1.416736 -2.189462 0
M  V30 10 O 0.798919 -0.807400 -1.174390 0
M  V30 11 C 0.272640 0.420176 -1.548015 0
M  V30 12 C 0.642616 0.642466 -2.854077 0
M  V30 13 C 0.224029 1.827723 -3.439355 0
M  V30 14 C -0.540146 2.711962 -2.672568 0
M  V30 15 C -0.895533 2.461103 -1.369203 0
M  V30 16 O -1.653681 3.413429 -0.717150 0
M  V30 17 C -2.065632 4.593532 -1.314104 0
M  V30 18 C -0.494038 1.273146 -0.734633 0
M  V30 19 C -0.883230 0.978222 0.659607 0
M  V30 20 N -1.973608 0.098794 0.846954 0
M  V30 21 C -3.258769 0.546106 0.388590 0
M  V30 22 C -4.298244 -0.103998 1.288254 0
M  V30 23 N -3.901183 -1.448609 1.661223 0
M  V30 24 C -3.057811 -2.060979 0.659545 0
M  V30 25 C -1.812608 -1.245379 0.351484 0
M  V30 26 C 1.428136 -0.499233 -3.300103 0
M  V30 27 O 1.945835 -0.676808 -4.424787 0
M  V30 28 C 1.675839 -4.718808 -0.854180 0
M  V30 29 N 1.694249 -5.189775 0.417646 0
M  V30 30 C 2.091241 -4.219140 1.273152 0
M  V30 31 N 2.303262 -4.107647 2.613051 0
M  V30 32 H 1.690104 -2.544473 6.340291 0
M  V30 33 H 0.837052 -2.846590 4.755902 0
M  V30 34 H 1.595758 -1.228242 5.044463 0
M  V30 35 H 3.798670 -2.120845 4.855617 0
M  V30 36 H 3.183680 -3.789029 5.036338 0
M  V30 37 H 3.317384 -0.864540 2.813923 0
M  V30 38 H 2.955760 -1.031078 0.422716 0
M  V30 39 H 2.636292 -2.979645 -2.955666 0
M  V30 40 H 0.525893 1.979321 -4.461247 0
M  V30 41 H -0.785575 3.580412 -3.261932 0
M  V30 42 H -1.238598 5.328628 -1.285774 0
M  V30 43 H -2.406088 4.364348 -2.357609 0
M  V30 44 H -2.919405 4.982180 -0.700453 0
M  V30 45 H -1.057704 1.987271 1.146075 0
M  V30 46 H 0.000139 0.574383 1.231031 0
M  V30 47 H -3.422476 0.120021 -0.622068 0
M  V30 48 H -3.394438 1.631749 0.328088 0
M  V30 49 H -5.289998 -0.066744 0.839510 0
M  V30 50 H -4.318887 0.489643 2.233933 0
M  V30 51 H -4.759738 -2.018399 1.734303 0
M  V30 52 H -2.708412 -3.024312 1.084255 0
M  V30 53 H -3.664288 -2.290853 -0.233011 0
M  V30 54 H -1.824782 -1.149269 -0.770039 0
M  V30 55 H -0.905004 -1.732535 0.705634 0
M  V30 56 H 1.380945 -5.370538 -1.656073 0
M  V30 57 H 1.467448 -6.124192 0.844982 0
M  V30 END ATOM
M  V30 BEGIN BOND
M  V30 1 1 1 2
M  V30 2 1 2 3
M  V30 3 2 3 4
M  V30 4 1 4 5
M  V30 5 2 5 6
M  V30 6 1 6 7
M  V30 7 1 7 8
M  V30 8 2 8 9
M  V30 9 1 9 10
M  V30 10 1 10 11
M  V30 11 2 11 12
M  V30 12 1 12 13
M  V30 13 2 13 14
M  V30 14 1 14 15
M  V30 15 1 15 16
M  V30 16 1 16 17
M  V30 17 2 15 18
M  V30 18 1 18 19
M  V30 19 1 19 20
M  V30 20 1 20 21
M  V30 21 1 21 22
M  V30 22 1 22 23
M  V30 23 1 23 24
M  V30 24 1 24 25
M  V30 25 1 12 26
M  V30 26 2 26 27
M  V30 27 2 7 28
M  V30 28 1 28 29
M  V30 29 1 29 30
M  V30 30 2 30 31
M  V30 31 1 31 3
M  V30 32 1 30 6
M  V30 33 1 26 9
M  V30 34 1 18 11
M  V30 35 1 25 20
M  V30 36 1 1 32
M  V30 37 1 1 33
M  V30 38 1 1 34
M  V30 39 1 2 35
M  V30 40 1 2 36
M  V30 41 1 4 37
M  V30 42 1 5 38
M  V30 43 1 8 39
M  V30 44 1 13 40
M  V30 45 1 14 41
M  V30 46 1 17 42
M  V30 47 1 17 43
M  V30 48 1 17 44
M  V30 49 1 19 45
M  V30 50 1 19 46
M  V30 51 1 21 47
M  V30 52 1 21 48
M  V30 53 1 22 49
M  V30 54 1 22 50
M  V30 55 1 23 51
M  V30 56 1 24 52
M  V30 57 1 24 53
M  V30 58 1 25 54
M  V30 59 1 25 55
M  V30 60 1 28 56
M  V30 61 1 29 57
M  V30 END BOND
M  V30 END CTAB
M  END
>  <Dataset>  (557) 
ChEMBL_Kinases

>  <Ligand_Instance>  (557) 
nan

>  <PDB_ID>  (557) 
nan

>  <Standardized_SMILES>  (557) 
CCc1ccc2c(/C=C3\Oc4c(ccc(OC)c4CN4CCNCC4)C3=O)c[nH]c2n1

>  <Name>  (557) 
nan

>  <Pocket>  (557) 
nan

>  <ATP_Site>  (557) 
nan

>  <Peripheral>  (557) 
nan

>  <Num_H_Atoms_ProtBoundConf>  (557) 
nan

>  <Num_Resolved_Atoms>  (557) 
nan

>  <Num_Not_Resolved_Atoms>  (557) 
nan

$$$$
CHEMBL4074174
     RDKit          3D

  0  0  0  0  0  0  0  0  0  0999 V3000
M  V30 BEGIN CTAB
M  V30 COUNTS 35 37 0 0 0
M  V30 BEGIN ATOM
M  V30 1 C 0.707241 -4.691837 2.865392 0
M  V30 2 N 1.872584 -4.936589 2.032268 0
M  V30 3 S 2.812859 -3.482361 2.080184 0
M  V30 4 O 4.094639 -3.707327 1.328486 0
M  V30 5 O 3.173448 -3.182591 3.501273 0
M  V30 6 C 1.924402 -2.129884 1.429356 0
M  V30 7 C 1.987646 -1.819521 0.091751 0
M  V30 8 C 1.246228 -0.724540 -0.339236 0
M  V30 9 C 0.450448 0.076782 0.470839 0
M  V30 10 C -0.200441 1.178254 -0.203123 0
M  V30 11 N 0.674406 1.941523 -0.921826 0
M  V30 12 C 0.240660 3.008549 -1.616463 0
M  V30 13 N 1.081995 3.856446 -2.389947 0
M  V30 14 N -1.074082 3.380800 -1.641510 0
M  V30 15 C -1.986434 2.646985 -0.938756 0
M  V30 16 N -3.315731 2.682347 -0.733056 0
M  V30 17 C -3.684973 1.663016 0.064135 0
M  V30 18 C -2.555094 0.928324 0.396339 0
M  V30 19 C -2.623365 -0.237558 1.222402 0
M  V30 20 N -2.698417 -1.182572 1.886864 0
M  V30 21 C -1.520444 1.559503 -0.235461 0
M  V30 22 C 0.439730 -0.297389 1.796656 0
M  V30 23 C 1.151636 -1.370735 2.283151 0
M  V30 24 H 1.019522 -4.060570 3.743285 0
M  V30 25 H 0.258327 -5.631555 3.264468 0
M  V30 26 H -0.041821 -4.186924 2.220169 0
M  V30 27 H 1.556156 -5.071959 1.045911 0
M  V30 28 H 2.588272 -2.406558 -0.580293 0
M  V30 29 H 1.342806 -0.536032 -1.410176 0
M  V30 30 H 0.905229 3.587534 -3.395068 0
M  V30 31 H 1.780503 4.618752 -2.281552 0
M  V30 32 H -3.929231 3.430512 -1.164384 0
M  V30 33 H -4.699569 1.483197 0.369612 0
M  V30 34 H -0.154685 0.317890 2.443443 0
M  V30 35 H 1.069716 -1.575365 3.344155 0
M  V30 END ATOM
M  V30 BEGIN BOND
M  V30 1 1 1 2
M  V30 2 1 2 3
M  V30 3 2 3 4
M  V30 4 2 3 5
M  V30 5 1 3 6
M  V30 6 2 6 7
M  V30 7 1 7 8
M  V30 8 2 8 9
M  V30 9 1 9 10
M  V30 10 2 10 11
M  V30 11 1 11 12
M  V30 12 1 12 13
M  V30 13 2 12 14
M  V30 14 1 14 15
M  V30 15 1 15 16
M  V30 16 1 16 17
M  V30 17 2 17 18
M  V30 18 1 18 19
M  V30 19 3 19 20
M  V30 20 1 18 21
M  V30 21 1 9 22
M  V30 22 2 22 23
M  V30 23 1 23 6
M  V30 24 1 21 10
M  V30 25 2 21 15
M  V30 26 1 1 24
M  V30 27 1 1 25
M  V30 28 1 1 26
M  V30 29 1 2 27
M  V30 30 1 7 28
M  V30 31 1 8 29
M  V30 32 1 13 30
M  V30 33 1 13 31
M  V30 34 1 16 32
M  V30 35 1 17 33
M  V30 36 1 22 34
M  V30 37 1 23 35
M  V30 END BOND
M  V30 END CTAB
M  END
>  <Dataset>  (558) 
ChEMBL_Kinases

>  <Ligand_Instance>  (558) 
nan

>  <PDB_ID>  (558) 
nan

>  <Standardized_SMILES>  (558) 
CNS(=O)(=O)c1ccc(-c2nc(N)nc3[nH]cc(C#N)c23)cc1

>  <Name>  (558) 
nan

>  <Pocket>  (558) 
nan

>  <ATP_Site>  (558) 
nan

>  <Peripheral>  (558) 
nan

>  <Num_H_Atoms_ProtBoundConf>  (558) 
nan

>  <Num_Resolved_Atoms>  (558) 
nan

>  <Num_Not_Resolved_Atoms>  (558) 
nan

$$$$
CHEMBL3884861
     RDKit          3D

  0  0  0  0  0  0  0  0  0  0999 V3000
M  V30 BEGIN CTAB
M  V30 COUNTS 35 38 0 0 0
M  V30 BEGIN ATOM
M  V30 1 C 1.466041 -4.907919 3.980518 0
M  V30 2 O 1.891053 -3.575372 3.740941 0
M  V30 3 C 1.299412 -2.765372 2.788093 0
M  V30 4 C 0.251609 -3.197947 2.001430 0
M  V30 5 C -0.285041 -2.330565 1.073264 0
M  V30 6 C 0.185554 -1.053057 0.903983 0
M  V30 7 C 1.234341 -0.623091 1.693022 0
M  V30 8 C 1.799053 -1.482079 2.643901 0
M  V30 9 N 1.514801 0.663547 1.336362 0
M  V30 10 C 0.649432 1.004804 0.348172 0
M  V30 11 C 0.455863 2.133797 -0.385705 0
M  V30 12 C 1.287410 3.205637 -0.115254 0
M  V30 13 C 1.233409 4.429166 -0.763069 0
M  V30 14 N 0.281266 4.556903 -1.733104 0
M  V30 15 C -0.531290 3.543850 -2.014074 0
M  V30 16 C -0.472234 2.338302 -1.370285 0
M  V30 17 C -1.310189 1.275123 -1.652061 0
M  V30 18 C -1.141413 0.117771 -0.927790 0
M  V30 19 C -2.044028 -0.954749 -1.272723 0
M  V30 20 N -2.818115 -2.110605 -1.440307 0
M  V30 21 O -2.868221 -0.745054 -2.232063 0
M  V30 22 C -0.195163 -0.042279 0.052258 0
M  V30 23 H 1.336974 -5.366446 2.958407 0
M  V30 24 H 0.512576 -4.966074 4.540936 0
M  V30 25 H 2.241333 -5.493680 4.514627 0
M  V30 26 H -0.119598 -4.205315 2.134515 0
M  V30 27 H -1.084675 -2.735483 0.507433 0
M  V30 28 H 2.617392 -1.083404 3.229160 0
M  V30 29 H 2.255515 1.264405 1.749718 0
M  V30 30 H 2.061619 3.124506 0.662261 0
M  V30 31 H 1.914841 5.225341 -0.501614 0
M  V30 32 H -1.276268 3.686850 -2.793203 0
M  V30 33 H -2.041071 1.456012 -2.436431 0
M  V30 34 H -3.202242 -2.626944 -0.597235 0
M  V30 35 H -3.205784 -2.632031 -0.594793 0
M  V30 END ATOM
M  V30 BEGIN BOND
M  V30 1 1 1 2
M  V30 2 1 2 3
M  V30 3 2 3 4
M  V30 4 1 4 5
M  V30 5 2 5 6
M  V30 6 1 6 7
M  V30 7 2 7 8
M  V30 8 1 7 9
M  V30 9 1 9 10
M  V30 10 2 10 11
M  V30 11 1 11 12
M  V30 12 2 12 13
M  V30 13 1 13 14
M  V30 14 2 14 15
M  V30 15 1 15 16
M  V30 16 2 16 17
M  V30 17 1 17 18
M  V30 18 1 18 19
M  V30 19 1 19 20
M  V30 20 2 19 21
M  V30 21 2 18 22
M  V30 22 1 8 3
M  V30 23 1 22 10
M  V30 24 1 22 6
M  V30 25 1 16 11
M  V30 26 1 1 23
M  V30 27 1 1 24
M  V30 28 1 1 25
M  V30 29 1 4 26
M  V30 30 1 5 27
M  V30 31 1 8 28
M  V30 32 1 9 29
M  V30 33 1 12 30
M  V30 34 1 13 31
M  V30 35 1 15 32
M  V30 36 1 17 33
M  V30 37 1 20 34
M  V30 38 1 20 35
M  V30 END BOND
M  V30 END CTAB
M  END
>  <Dataset>  (559) 
ChEMBL_Kinases

>  <Ligand_Instance>  (559) 
nan

>  <PDB_ID>  (559) 
nan

>  <Standardized_SMILES>  (559) 
COc1ccc2c(c1)[nH]c1c3ccncc3cc(C(N)=O)c21

>  <Name>  (559) 
nan

>  <Pocket>  (559) 
nan

>  <ATP_Site>  (559) 
nan

>  <Peripheral>  (559) 
nan

>  <Num_H_Atoms_ProtBoundConf>  (559) 
nan

>  <Num_Resolved_Atoms>  (559) 
nan

>  <Num_Not_Resolved_Atoms>  (559) 
nan

$$$$
CHEMBL3629383
     RDKit          3D

  0  0  0  0  0  0  0  0  0  0999 V3000
M  V30 BEGIN CTAB
M  V30 COUNTS 40 44 0 0 0
M  V30 BEGIN ATOM
M  V30 1 N -1.070567 -4.373701 3.250416 0
M  V30 2 C -0.484959 -4.182726 2.250636 0
M  V30 3 C 0.264609 -3.940713 1.019047 0
M  V30 4 O 0.559334 -2.589147 0.858412 0
M  V30 5 C 1.328825 -2.103714 1.915425 0
M  V30 6 C 2.646931 -1.659370 1.353375 0
M  V30 7 N 2.439107 -0.879606 0.145444 0
M  V30 8 C 3.287923 -0.832184 -0.890987 0
M  V30 9 C 2.830501 -0.010298 -1.897418 0
M  V30 10 C 3.439760 0.316670 -3.182243 0
M  V30 11 O 2.807412 1.106932 -3.934658 0
M  V30 12 C 1.614359 0.487753 -1.457651 0
M  V30 13 C 0.651594 1.343692 -1.962102 0
M  V30 14 C -0.499840 1.643959 -1.229523 0
M  V30 15 C -0.712233 1.092584 0.026089 0
M  V30 16 C -1.745180 1.216124 0.952418 0
M  V30 17 C -2.911907 1.957283 0.887807 0
M  V30 18 C -3.724115 1.834893 2.021430 0
M  V30 19 C -3.391628 1.047129 3.104338 0
M  V30 20 C -2.212356 0.334434 3.102385 0
M  V30 21 C -1.367814 0.414358 2.011040 0
M  V30 22 N -0.179724 -0.159140 1.742128 0
M  V30 23 C 0.255473 0.243625 0.512098 0
M  V30 24 C 1.407020 -0.062816 -0.209183 0
M  V30 25 C 0.540115 -1.061846 2.604074 0
M  V30 26 H -0.270302 -4.364662 0.163189 0
M  V30 27 H 1.262801 -4.440015 1.163600 0
M  V30 28 H 1.495576 -2.954207 2.608036 0
M  V30 29 H 3.191167 -1.070576 2.120981 0
M  V30 30 H 3.268598 -2.547113 1.118590 0
M  V30 31 H 4.212145 -1.363570 -0.942834 0
M  V30 32 H 4.399307 -0.124211 -3.440754 0
M  V30 33 H 0.795875 1.777927 -2.925250 0
M  V30 34 H -1.226492 2.311950 -1.650840 0
M  V30 35 H -3.145057 2.557761 0.039673 0
M  V30 36 H -4.652756 2.412314 1.993149 0
M  V30 37 H -4.067633 0.991262 3.962892 0
M  V30 38 H -1.942106 -0.283834 3.941880 0
M  V30 39 H 1.251778 -0.434414 3.200154 0
M  V30 40 H -0.142061 -1.501235 3.360564 0
M  V30 END ATOM
M  V30 BEGIN BOND
M  V30 1 3 1 2
M  V30 2 1 2 3
M  V30 3 1 3 4
M  V30 4 1 4 5
M  V30 5 1 5 6
M  V30 6 1 6 7
M  V30 7 1 7 8
M  V30 8 2 8 9
M  V30 9 1 9 10
M  V30 10 2 10 11
M  V30 11 1 9 12
M  V30 12 2 12 13
M  V30 13 1 13 14
M  V30 14 2 14 15
M  V30 15 1 15 16
M  V30 16 2 16 17
M  V30 17 1 17 18
M  V30 18 2 18 19
M  V30 19 1 19 20
M  V30 20 2 20 21
M  V30 21 1 21 22
M  V30 22 1 22 23
M  V30 23 2 23 24
M  V30 24 1 22 25
M  V30 25 1 25 5
M  V30 26 1 24 7
M  V30 27 1 24 12
M  V30 28 1 23 15
M  V30 29 1 21 16
M  V30 30 1 3 26
M  V30 31 1 3 27
M  V30 32 1 5 28
M  V30 33 1 6 29
M  V30 34 1 6 30
M  V30 35 1 8 31
M  V30 36 1 10 32
M  V30 37 1 13 33
M  V30 38 1 14 34
M  V30 39 1 17 35
M  V30 40 1 18 36
M  V30 41 1 19 37
M  V30 42 1 20 38
M  V30 43 1 25 39
M  V30 44 1 25 40
M  V30 END BOND
M  V30 END CTAB
M  END
>  <Dataset>  (560) 
ChEMBL_Kinases

>  <Ligand_Instance>  (560) 
nan

>  <PDB_ID>  (560) 
nan

>  <Standardized_SMILES>  (560) 
N#CCOC1Cn2cc(C=O)c3ccc4c5ccccc5n(c4c32)C1

>  <Name>  (560) 
nan

>  <Pocket>  (560) 
nan

>  <ATP_Site>  (560) 
nan

>  <Peripheral>  (560) 
nan

>  <Num_H_Atoms_ProtBoundConf>  (560) 
nan

>  <Num_Resolved_Atoms>  (560) 
nan

>  <Num_Not_Resolved_Atoms>  (560) 
nan

$$$$
CHEMBL3884914
     RDKit          3D

  0  0  0  0  0  0  0  0  0  0999 V3000
M  V30 BEGIN CTAB
M  V30 COUNTS 65 69 0 0 0
M  V30 BEGIN ATOM
M  V30 1 C 2.778883 -1.625703 4.571009 0
M  V30 2 C 2.281519 -0.520222 4.063389 0
M  V30 3 C 2.644143 -0.206788 2.702798 0
M  V30 4 O 3.399739 -1.058742 2.195508 0
M  V30 5 N 2.237261 0.919294 1.943963 0
M  V30 6 C 2.569049 1.256661 0.622511 0
M  V30 7 C 3.387252 0.573338 -0.224638 0
M  V30 8 C 3.706314 0.922818 -1.515271 0
M  V30 9 C 3.138983 2.096426 -2.018687 0
M  V30 10 C 2.296192 2.820970 -1.179125 0
M  V30 11 C 2.017046 2.408817 0.115118 0
M  V30 12 O 1.166377 3.281774 0.740283 0
M  V30 13 C -0.079017 3.039826 1.235388 0
M  V30 14 N -0.789974 1.908162 1.232273 0
M  V30 15 C -2.014995 1.741254 1.740709 0
M  V30 16 N -2.721501 0.511259 1.705734 0
M  V30 17 C -2.331894 -0.725385 1.155566 0
M  V30 18 C -3.158197 -1.826270 1.247563 0
M  V30 19 C -2.842631 -3.058889 0.732310 0
M  V30 20 C -1.647859 -3.264167 0.077292 0
M  V30 21 N -1.363948 -4.558807 -0.439567 0
M  V30 22 C -0.200729 -5.001905 -1.181947 0
M  V30 23 C -0.589876 -5.526266 -2.552622 0
M  V30 24 N -1.640997 -6.492716 -2.449735 0
M  V30 25 C -2.843143 -5.954051 -3.039408 0
M  V30 26 C -1.918050 -6.841911 -1.053603 0
M  V30 27 C -2.295045 -5.635727 -0.248694 0
M  V30 28 C -0.781308 -2.199993 -0.045356 0
M  V30 29 C -1.151929 -0.985410 0.492049 0
M  V30 30 N -2.552210 2.813433 2.293682 0
M  V30 31 C -1.926048 3.999970 2.350994 0
M  V30 32 C -0.640211 4.157690 1.812240 0
M  V30 33 C -0.181816 5.554951 2.001617 0
M  V30 34 C -0.536308 6.581829 0.991524 0
M  V30 35 C 0.930493 6.132050 1.172077 0
M  V30 36 H 3.418988 -2.210693 3.929125 0
M  V30 37 H 2.500233 -1.856060 5.599552 0
M  V30 38 H 1.624719 0.162956 4.594194 0
M  V30 39 H 1.622349 1.509290 2.531436 0
M  V30 40 H 3.855947 -0.337857 0.101108 0
M  V30 41 H 4.364353 0.338444 -2.142509 0
M  V30 42 H 3.381935 2.384157 -3.034354 0
M  V30 43 H 1.918695 3.695466 -1.659667 0
M  V30 44 H -3.669346 0.523951 2.153455 0
M  V30 45 H -4.115059 -1.742934 1.748762 0
M  V30 46 H -3.540201 -3.887148 0.839447 0
M  V30 47 H 0.480583 -4.147446 -1.358825 0
M  V30 48 H 0.407865 -5.745009 -0.623083 0
M  V30 49 H -0.933886 -4.687907 -3.187172 0
M  V30 50 H 0.330925 -5.912565 -3.036766 0
M  V30 51 H -2.904252 -6.318057 -4.086858 0
M  V30 52 H -3.713927 -6.263360 -2.426094 0
M  V30 53 H -2.840143 -4.851688 -3.113283 0
M  V30 54 H -2.736747 -7.588544 -1.088959 0
M  V30 55 H -0.996328 -7.336390 -0.673658 0
M  V30 56 H -3.312610 -5.314805 -0.605063 0
M  V30 57 H -2.392726 -5.833698 0.817150 0
M  V30 58 H 0.162238 -2.322363 -0.550811 0
M  V30 59 H -0.432568 -0.202340 0.360378 0
M  V30 60 H -2.526107 4.761751 2.843222 0
M  V30 61 H -0.194179 5.954699 3.059750 0
M  V30 62 H -0.762630 7.617962 1.314512 0
M  V30 63 H -1.012079 6.336108 0.032584 0
M  V30 64 H 1.373284 5.540010 0.376683 0
M  V30 65 H 1.614044 6.888695 1.643591 0
M  V30 END ATOM
M  V30 BEGIN BOND
M  V30 1 2 1 2
M  V30 2 1 2 3
M  V30 3 2 3 4
M  V30 4 1 3 5
M  V30 5 1 5 6
M  V30 6 2 6 7
M  V30 7 1 7 8
M  V30 8 2 8 9
M  V30 9 1 9 10
M  V30 10 2 10 11
M  V30 11 1 11 12
M  V30 12 1 12 13
M  V30 13 2 13 14
M  V30 14 1 14 15
M  V30 15 1 15 16
M  V30 16 1 16 17
M  V30 17 2 17 18
M  V30 18 1 18 19
M  V30 19 2 19 20
M  V30 20 1 20 21
M  V30 21 1 21 22
M  V30 22 1 22 23
M  V30 23 1 23 24
M  V30 24 1 24 25
M  V30 25 1 24 26
M  V30 26 1 26 27
M  V30 27 1 20 28
M  V30 28 2 28 29
M  V30 29 2 15 30
M  V30 30 1 30 31
M  V30 31 2 31 32
M  V30 32 1 32 33
M  V30 33 1 33 34
M  V30 34 1 34 35
M  V30 35 1 11 6
M  V30 36 1 32 13
M  V30 37 1 35 33
M  V30 38 1 29 17
M  V30 39 1 27 21
M  V30 40 1 1 36
M  V30 41 1 1 37
M  V30 42 1 2 38
M  V30 43 1 5 39
M  V30 44 1 7 40
M  V30 45 1 8 41
M  V30 46 1 9 42
M  V30 47 1 10 43
M  V30 48 1 16 44
M  V30 49 1 18 45
M  V30 50 1 19 46
M  V30 51 1 22 47
M  V30 52 1 22 48
M  V30 53 1 23 49
M  V30 54 1 23 50
M  V30 55 1 25 51
M  V30 56 1 25 52
M  V30 57 1 25 53
M  V30 58 1 26 54
M  V30 59 1 26 55
M  V30 60 1 27 56
M  V30 61 1 27 57
M  V30 62 1 28 58
M  V30 63 1 29 59
M  V30 64 1 31 60
M  V30 65 1 33 61
M  V30 66 1 34 62
M  V30 67 1 34 63
M  V30 68 1 35 64
M  V30 69 1 35 65
M  V30 END BOND
M  V30 END CTAB
M  END
>  <Dataset>  (561) 
ChEMBL_Kinases

>  <Ligand_Instance>  (561) 
nan

>  <PDB_ID>  (561) 
nan

>  <Standardized_SMILES>  (561) 
C=CC(=O)Nc1ccccc1Oc1nc(Nc2ccc(N3CCN(C)CC3)cc2)ncc1C1CC1

>  <Name>  (561) 
nan

>  <Pocket>  (561) 
nan

>  <ATP_Site>  (561) 
nan

>  <Peripheral>  (561) 
nan

>  <Num_H_Atoms_ProtBoundConf>  (561) 
nan

>  <Num_Resolved_Atoms>  (561) 
nan

>  <Num_Not_Resolved_Atoms>  (561) 
nan

$$$$
CHEMBL3659492
     RDKit          3D

  0  0  0  0  0  0  0  0  0  0999 V3000
M  V30 BEGIN CTAB
M  V30 COUNTS 66 70 0 0 0
M  V30 BEGIN ATOM
M  V30 1 C 2.246414 -0.877477 3.949062 0
M  V30 2 C 3.492608 -0.662688 3.167248 0
M  V30 3 C 4.440922 -1.653611 3.229273 0
M  V30 4 C 4.478742 -2.918387 3.881997 0
M  V30 5 N 5.602078 -3.772407 3.786677 0
M  V30 6 O 3.761131 -3.637645 4.613695 0
M  V30 7 S 5.773510 -1.069258 2.264368 0
M  V30 8 C 4.988101 0.511788 1.807372 0
M  V30 9 N 5.464730 1.511136 1.052713 0
M  V30 10 C 4.729192 2.599564 0.845570 0
M  V30 11 N 3.568361 2.553318 1.436176 0
M  V30 12 C 3.025112 1.594898 2.200009 0
M  V30 13 N 1.746531 1.897707 2.649189 0
M  V30 14 C 0.476458 1.562730 3.167033 0
M  V30 15 C -0.030310 1.905186 4.410745 0
M  V30 16 C -1.295894 1.497235 4.768544 0
M  V30 17 C -2.048903 0.755169 3.893070 0
M  V30 18 F -3.243789 0.472900 4.461452 0
M  V30 19 C -1.547592 0.403454 2.630400 0
M  V30 20 C -0.254962 0.808551 2.240274 0
M  V30 21 O -0.148259 0.307416 1.036984 0
M  V30 22 C 0.556238 0.133869 -0.081238 0
M  V30 23 C 0.967935 -1.286327 -0.404650 0
M  V30 24 C 0.602517 -1.742385 -1.769147 0
M  V30 25 N -0.785958 -1.495530 -2.144854 0
M  V30 26 C -1.563586 -2.256986 -1.152589 0
M  V30 27 C -3.002896 -2.224366 -1.466560 0
M  V30 28 O -3.457319 -2.912394 -0.474415 0
M  V30 29 N -4.003425 -1.768589 -2.361548 0
M  V30 30 C -3.798295 -1.005349 -3.576145 0
M  V30 31 C -4.811867 -1.244491 -4.645706 0
M  V30 32 O -6.086537 -1.531520 -4.214326 0
M  V30 33 C -6.015129 -2.629664 -3.323418 0
M  V30 34 C -5.390445 -2.061046 -2.068708 0
M  V30 35 C -1.117700 -0.099334 -1.974307 0
M  V30 36 C -0.041827 0.726512 -1.344654 0
M  V30 37 C 3.768490 0.460140 2.431773 0
M  V30 38 H 2.074743 -0.057646 4.679320 0
M  V30 39 H 2.367716 -1.772016 4.639801 0
M  V30 40 H 1.391694 -1.157512 3.321975 0
M  V30 41 H 5.940376 -4.563788 3.193758 0
M  V30 42 H 6.350078 -3.592418 4.513097 0
M  V30 43 H 5.136668 3.380986 0.240714 0
M  V30 44 H 1.462507 2.913909 2.635028 0
M  V30 45 H 0.684331 2.489856 4.979632 0
M  V30 46 H -1.535557 1.841079 5.754467 0
M  V30 47 H -2.352586 -0.171294 2.169949 0
M  V30 48 H 1.521876 0.707158 0.025026 0
M  V30 49 H 0.599935 -1.990145 0.397477 0
M  V30 50 H 2.069262 -1.353001 -0.323813 0
M  V30 51 H 0.723967 -2.848617 -1.847797 0
M  V30 52 H 1.228148 -1.300388 -2.567439 0
M  V30 53 H -1.357378 -1.834502 -0.125254 0
M  V30 54 H -1.145800 -3.305706 -1.105583 0
M  V30 55 H -3.747366 0.089609 -3.339451 0
M  V30 56 H -2.802189 -1.227032 -4.030264 0
M  V30 57 H -4.459131 -1.999622 -5.403045 0
M  V30 58 H -4.897626 -0.286163 -5.237638 0
M  V30 59 H -7.028712 -3.045932 -3.125522 0
M  V30 60 H -5.338209 -3.405963 -3.728372 0
M  V30 61 H -5.494865 -2.747825 -1.204246 0
M  V30 62 H -5.914966 -1.075682 -1.901002 0
M  V30 63 H -2.032845 -0.017264 -1.369025 0
M  V30 64 H -1.366807 0.350054 -2.981059 0
M  V30 65 H 0.801660 0.782287 -2.087458 0
M  V30 66 H -0.366515 1.771160 -1.177395 0
M  V30 END ATOM
M  V30 BEGIN BOND
M  V30 1 1 1 2
M  V30 2 2 2 3
M  V30 3 1 3 4
M  V30 4 1 4 5
M  V30 5 2 4 6
M  V30 6 1 3 7
M  V30 7 1 7 8
M  V30 8 2 8 9
M  V30 9 1 9 10
M  V30 10 2 10 11
M  V30 11 1 11 12
M  V30 12 1 12 13
M  V30 13 1 13 14
M  V30 14 2 14 15
M  V30 15 1 15 16
M  V30 16 2 16 17
M  V30 17 1 17 18
M  V30 18 1 17 19
M  V30 19 2 19 20
M  V30 20 1 20 21
M  V30 21 1 21 22
M  V30 22 1 22 23
M  V30 23 1 23 24
M  V30 24 1 24 25
M  V30 25 1 25 26
M  V30 26 1 26 27
M  V30 27 2 27 28
M  V30 28 1 27 29
M  V30 29 1 29 30
M  V30 30 1 30 31
M  V30 31 1 31 32
M  V30 32 1 32 33
M  V30 33 1 33 34
M  V30 34 1 25 35
M  V30 35 1 35 36
M  V30 36 2 12 37
M  V30 37 1 37 2
M  V30 38 1 37 8
M  V30 39 1 20 14
M  V30 40 1 36 22
M  V30 41 1 34 29
M  V30 42 1 1 38
M  V30 43 1 1 39
M  V30 44 1 1 40
M  V30 45 1 5 41
M  V30 46 1 5 42
M  V30 47 1 10 43
M  V30 48 1 13 44
M  V30 49 1 15 45
M  V30 50 1 16 46
M  V30 51 1 19 47
M  V30 52 1 22 48
M  V30 53 1 23 49
M  V30 54 1 23 50
M  V30 55 1 24 51
M  V30 56 1 24 52
M  V30 57 1 26 53
M  V30 58 1 26 54
M  V30 59 1 30 55
M  V30 60 1 30 56
M  V30 61 1 31 57
M  V30 62 1 31 58
M  V30 63 1 33 59
M  V30 64 1 33 60
M  V30 65 1 34 61
M  V30 66 1 34 62
M  V30 67 1 35 63
M  V30 68 1 35 64
M  V30 69 1 36 65
M  V30 70 1 36 66
M  V30 END BOND
M  V30 END CTAB
M  END
>  <Dataset>  (562) 
ChEMBL_Kinases

>  <Ligand_Instance>  (562) 
nan

>  <PDB_ID>  (562) 
nan

>  <Standardized_SMILES>  (562) 
Cc1c(C(N)=O)sc2ncnc(Nc3ccc(F)cc3OC3CCN(CC(=O)N4CCOCC4)CC3)c12

>  <Name>  (562) 
nan

>  <Pocket>  (562) 
nan

>  <ATP_Site>  (562) 
nan

>  <Peripheral>  (562) 
nan

>  <Num_H_Atoms_ProtBoundConf>  (562) 
nan

>  <Num_Resolved_Atoms>  (562) 
nan

>  <Num_Not_Resolved_Atoms>  (562) 
nan

$$$$
CHEMBL4073977
     RDKit          3D

  0  0  0  0  0  0  0  0  0  0999 V3000
M  V30 BEGIN CTAB
M  V30 COUNTS 58 63 0 0 0
M  V30 BEGIN ATOM
M  V30 1 C 4.516056 -3.792458 3.264009 0
M  V30 2 N 4.237649 -2.641084 2.387772 0
M  V30 3 C 3.126615 -1.906519 2.854910 0
M  V30 4 C 2.688216 -0.812243 1.973690 0
M  V30 5 C 3.392173 0.392509 2.095377 0
M  V30 6 C 3.053678 1.525176 1.359514 0
M  V30 7 C 1.988118 1.452066 0.483363 0
M  V30 8 C 1.619328 2.579327 -0.229687 0
M  V30 9 C 0.534847 2.515101 -1.079853 0
M  V30 10 C -0.165018 1.313676 -1.202190 0
M  V30 11 Cl -1.509933 1.414923 -2.320964 0
M  V30 12 C 0.184236 0.177279 -0.503876 0
M  V30 13 C -0.631678 -1.009423 -0.714304 0
M  V30 14 C -1.900292 -1.369533 -0.601211 0
M  V30 15 C -3.006328 -0.533100 -0.156520 0
M  V30 16 C -3.011248 0.322313 0.951833 0
M  V30 17 N -4.222390 0.948528 1.051879 0
M  V30 18 C -4.659225 1.914078 2.052557 0
M  V30 19 C -5.013372 0.538766 0.053033 0
M  V30 20 C -6.314540 0.857456 -0.310234 0
M  V30 21 C -6.916136 0.282157 -1.425227 0
M  V30 22 C -6.171993 -0.612736 -2.152370 0
M  V30 23 C -4.887786 -0.907536 -1.768051 0
M  V30 24 C -4.275561 -0.347740 -0.665103 0
M  V30 25 C -2.037867 -2.778302 -1.022270 0
M  V30 26 O -3.077501 -3.518631 -1.065653 0
M  V30 27 N -0.748922 -3.291614 -1.420698 0
M  V30 28 C 0.128583 -2.168849 -1.224078 0
M  V30 29 O 1.346250 -2.414016 -1.528942 0
M  V30 30 C 1.278271 0.277524 0.343451 0
M  V30 31 C 1.615022 -0.843959 1.073474 0
M  V30 32 C 4.304259 -3.065264 1.047030 0
M  V30 33 C 4.273146 -2.234916 -0.150513 0
M  V30 34 C 5.624259 -2.684113 0.320073 0
M  V30 35 H 5.106772 -3.451146 4.139601 0
M  V30 36 H 5.096114 -4.563819 2.716667 0
M  V30 37 H 3.566619 -4.279046 3.569703 0
M  V30 38 H 3.407138 -1.517575 3.878271 0
M  V30 39 H 2.294059 -2.635062 3.054396 0
M  V30 40 H 4.229094 0.479809 2.769044 0
M  V30 41 H 3.613202 2.436620 1.471237 0
M  V30 42 H 2.197668 3.490238 -0.101722 0
M  V30 43 H 0.304607 3.431176 -1.604054 0
M  V30 44 H -2.207320 0.499305 1.655779 0
M  V30 45 H -4.569825 2.961852 1.714300 0
M  V30 46 H -5.758454 1.770062 2.254198 0
M  V30 47 H -4.164676 1.778593 3.025740 0
M  V30 48 H -6.895912 1.558730 0.258517 0
M  V30 49 H -7.931235 0.555049 -1.675601 0
M  V30 50 H -6.665019 -1.038912 -3.006398 0
M  V30 51 H -4.389057 -1.612179 -2.408483 0
M  V30 52 H -0.582272 -4.268908 -1.762182 0
M  V30 53 H 1.090657 -1.761572 1.014771 0
M  V30 54 H 4.051270 -4.149253 0.889244 0
M  V30 55 H 4.155549 -1.155328 -0.212259 0
M  V30 56 H 3.996216 -2.729734 -1.128956 0
M  V30 57 H 6.166694 -3.480156 -0.212583 0
M  V30 58 H 6.271803 -1.935435 0.817814 0
M  V30 END ATOM
M  V30 BEGIN BOND
M  V30 1 1 1 2
M  V30 2 1 2 3
M  V30 3 1 3 4
M  V30 4 2 4 5
M  V30 5 1 5 6
M  V30 6 2 6 7
M  V30 7 1 7 8
M  V30 8 2 8 9
M  V30 9 1 9 10
M  V30 10 1 10 11
M  V30 11 2 10 12
M  V30 12 1 12 13
M  V30 13 2 13 14
M  V30 14 1 14 15
M  V30 15 2 15 16
M  V30 16 1 16 17
M  V30 17 1 17 18
M  V30 18 1 17 19
M  V30 19 2 19 20
M  V30 20 1 20 21
M  V30 21 2 21 22
M  V30 22 1 22 23
M  V30 23 2 23 24
M  V30 24 1 14 25
M  V30 25 2 25 26
M  V30 26 1 25 27
M  V30 27 1 27 28
M  V30 28 2 28 29
M  V30 29 1 12 30
M  V30 30 2 30 31
M  V30 31 1 2 32
M  V30 32 1 32 33
M  V30 33 1 33 34
M  V30 34 1 31 4
M  V30 35 1 34 32
M  V30 36 1 30 7
M  V30 37 1 28 13
M  V30 38 1 24 15
M  V30 39 1 24 19
M  V30 40 1 1 35
M  V30 41 1 1 36
M  V30 42 1 1 37
M  V30 43 1 3 38
M  V30 44 1 3 39
M  V30 45 1 5 40
M  V30 46 1 6 41
M  V30 47 1 8 42
M  V30 48 1 9 43
M  V30 49 1 16 44
M  V30 50 1 18 45
M  V30 51 1 18 46
M  V30 52 1 18 47
M  V30 53 1 20 48
M  V30 54 1 21 49
M  V30 55 1 22 50
M  V30 56 1 23 51
M  V30 57 1 27 52
M  V30 58 1 31 53
M  V30 59 1 32 54
M  V30 60 1 33 55
M  V30 61 1 33 56
M  V30 62 1 34 57
M  V30 63 1 34 58
M  V30 END BOND
M  V30 END CTAB
M  END
>  <Dataset>  (563) 
ChEMBL_Kinases

>  <Ligand_Instance>  (563) 
nan

>  <PDB_ID>  (563) 
nan

>  <Standardized_SMILES>  (563) 
CN(Cc1ccc2ccc(Cl)c(C3=C(c4cn(C)c5ccccc45)C(=O)NC3=O)c2c1)C1CC1

>  <Name>  (563) 
nan

>  <Pocket>  (563) 
nan

>  <ATP_Site>  (563) 
nan

>  <Peripheral>  (563) 
nan

>  <Num_H_Atoms_ProtBoundConf>  (563) 
nan

>  <Num_Resolved_Atoms>  (563) 
nan

>  <Num_Not_Resolved_Atoms>  (563) 
nan

$$$$
CHEMBL4073882
     RDKit          3D

  0  0  0  0  0  0  0  0  0  0999 V3000
M  V30 BEGIN CTAB
M  V30 COUNTS 54 58 0 0 0
M  V30 BEGIN ATOM
M  V30 1 O 3.297786 -0.645374 0.797848 0
M  V30 2 C 3.235527 -0.234651 1.991383 0
M  V30 3 N 4.445028 -0.127861 2.693686 0
M  V30 4 C 5.782829 -0.418533 2.263706 0
M  V30 5 C 6.153702 0.423901 1.097537 0
M  V30 6 C 6.456492 1.778189 1.269960 0
M  V30 7 F 6.411879 2.342664 2.489130 0
M  V30 8 C 6.815153 2.619643 0.230684 0
M  V30 9 C 6.878614 2.104192 -1.038064 0
M  V30 10 C 6.591015 0.779023 -1.264343 0
M  V30 11 C 6.237399 -0.032346 -0.207824 0
M  V30 12 F 5.970061 -1.316532 -0.460943 0
M  V30 13 C 1.935092 0.098231 2.559230 0
M  V30 14 C 1.709985 0.553975 3.841173 0
M  V30 15 C 0.455144 0.853156 4.327055 0
M  V30 16 C -0.640045 0.700927 3.522633 0
M  V30 17 C -0.488653 0.243951 2.213084 0
M  V30 18 N -1.608975 0.070764 1.341462 0
M  V30 19 C -1.512885 -0.399255 -0.033222 0
M  V30 20 C -2.857799 -0.475060 -0.662260 0
M  V30 21 N -3.534584 0.451261 -1.349115 0
M  V30 22 N -4.699328 -0.029835 -1.733416 0
M  V30 23 C -4.730127 -1.289983 -1.264251 0
M  V30 24 N -3.593641 -1.617412 -0.582788 0
M  V30 25 C -3.290822 -2.888095 0.053588 0
M  V30 26 C -3.425075 -4.047389 -0.907248 0
M  V30 27 O -4.773419 -4.401395 -1.159751 0
M  V30 28 C -5.882311 -3.585334 -1.432597 0
M  V30 29 C -7.060520 -4.258349 -1.665876 0
M  V30 30 N -8.186971 -3.570202 -1.937707 0
M  V30 31 C -8.205941 -2.230086 -1.990774 0
M  V30 32 C -7.056156 -1.479859 -1.766427 0
M  V30 33 C -5.885675 -2.186007 -1.484526 0
M  V30 34 C 0.794705 -0.035508 1.794794 0
M  V30 35 H 4.351514 0.215693 3.678096 0
M  V30 36 H 6.527303 -0.326205 3.057706 0
M  V30 37 H 5.842692 -1.485149 1.910575 0
M  V30 38 H 7.047307 3.652193 0.358096 0
M  V30 39 H 7.153392 2.710101 -1.896282 0
M  V30 40 H 6.641969 0.385611 -2.250686 0
M  V30 41 H 2.560224 0.681479 4.493185 0
M  V30 42 H 0.331028 1.207947 5.341015 0
M  V30 43 H -1.631003 0.936887 3.906336 0
M  V30 44 H -2.556531 0.303810 1.737311 0
M  V30 45 H -0.941194 0.335606 -0.670046 0
M  V30 46 H -0.958020 -1.335716 -0.029286 0
M  V30 47 H -2.230397 -2.872648 0.390746 0
M  V30 48 H -3.908571 -3.093420 0.943013 0
M  V30 49 H -2.948861 -4.922476 -0.419095 0
M  V30 50 H -2.842967 -3.855635 -1.840400 0
M  V30 51 H -7.027331 -5.353786 -1.618719 0
M  V30 52 H -9.127254 -1.680163 -2.212908 0
M  V30 53 H -7.008588 -0.392004 -1.795573 0
M  V30 54 H 0.878768 -0.386392 0.779793 0
M  V30 END ATOM
M  V30 BEGIN BOND
M  V30 1 2 1 2
M  V30 2 1 2 3
M  V30 3 1 3 4
M  V30 4 1 4 5
M  V30 5 2 5 6
M  V30 6 1 6 7
M  V30 7 1 6 8
M  V30 8 2 8 9
M  V30 9 1 9 10
M  V30 10 2 10 11
M  V30 11 1 11 12
M  V30 12 1 2 13
M  V30 13 2 13 14
M  V30 14 1 14 15
M  V30 15 2 15 16
M  V30 16 1 16 17
M  V30 17 1 17 18
M  V30 18 1 18 19
M  V30 19 1 19 20
M  V30 20 2 20 21
M  V30 21 1 21 22
M  V30 22 2 22 23
M  V30 23 1 23 24
M  V30 24 1 24 25
M  V30 25 1 25 26
M  V30 26 1 26 27
M  V30 27 1 27 28
M  V30 28 2 28 29
M  V30 29 1 29 30
M  V30 30 2 30 31
M  V30 31 1 31 32
M  V30 32 2 32 33
M  V30 33 2 17 34
M  V30 34 1 11 5
M  V30 35 1 34 13
M  V30 36 1 24 20
M  V30 37 1 33 28
M  V30 38 1 33 23
M  V30 39 1 3 35
M  V30 40 1 4 36
M  V30 41 1 4 37
M  V30 42 1 8 38
M  V30 43 1 9 39
M  V30 44 1 10 40
M  V30 45 1 14 41
M  V30 46 1 15 42
M  V30 47 1 16 43
M  V30 48 1 18 44
M  V30 49 1 19 45
M  V30 50 1 19 46
M  V30 51 1 25 47
M  V30 52 1 25 48
M  V30 53 1 26 49
M  V30 54 1 26 50
M  V30 55 1 29 51
M  V30 56 1 31 52
M  V30 57 1 32 53
M  V30 58 1 34 54
M  V30 END BOND
M  V30 END CTAB
M  END
>  <Dataset>  (564) 
ChEMBL_Kinases

>  <Ligand_Instance>  (564) 
nan

>  <PDB_ID>  (564) 
nan

>  <Standardized_SMILES>  (564) 
O=C(NCc1c(F)cccc1F)c1cccc(NCc2nnc3n2CCOc2cnccc2-3)c1

>  <Name>  (564) 
nan

>  <Pocket>  (564) 
nan

>  <ATP_Site>  (564) 
nan

>  <Peripheral>  (564) 
nan

>  <Num_H_Atoms_ProtBoundConf>  (564) 
nan

>  <Num_Resolved_Atoms>  (564) 
nan

>  <Num_Not_Resolved_Atoms>  (564) 
nan

$$$$
CHEMBL4073743
     RDKit          3D

  0  0  0  0  0  0  0  0  0  0999 V3000
M  V30 BEGIN CTAB
M  V30 COUNTS 51 55 0 0 0
M  V30 BEGIN ATOM
M  V30 1 O 2.305530 3.323768 5.195710 0
M  V30 2 C 2.342545 2.473176 4.282128 0
M  V30 3 N 3.389047 1.597101 3.877234 0
M  V30 4 C 2.977545 0.763396 2.745019 0
M  V30 5 C 3.109986 -0.641998 3.175862 0
M  V30 6 C 3.802819 -1.478326 2.122210 0
M  V30 7 C 5.173349 -0.957025 1.793374 0
M  V30 8 C 5.262312 0.545459 1.954576 0
M  V30 9 C 3.894117 1.087578 1.599137 0
M  V30 10 N 1.629198 1.217744 2.525490 0
M  V30 11 C 1.236087 2.184160 3.376830 0
M  V30 12 C -0.024831 2.730714 3.305366 0
M  V30 13 Cl -0.509529 3.986295 4.425336 0
M  V30 14 C -0.952218 2.326605 2.368082 0
M  V30 15 C -0.553662 1.336347 1.493434 0
M  V30 16 N -1.478409 0.886705 0.507240 0
M  V30 17 C -1.952663 -0.449558 0.379704 0
M  V30 18 C -2.848797 -0.746886 -0.626046 0
M  V30 19 C -3.266733 -2.053383 -0.694519 0
M  V30 20 N -4.201863 -2.516039 -1.692353 0
M  V30 21 C -3.476567 -2.940751 -2.823580 0
M  V30 22 O -2.277466 -3.016469 -3.170576 0
M  V30 23 C -4.097419 -3.488512 -4.071008 0
M  V30 24 C -5.201396 -4.484973 -3.949026 0
M  V30 25 C -5.435051 -3.093062 -4.516485 0
M  V30 26 N -2.809571 -2.979526 0.188343 0
M  V30 27 C -1.930189 -2.674024 1.170635 0
M  V30 28 N -1.504991 -1.379043 1.251982 0
M  V30 29 C 0.725854 0.819003 1.606873 0
M  V30 30 O 0.989226 -0.070829 0.770395 0
M  V30 31 H 4.299336 1.650578 4.419327 0
M  V30 32 H 3.753525 -0.753216 4.097580 0
M  V30 33 H 2.168599 -1.151968 3.443036 0
M  V30 34 H 3.187018 -1.655491 1.218669 0
M  V30 35 H 3.932725 -2.490679 2.597532 0
M  V30 36 H 5.348061 -1.175538 0.713727 0
M  V30 37 H 5.935688 -1.493113 2.358390 0
M  V30 38 H 6.040022 0.990558 1.304531 0
M  V30 39 H 5.471752 0.764374 3.011157 0
M  V30 40 H 3.996974 2.202131 1.489403 0
M  V30 41 H 3.532554 0.696956 0.624460 0
M  V30 42 H -1.947757 2.743133 2.295175 0
M  V30 43 H -1.797719 1.636642 -0.142911 0
M  V30 44 H -3.221239 -0.036001 -1.330295 0
M  V30 45 H -5.240643 -2.598539 -1.751566 0
M  V30 46 H -3.343896 -3.761932 -4.838176 0
M  V30 47 H -5.260418 -5.337674 -4.660594 0
M  V30 48 H -5.603918 -4.735314 -2.948897 0
M  V30 49 H -5.609346 -3.045078 -5.630021 0
M  V30 50 H -6.101314 -2.435148 -3.951337 0
M  V30 51 H -1.608561 -3.449033 1.834104 0
M  V30 END ATOM
M  V30 BEGIN BOND
M  V30 1 2 1 2
M  V30 2 1 2 3
M  V30 3 1 3 4
M  V30 4 1 4 5
M  V30 5 1 5 6
M  V30 6 1 6 7
M  V30 7 1 7 8
M  V30 8 1 8 9
M  V30 9 1 4 10
M  V30 10 1 10 11
M  V30 11 2 11 12
M  V30 12 1 12 13
M  V30 13 1 12 14
M  V30 14 2 14 15
M  V30 15 1 15 16
M  V30 16 1 16 17
M  V30 17 2 17 18
M  V30 18 1 18 19
M  V30 19 1 19 20
M  V30 20 1 20 21
M  V30 21 2 21 22
M  V30 22 1 21 23
M  V30 23 1 23 24
M  V30 24 1 24 25
M  V30 25 2 19 26
M  V30 26 1 26 27
M  V30 27 2 27 28
M  V30 28 1 15 29
M  V30 29 2 29 30
M  V30 30 1 11 2
M  V30 31 1 28 17
M  V30 32 1 9 4
M  V30 33 1 29 10
M  V30 34 1 25 23
M  V30 35 1 3 31
M  V30 36 1 5 32
M  V30 37 1 5 33
M  V30 38 1 6 34
M  V30 39 1 6 35
M  V30 40 1 7 36
M  V30 41 1 7 37
M  V30 42 1 8 38
M  V30 43 1 8 39
M  V30 44 1 9 40
M  V30 45 1 9 41
M  V30 46 1 14 42
M  V30 47 1 16 43
M  V30 48 1 18 44
M  V30 49 1 20 45
M  V30 50 1 23 46
M  V30 51 1 24 47
M  V30 52 1 24 48
M  V30 53 1 25 49
M  V30 54 1 25 50
M  V30 55 1 27 51
M  V30 END BOND
M  V30 END CTAB
M  END
>  <Dataset>  (565) 
ChEMBL_Kinases

>  <Ligand_Instance>  (565) 
nan

>  <PDB_ID>  (565) 
nan

>  <Standardized_SMILES>  (565) 
O=C1NC2(CCCCC2)n2c1c(Cl)cc(Nc1cc(NC(=O)C3CC3)ncn1)c2=O

>  <Name>  (565) 
nan

>  <Pocket>  (565) 
nan

>  <ATP_Site>  (565) 
nan

>  <Peripheral>  (565) 
nan

>  <Num_H_Atoms_ProtBoundConf>  (565) 
nan

>  <Num_Resolved_Atoms>  (565) 
nan

>  <Num_Not_Resolved_Atoms>  (565) 
nan

$$$$
CHEMBL3659491
     RDKit          3D

  0  0  0  0  0  0  0  0  0  0999 V3000
M  V30 BEGIN CTAB
M  V30 COUNTS 59 61 0 0 0
M  V30 BEGIN ATOM
M  V30 1 C -1.025416 -1.066956 2.695600 0
M  V30 2 C -1.117964 0.083447 1.720891 0
M  V30 3 C -0.123561 1.010228 1.594023 0
M  V30 4 C 1.221162 1.013234 2.352038 0
M  V30 5 O 1.733624 0.293288 3.215389 0
M  V30 6 N 2.117492 2.067509 2.013169 0
M  V30 7 C 3.420136 2.235647 2.588903 0
M  V30 8 C 4.397498 1.147110 2.366854 0
M  V30 9 C 4.820826 0.795312 1.002956 0
M  V30 10 N 5.481528 1.753559 0.196201 0
M  V30 11 C 5.946242 1.015079 -1.008909 0
M  V30 12 C 4.542829 2.728360 -0.349644 0
M  V30 13 S -0.609550 2.143395 0.422095 0
M  V30 14 C -2.259393 1.321996 0.072821 0
M  V30 15 N -3.255008 1.641751 -0.789600 0
M  V30 16 C -4.357135 0.859061 -0.862981 0
M  V30 17 N -4.340465 -0.190426 -0.039802 0
M  V30 18 C -3.342847 -0.476363 0.797002 0
M  V30 19 N -3.666487 -1.677470 1.505475 0
M  V30 20 C -4.117232 -2.848322 0.828184 0
M  V30 21 C -5.350282 -3.438594 1.056070 0
M  V30 22 C -5.771507 -4.578067 0.416523 0
M  V30 23 C -4.975355 -5.204837 -0.502167 0
M  V30 24 F -5.450729 -6.323502 -1.095935 0
M  V30 25 C -3.729682 -4.624292 -0.744980 0
M  V30 26 C -3.288015 -3.467053 -0.103097 0
M  V30 27 O -2.124945 -3.093597 -0.457773 0
M  V30 28 C -0.928014 -2.707279 -0.821318 0
M  V30 29 C -0.846559 -2.532944 -2.349038 0
M  V30 30 C 0.210103 -3.703333 -0.514483 0
M  V30 31 C -2.194135 0.268995 0.930235 0
M  V30 32 H -1.819812 -1.024692 3.473009 0
M  V30 33 H -1.071264 -2.028489 2.184032 0
M  V30 34 H -0.080234 -1.021691 3.258637 0
M  V30 35 H 1.802342 2.780113 1.281892 0
M  V30 36 H 3.277854 2.365886 3.716170 0
M  V30 37 H 3.833207 3.219195 2.290225 0
M  V30 38 H 3.927052 0.199885 2.793379 0
M  V30 39 H 5.293829 1.259955 3.065942 0
M  V30 40 H 3.973907 0.384109 0.376931 0
M  V30 41 H 5.504021 -0.102151 1.101537 0
M  V30 42 H 7.049088 0.907785 -0.971838 0
M  V30 43 H 5.681911 1.518640 -1.936580 0
M  V30 44 H 5.540669 -0.010912 -1.040749 0
M  V30 45 H 4.648875 3.694176 0.159681 0
M  V30 46 H 4.804369 2.946140 -1.419839 0
M  V30 47 H 3.500432 2.402877 -0.333374 0
M  V30 48 H -5.051106 1.237695 -1.582623 0
M  V30 49 H -3.681303 -2.013986 2.491263 0
M  V30 50 H -6.014377 -2.975733 1.775366 0
M  V30 51 H -6.747318 -4.971469 0.651523 0
M  V30 52 H -3.162273 -5.191439 -1.492671 0
M  V30 53 H -0.565536 -1.703534 -0.438750 0
M  V30 54 H 0.133615 -2.037680 -2.575740 0
M  V30 55 H -1.720369 -2.009181 -2.732793 0
M  V30 56 H -0.822104 -3.562812 -2.763702 0
M  V30 57 H 1.148442 -3.125101 -0.583122 0
M  V30 58 H 0.222751 -4.424961 -1.339436 0
M  V30 59 H 0.045040 -4.172504 0.466476 0
M  V30 END ATOM
M  V30 BEGIN BOND
M  V30 1 1 1 2
M  V30 2 2 2 3
M  V30 3 1 3 4
M  V30 4 2 4 5
M  V30 5 1 4 6
M  V30 6 1 6 7
M  V30 7 1 7 8
M  V30 8 1 8 9
M  V30 9 1 9 10
M  V30 10 1 10 11
M  V30 11 1 10 12
M  V30 12 1 3 13
M  V30 13 1 13 14
M  V30 14 2 14 15
M  V30 15 1 15 16
M  V30 16 2 16 17
M  V30 17 1 17 18
M  V30 18 1 18 19
M  V30 19 1 19 20
M  V30 20 2 20 21
M  V30 21 1 21 22
M  V30 22 2 22 23
M  V30 23 1 23 24
M  V30 24 1 23 25
M  V30 25 2 25 26
M  V30 26 1 26 27
M  V30 27 1 27 28
M  V30 28 1 28 29
M  V30 29 1 28 30
M  V30 30 2 18 31
M  V30 31 1 31 2
M  V30 32 1 31 14
M  V30 33 1 26 20
M  V30 34 1 1 32
M  V30 35 1 1 33
M  V30 36 1 1 34
M  V30 37 1 6 35
M  V30 38 1 7 36
M  V30 39 1 7 37
M  V30 40 1 8 38
M  V30 41 1 8 39
M  V30 42 1 9 40
M  V30 43 1 9 41
M  V30 44 1 11 42
M  V30 45 1 11 43
M  V30 46 1 11 44
M  V30 47 1 12 45
M  V30 48 1 12 46
M  V30 49 1 12 47
M  V30 50 1 16 48
M  V30 51 1 19 49
M  V30 52 1 21 50
M  V30 53 1 22 51
M  V30 54 1 25 52
M  V30 55 1 28 53
M  V30 56 1 29 54
M  V30 57 1 29 55
M  V30 58 1 29 56
M  V30 59 1 30 57
M  V30 60 1 30 58
M  V30 61 1 30 59
M  V30 END BOND
M  V30 END CTAB
M  END
>  <Dataset>  (566) 
ChEMBL_Kinases

>  <Ligand_Instance>  (566) 
nan

>  <PDB_ID>  (566) 
nan

>  <Standardized_SMILES>  (566) 
Cc1c(C(=O)NCCCN(C)C)sc2ncnc(Nc3ccc(F)cc3OC(C)C)c12

>  <Name>  (566) 
nan

>  <Pocket>  (566) 
nan

>  <ATP_Site>  (566) 
nan

>  <Peripheral>  (566) 
nan

>  <Num_H_Atoms_ProtBoundConf>  (566) 
nan

>  <Num_Resolved_Atoms>  (566) 
nan

>  <Num_Not_Resolved_Atoms>  (566) 
nan

$$$$
CHEMBL3629381
     RDKit          3D

  0  0  0  0  0  0  0  0  0  0999 V3000
M  V30 BEGIN CTAB
M  V30 COUNTS 36 40 0 0 0
M  V30 BEGIN ATOM
M  V30 1 O 0.526770 -0.734624 6.447517 0
M  V30 2 C 0.597429 -0.549263 5.242182 0
M  V30 3 C 0.779703 -0.255358 3.836875 0
M  V30 4 C 1.775510 0.566875 3.391345 0
M  V30 5 N 1.582692 0.557982 2.064029 0
M  V30 6 C 0.534766 -0.222146 1.732502 0
M  V30 7 C -0.030254 -0.781123 2.856939 0
M  V30 8 C -1.116521 -1.629716 2.889795 0
M  V30 9 C -1.663343 -1.922849 1.643186 0
M  V30 10 C -1.140092 -1.391675 0.472448 0
M  V30 11 C -1.477780 -1.514305 -0.856780 0
M  V30 12 C -2.487210 -2.236089 -1.458285 0
M  V30 13 C -2.587068 -2.169496 -2.827871 0
M  V30 14 C -1.713637 -1.410681 -3.582547 0
M  V30 15 C -0.711338 -0.699076 -2.937693 0
M  V30 16 C -0.590145 -0.749821 -1.560790 0
M  V30 17 N 0.287956 -0.155558 -0.719006 0
M  V30 18 C -0.067992 -0.561807 0.511660 0
M  V30 19 C 1.381192 0.732758 -1.107006 0
M  V30 20 C 2.545121 0.698101 -0.201871 0
M  V30 21 O 2.926261 -0.636152 -0.030570 0
M  V30 22 C 2.418765 1.306160 1.140226 0
M  V30 23 H 1.207514 -0.161059 6.049591 0
M  V30 24 H 2.520507 1.085156 3.968358 0
M  V30 25 H -1.505442 -2.030550 3.815654 0
M  V30 26 H -2.512459 -2.578417 1.595799 0
M  V30 27 H -3.198156 -2.843051 -0.946647 0
M  V30 28 H -3.344747 -2.701572 -3.371609 0
M  V30 29 H -1.706350 -1.291703 -4.657219 0
M  V30 30 H 0.015376 -0.078475 -3.465569 0
M  V30 31 H 1.734474 0.533762 -2.140782 0
M  V30 32 H 0.955573 1.758829 -1.120729 0
M  V30 33 H 3.394202 1.187352 -0.724632 0
M  V30 34 H 3.436164 -0.974914 -0.808575 0
M  V30 35 H 2.025357 2.339347 1.047564 0
M  V30 36 H 3.420866 1.386288 1.607498 0
M  V30 END ATOM
M  V30 BEGIN BOND
M  V30 1 2 1 2
M  V30 2 1 2 3
M  V30 3 2 3 4
M  V30 4 1 4 5
M  V30 5 1 5 6
M  V30 6 2 6 7
M  V30 7 1 7 8
M  V30 8 2 8 9
M  V30 9 1 9 10
M  V30 10 1 10 11
M  V30 11 2 11 12
M  V30 12 1 12 13
M  V30 13 2 13 14
M  V30 14 1 14 15
M  V30 15 2 15 16
M  V30 16 1 16 17
M  V30 17 1 17 18
M  V30 18 1 17 19
M  V30 19 1 19 20
M  V30 20 1 20 21
M  V30 21 1 20 22
M  V30 22 1 7 3
M  V30 23 2 18 10
M  V30 24 1 22 5
M  V30 25 1 18 6
M  V30 26 1 16 11
M  V30 27 1 2 23
M  V30 28 1 4 24
M  V30 29 1 8 25
M  V30 30 1 9 26
M  V30 31 1 12 27
M  V30 32 1 13 28
M  V30 33 1 14 29
M  V30 34 1 15 30
M  V30 35 1 19 31
M  V30 36 1 19 32
M  V30 37 1 20 33
M  V30 38 1 21 34
M  V30 39 1 22 35
M  V30 40 1 22 36
M  V30 END BOND
M  V30 END CTAB
M  END
>  <Dataset>  (567) 
ChEMBL_Kinases

>  <Ligand_Instance>  (567) 
nan

>  <PDB_ID>  (567) 
nan

>  <Standardized_SMILES>  (567) 
O=Cc1cn2c3c1ccc1c4ccccc4n(c13)CC(O)C2

>  <Name>  (567) 
nan

>  <Pocket>  (567) 
nan

>  <ATP_Site>  (567) 
nan

>  <Peripheral>  (567) 
nan

>  <Num_H_Atoms_ProtBoundConf>  (567) 
nan

>  <Num_Resolved_Atoms>  (567) 
nan

>  <Num_Not_Resolved_Atoms>  (567) 
nan

$$$$
CHEMBL3659490
     RDKit          3D

  0  0  0  0  0  0  0  0  0  0999 V3000
M  V30 BEGIN CTAB
M  V30 COUNTS 56 60 0 0 0
M  V30 BEGIN ATOM
M  V30 1 C 2.380287 1.489726 3.488585 0
M  V30 2 C 2.865614 0.295867 2.750900 0
M  V30 3 C 3.950299 -0.408183 3.303304 0
M  V30 4 C 4.700631 -0.207857 4.481325 0
M  V30 5 N 4.644074 0.746749 5.523189 0
M  V30 6 O 5.649993 -0.955657 4.805004 0
M  V30 7 S 4.271479 -1.731098 2.179091 0
M  V30 8 C 2.943647 -1.295705 1.011574 0
M  V30 9 N 2.556183 -1.883106 -0.155464 0
M  V30 10 C 1.545435 -1.370010 -0.834592 0
M  V30 11 N 0.977002 -0.293682 -0.304805 0
M  V30 12 C 1.325566 0.313360 0.836188 0
M  V30 13 N 0.501589 1.425193 1.099941 0
M  V30 14 C -0.750715 1.484035 1.767024 0
M  V30 15 C -0.883509 2.288586 2.906821 0
M  V30 16 C -2.064446 2.405382 3.627687 0
M  V30 17 C -3.173733 1.685102 3.193923 0
M  V30 18 F -4.361924 1.742287 3.838770 0
M  V30 19 C -3.017638 0.905853 2.076293 0
M  V30 20 C -1.878992 0.761261 1.338638 0
M  V30 21 O -1.619010 0.022591 0.224936 0
M  V30 22 C -2.569635 -0.782348 -0.404660 0
M  V30 23 C -2.182400 -2.223244 -0.399629 0
M  V30 24 C -2.403179 -2.931409 -1.704262 0
M  V30 25 N -2.083932 -2.202235 -2.843499 0
M  V30 26 C -1.743181 -2.911775 -4.022985 0
M  V30 27 C -0.553606 -3.770873 -3.826741 0
M  V30 28 N -0.627475 -5.048972 -3.407898 0
M  V30 29 C 0.600235 -5.587872 -3.318883 0
M  V30 30 O 1.439112 -4.635041 -3.685666 0
M  V30 31 N 0.764456 -3.567567 -3.984198 0
M  V30 32 C -2.026527 -0.817329 -2.857778 0
M  V30 33 C -2.829846 -0.210331 -1.767453 0
M  V30 34 C 2.367103 -0.175167 1.580642 0
M  V30 35 H 2.104134 2.273950 2.749192 0
M  V30 36 H 3.197030 1.948326 4.085106 0
M  V30 37 H 1.563572 1.261400 4.189012 0
M  V30 38 H 5.307216 1.520476 5.785421 0
M  V30 39 H 3.731370 0.389051 5.899898 0
M  V30 40 H 1.269984 -1.862377 -1.751898 0
M  V30 41 H 0.728272 2.422794 0.810611 0
M  V30 42 H -0.107886 2.895039 3.334842 0
M  V30 43 H -2.191770 3.009599 4.497317 0
M  V30 44 H -3.888080 0.357713 1.758707 0
M  V30 45 H -3.514217 -0.703339 0.153727 0
M  V30 46 H -1.104915 -2.308124 -0.151964 0
M  V30 47 H -2.718002 -2.801174 0.382862 0
M  V30 48 H -1.865404 -3.902010 -1.727373 0
M  V30 49 H -3.486982 -3.240412 -1.791056 0
M  V30 50 H -1.473397 -2.165098 -4.810124 0
M  V30 51 H -2.606913 -3.539326 -4.330040 0
M  V30 52 H 0.852188 -6.602088 -3.008330 0
M  V30 53 H -2.389559 -0.381046 -3.830474 0
M  V30 54 H -0.963191 -0.490133 -2.801333 0
M  V30 55 H -2.636902 0.883285 -1.772380 0
M  V30 56 H -3.895999 -0.328899 -2.064200 0
M  V30 END ATOM
M  V30 BEGIN BOND
M  V30 1 1 1 2
M  V30 2 2 2 3
M  V30 3 1 3 4
M  V30 4 1 4 5
M  V30 5 2 4 6
M  V30 6 1 3 7
M  V30 7 1 7 8
M  V30 8 2 8 9
M  V30 9 1 9 10
M  V30 10 2 10 11
M  V30 11 1 11 12
M  V30 12 1 12 13
M  V30 13 1 13 14
M  V30 14 2 14 15
M  V30 15 1 15 16
M  V30 16 2 16 17
M  V30 17 1 17 18
M  V30 18 1 17 19
M  V30 19 2 19 20
M  V30 20 1 20 21
M  V30 21 1 21 22
M  V30 22 1 22 23
M  V30 23 1 23 24
M  V30 24 1 24 25
M  V30 25 1 25 26
M  V30 26 1 26 27
M  V30 27 1 27 28
M  V30 28 2 28 29
M  V30 29 1 29 30
M  V30 30 1 30 31
M  V30 31 1 25 32
M  V30 32 1 32 33
M  V30 33 2 12 34
M  V30 34 1 34 2
M  V30 35 1 34 8
M  V30 36 1 20 14
M  V30 37 1 33 22
M  V30 38 2 31 27
M  V30 39 1 1 35
M  V30 40 1 1 36
M  V30 41 1 1 37
M  V30 42 1 5 38
M  V30 43 1 5 39
M  V30 44 1 10 40
M  V30 45 1 13 41
M  V30 46 1 15 42
M  V30 47 1 16 43
M  V30 48 1 19 44
M  V30 49 1 22 45
M  V30 50 1 23 46
M  V30 51 1 23 47
M  V30 52 1 24 48
M  V30 53 1 24 49
M  V30 54 1 26 50
M  V30 55 1 26 51
M  V30 56 1 29 52
M  V30 57 1 32 53
M  V30 58 1 32 54
M  V30 59 1 33 55
M  V30 60 1 33 56
M  V30 END BOND
M  V30 END CTAB
M  END
>  <Dataset>  (568) 
ChEMBL_Kinases

>  <Ligand_Instance>  (568) 
nan

>  <PDB_ID>  (568) 
nan

>  <Standardized_SMILES>  (568) 
Cc1c(C(N)=O)sc2ncnc(Nc3ccc(F)cc3OC3CCN(Cc4ncon4)CC3)c12

>  <Name>  (568) 
nan

>  <Pocket>  (568) 
nan

>  <ATP_Site>  (568) 
nan

>  <Peripheral>  (568) 
nan

>  <Num_H_Atoms_ProtBoundConf>  (568) 
nan

>  <Num_Resolved_Atoms>  (568) 
nan

>  <Num_Not_Resolved_Atoms>  (568) 
nan

$$$$
CHEMBL3629382
     RDKit          3D

  0  0  0  0  0  0  0  0  0  0999 V3000
M  V30 BEGIN CTAB
M  V30 COUNTS 42 46 0 0 0
M  V30 BEGIN ATOM
M  V30 1 C 2.617370 -3.157876 2.322605 0
M  V30 2 S 2.654083 -2.998404 0.552209 0
M  V30 3 O 2.302381 -4.327658 -0.054523 0
M  V30 4 O 4.031571 -2.618882 0.127732 0
M  V30 5 O 1.501107 -1.856500 0.140573 0
M  V30 6 C 0.525384 -2.373428 -0.737311 0
M  V30 7 C 0.510354 -1.533696 -1.975083 0
M  V30 8 N 0.916325 -0.162694 -1.672667 0
M  V30 9 C 1.636481 0.691380 -2.416472 0
M  V30 10 C 1.782680 1.885080 -1.739650 0
M  V30 11 C 2.514471 3.029918 -2.270777 0
M  V30 12 O 3.102369 3.091735 -3.393515 0
M  V30 13 C 1.123109 1.747543 -0.535358 0
M  V30 14 C 0.951947 2.626189 0.519002 0
M  V30 15 C 0.233823 2.253267 1.649121 0
M  V30 16 C -0.301139 0.963921 1.670297 0
M  V30 17 C -1.055977 0.284516 2.625014 0
M  V30 18 C -1.531017 0.650914 3.870014 0
M  V30 19 C -2.271127 -0.247236 4.617873 0
M  V30 20 C -2.534959 -1.517726 4.113442 0
M  V30 21 C -2.051906 -1.877662 2.857695 0
M  V30 22 C -1.304143 -0.974642 2.098519 0
M  V30 23 N -0.749143 -1.090497 0.897266 0
M  V30 24 C -0.129884 0.075357 0.607713 0
M  V30 25 C 0.592765 0.465492 -0.517474 0
M  V30 26 C -0.796392 -2.273500 0.031714 0
M  V30 27 H 3.314789 -3.940526 2.671499 0
M  V30 28 H 2.874716 -2.152816 2.754856 0
M  V30 29 H 1.557456 -3.397464 2.599227 0
M  V30 30 H 0.786040 -3.433515 -0.930538 0
M  V30 31 H 1.229854 -1.975731 -2.694374 0
M  V30 32 H -0.489978 -1.597989 -2.429068 0
M  V30 33 H 2.023774 0.423746 -3.406280 0
M  V30 34 H 2.615212 3.956620 -1.719902 0
M  V30 35 H 1.395222 3.607046 0.430456 0
M  V30 36 H 0.100243 2.940292 2.473018 0
M  V30 37 H -1.347317 1.628058 4.296335 0
M  V30 38 H -2.679095 -0.038276 5.601326 0
M  V30 39 H -3.100970 -2.307668 4.601754 0
M  V30 40 H -2.231531 -2.867094 2.413298 0
M  V30 41 H -1.609981 -2.230973 -0.698555 0
M  V30 42 H -0.844077 -3.161165 0.680702 0
M  V30 END ATOM
M  V30 BEGIN BOND
M  V30 1 1 1 2
M  V30 2 2 2 3
M  V30 3 2 2 4
M  V30 4 1 2 5
M  V30 5 1 5 6
M  V30 6 1 6 7
M  V30 7 1 7 8
M  V30 8 1 8 9
M  V30 9 2 9 10
M  V30 10 1 10 11
M  V30 11 2 11 12
M  V30 12 1 10 13
M  V30 13 2 13 14
M  V30 14 1 14 15
M  V30 15 2 15 16
M  V30 16 1 16 17
M  V30 17 2 17 18
M  V30 18 1 18 19
M  V30 19 2 19 20
M  V30 20 1 20 21
M  V30 21 2 21 22
M  V30 22 1 22 23
M  V30 23 1 23 24
M  V30 24 2 24 25
M  V30 25 1 23 26
M  V30 26 1 26 6
M  V30 27 1 25 8
M  V30 28 1 25 13
M  V30 29 1 24 16
M  V30 30 1 22 17
M  V30 31 1 1 27
M  V30 32 1 1 28
M  V30 33 1 1 29
M  V30 34 1 6 30
M  V30 35 1 7 31
M  V30 36 1 7 32
M  V30 37 1 9 33
M  V30 38 1 11 34
M  V30 39 1 14 35
M  V30 40 1 15 36
M  V30 41 1 18 37
M  V30 42 1 19 38
M  V30 43 1 20 39
M  V30 44 1 21 40
M  V30 45 1 26 41
M  V30 46 1 26 42
M  V30 END BOND
M  V30 END CTAB
M  END
>  <Dataset>  (569) 
ChEMBL_Kinases

>  <Ligand_Instance>  (569) 
nan

>  <PDB_ID>  (569) 
nan

>  <Standardized_SMILES>  (569) 
CS(=O)(=O)OC1Cn2cc(C=O)c3ccc4c5ccccc5n(c4c32)C1

>  <Name>  (569) 
nan

>  <Pocket>  (569) 
nan

>  <ATP_Site>  (569) 
nan

>  <Peripheral>  (569) 
nan

>  <Num_H_Atoms_ProtBoundConf>  (569) 
nan

>  <Num_Resolved_Atoms>  (569) 
nan

>  <Num_Not_Resolved_Atoms>  (569) 
nan

$$$$
CHEMBL3884884
     RDKit          3D

  0  0  0  0  0  0  0  0  0  0999 V3000
M  V30 BEGIN CTAB
M  V30 COUNTS 48 51 0 0 0
M  V30 BEGIN ATOM
M  V30 1 C 1.578325 -2.543206 1.734609 0
M  V30 2 C 2.174239 -1.282097 1.148374 0 CFG=1
M  V30 3 C 2.665826 -1.529474 -0.241312 0
M  V30 4 C 1.978862 -1.590394 -1.423924 0
M  V30 5 C 2.502247 -1.820270 -2.668719 0
M  V30 6 C 3.859579 -2.015370 -2.780548 0
M  V30 7 C 4.668479 -1.979918 -1.668806 0
M  V30 8 C 4.037686 -1.741676 -0.470393 0
M  V30 9 N 1.288192 -0.177491 1.296619 0
M  V30 10 C 1.816318 0.934399 2.065487 0
M  V30 11 O 2.898202 1.224058 2.680871 0
M  V30 12 C 0.837289 2.079857 2.187579 0
M  V30 13 C 1.331882 3.305314 1.475886 0
M  V30 14 C 0.558017 2.280877 3.642293 0
M  V30 15 C -0.333250 1.527597 1.466998 0
M  V30 16 C -1.599160 2.000918 1.208289 0
M  V30 17 N -2.476158 1.250277 0.505476 0
M  V30 18 C -2.134457 0.025101 0.042520 0
M  V30 19 N -3.082717 -0.741068 -0.692188 0
M  V30 20 C -3.918376 -1.648536 0.016639 0
M  V30 21 C -3.729142 -1.725087 1.380899 0
M  V30 22 C -4.566710 -2.627768 2.047195 0
M  V30 23 C -5.516428 -3.387429 1.377837 0
M  V30 24 N -5.667582 -3.278264 0.029057 0
M  V30 25 C -4.867353 -2.408866 -0.645353 0
M  V30 26 N -0.903232 -0.441807 0.290981 0
M  V30 27 C -0.011641 0.279223 0.985100 0
M  V30 28 H 2.402279 -3.212718 2.108582 0
M  V30 29 H 0.900174 -3.068936 1.046973 0
M  V30 30 H 1.002296 -2.219493 2.649033 0
M  V30 31 H 3.138043 -1.098588 1.736388 0
M  V30 32 H 0.916090 -1.449539 -1.380292 0
M  V30 33 H 1.859775 -1.845652 -3.532302 0
M  V30 34 H 4.296854 -2.198136 -3.748202 0
M  V30 35 H 5.734456 -2.131216 -1.740163 0
M  V30 36 H 4.731264 -1.724669 0.383625 0
M  V30 37 H 2.341674 3.107544 1.024940 0
M  V30 38 H 0.687530 3.532956 0.595375 0
M  V30 39 H 1.333510 4.204085 2.123853 0
M  V30 40 H -0.317056 2.917333 3.844200 0
M  V30 41 H 0.305345 1.267422 4.055072 0
M  V30 42 H 1.468675 2.604194 4.158424 0
M  V30 43 H -1.812405 2.983889 1.603055 0
M  V30 44 H -3.084688 -0.566562 -1.719223 0
M  V30 45 H -3.005893 -1.150595 1.912005 0
M  V30 46 H -4.484216 -2.749869 3.118590 0
M  V30 47 H -6.132908 -4.072271 1.977347 0
M  V30 48 H -4.925714 -2.265292 -1.714021 0
M  V30 END ATOM
M  V30 BEGIN BOND
M  V30 1 1 1 2
M  V30 2 1 2 3
M  V30 3 2 3 4
M  V30 4 1 4 5
M  V30 5 2 5 6
M  V30 6 1 6 7
M  V30 7 2 7 8
M  V30 8 1 2 9
M  V30 9 1 9 10
M  V30 10 2 10 11
M  V30 11 1 10 12
M  V30 12 1 12 13
M  V30 13 1 12 14
M  V30 14 1 12 15
M  V30 15 2 15 16
M  V30 16 1 16 17
M  V30 17 2 17 18
M  V30 18 1 18 19
M  V30 19 1 19 20
M  V30 20 2 20 21
M  V30 21 1 21 22
M  V30 22 2 22 23
M  V30 23 1 23 24
M  V30 24 2 24 25
M  V30 25 1 18 26
M  V30 26 2 26 27
M  V30 27 1 8 3
M  V30 28 1 27 9
M  V30 29 1 27 15
M  V30 30 1 25 20
M  V30 31 1 1 28
M  V30 32 1 1 29
M  V30 33 1 1 30
M  V30 34 1 2 31 CFG=1
M  V30 35 1 4 32
M  V30 36 1 5 33
M  V30 37 1 6 34
M  V30 38 1 7 35
M  V30 39 1 8 36
M  V30 40 1 13 37
M  V30 41 1 13 38
M  V30 42 1 13 39
M  V30 43 1 14 40
M  V30 44 1 14 41
M  V30 45 1 14 42
M  V30 46 1 16 43
M  V30 47 1 19 44
M  V30 48 1 21 45
M  V30 49 1 22 46
M  V30 50 1 23 47
M  V30 51 1 25 48
M  V30 END BOND
M  V30 END CTAB
M  END
>  <Dataset>  (570) 
ChEMBL_Kinases

>  <Ligand_Instance>  (570) 
nan

>  <PDB_ID>  (570) 
nan

>  <Standardized_SMILES>  (570) 
C[C@@H](c1ccccc1)N1C(=O)C(C)(C)c2cnc(Nc3cccnc3)nc21

>  <Name>  (570) 
nan

>  <Pocket>  (570) 
nan

>  <ATP_Site>  (570) 
nan

>  <Peripheral>  (570) 
nan

>  <Num_H_Atoms_ProtBoundConf>  (570) 
nan

>  <Num_Resolved_Atoms>  (570) 
nan

>  <Num_Not_Resolved_Atoms>  (570) 
nan

$$$$
CHEMBL3634762
     RDKit          3D

  0  0  0  0  0  0  0  0  0  0999 V3000
M  V30 BEGIN CTAB
M  V30 COUNTS 48 52 0 0 0
M  V30 BEGIN ATOM
M  V30 1 C 0.440831 -5.183499 0.999822 0
M  V30 2 C 1.487089 -4.274717 0.985722 0
M  V30 3 C 1.290853 -2.926379 0.777694 0
M  V30 4 C 2.434978 -2.024928 0.776630 0
M  V30 5 N 3.729126 -2.388106 0.963411 0
M  V30 6 N 4.503377 -1.324193 0.901648 0
M  V30 7 C 3.792047 -0.204606 0.674412 0
M  V30 8 C 4.054438 1.145731 0.519699 0
M  V30 9 N 3.043415 2.001497 0.296619 0
M  V30 10 C 1.762082 1.620662 0.212040 0
M  V30 11 C 0.708539 2.646257 -0.038488 0
M  V30 12 C 0.405941 3.477160 1.165681 0
M  V30 13 C 1.120665 4.773580 0.893170 0
M  V30 14 C 1.801882 4.545363 -0.448713 0
M  V30 15 O 1.115513 3.501708 -1.041978 0
M  V30 16 C 1.507221 0.274009 0.367045 0
M  V30 17 C 2.477142 -0.659030 0.596173 0
M  V30 18 N 0.010459 -2.503369 0.581953 0
M  V30 19 C -1.028951 -3.327735 0.585072 0
M  V30 20 N -2.329665 -2.806218 0.372406 0
M  V30 21 C -2.614493 -1.407930 0.116475 0
M  V30 22 C -3.193262 -0.858445 1.406398 0
M  V30 23 N -3.856140 -1.886063 2.177775 0
M  V30 24 C -4.494071 -2.882672 1.365681 0
M  V30 25 C -3.562917 -3.556947 0.375900 0
M  V30 26 C -0.831159 -4.672522 0.792813 0
M  V30 27 H 0.601591 -6.244154 1.164174 0
M  V30 28 H 2.489422 -4.680659 1.149289 0
M  V30 29 H 5.546654 -1.299709 1.009227 0
M  V30 30 H 5.094610 1.391664 0.596912 0
M  V30 31 H -0.213460 2.117457 -0.342087 0
M  V30 32 H 0.730551 2.997668 2.112056 0
M  V30 33 H -0.688889 3.639005 1.257418 0
M  V30 34 H 1.836625 5.005436 1.692076 0
M  V30 35 H 0.357003 5.584673 0.768539 0
M  V30 36 H 1.641677 5.450726 -1.095208 0
M  V30 37 H 2.864363 4.292548 -0.333890 0
M  V30 38 H 0.476292 -0.039225 0.300349 0
M  V30 39 H -3.340510 -1.263456 -0.720455 0
M  V30 40 H -1.697609 -0.881874 -0.214738 0
M  V30 41 H -2.337235 -0.497499 2.014201 0
M  V30 42 H -3.826145 0.013759 1.189408 0
M  V30 43 H -3.298938 -2.248619 2.962091 0
M  V30 44 H -5.366801 -2.481764 0.851776 0
M  V30 45 H -4.827789 -3.684706 2.070734 0
M  V30 46 H -3.467705 -4.626550 0.541394 0
M  V30 47 H -3.986520 -3.412858 -0.662716 0
M  V30 48 H -1.618101 -5.397682 0.809115 0
M  V30 END ATOM
M  V30 BEGIN BOND
M  V30 1 2 1 2
M  V30 2 1 2 3
M  V30 3 1 3 4
M  V30 4 2 4 5
M  V30 5 1 5 6
M  V30 6 1 6 7
M  V30 7 2 7 8
M  V30 8 1 8 9
M  V30 9 2 9 10
M  V30 10 1 10 11
M  V30 11 1 11 12
M  V30 12 1 12 13
M  V30 13 1 13 14
M  V30 14 1 14 15
M  V30 15 1 10 16
M  V30 16 2 16 17
M  V30 17 2 3 18
M  V30 18 1 18 19
M  V30 19 1 19 20
M  V30 20 1 20 21
M  V30 21 1 21 22
M  V30 22 1 22 23
M  V30 23 1 23 24
M  V30 24 1 24 25
M  V30 25 2 19 26
M  V30 26 1 26 1
M  V30 27 1 17 4
M  V30 28 1 25 20
M  V30 29 1 17 7
M  V30 30 1 15 11
M  V30 31 1 1 27
M  V30 32 1 2 28
M  V30 33 1 6 29
M  V30 34 1 8 30
M  V30 35 1 11 31
M  V30 36 1 12 32
M  V30 37 1 12 33
M  V30 38 1 13 34
M  V30 39 1 13 35
M  V30 40 1 14 36
M  V30 41 1 14 37
M  V30 42 1 16 38
M  V30 43 1 21 39
M  V30 44 1 21 40
M  V30 45 1 22 41
M  V30 46 1 22 42
M  V30 47 1 23 43
M  V30 48 1 24 44
M  V30 49 1 24 45
M  V30 50 1 25 46
M  V30 51 1 25 47
M  V30 52 1 26 48
M  V30 END BOND
M  V30 END CTAB
M  END
>  <Dataset>  (571) 
ChEMBL_Kinases

>  <Ligand_Instance>  (571) 
nan

>  <PDB_ID>  (571) 
nan

>  <Standardized_SMILES>  (571) 
c1cc(-c2n[nH]c3cnc(C4CCCO4)cc23)nc(N2CCNCC2)c1

>  <Name>  (571) 
nan

>  <Pocket>  (571) 
nan

>  <ATP_Site>  (571) 
nan

>  <Peripheral>  (571) 
nan

>  <Num_H_Atoms_ProtBoundConf>  (571) 
nan

>  <Num_Resolved_Atoms>  (571) 
nan

>  <Num_Not_Resolved_Atoms>  (571) 
nan

$$$$
CHEMBL388966
     RDKit          3D

  0  0  0  0  0  0  0  0  0  0999 V3000
M  V30 BEGIN CTAB
M  V30 COUNTS 46 48 0 0 0
M  V30 BEGIN ATOM
M  V30 1 C 0.362434 0.765495 2.288213 0
M  V30 2 C 0.339975 -0.477507 1.480694 0
M  V30 3 C 1.344129 -0.867086 0.723160 0
M  V30 4 C 1.473629 -2.041156 -0.124092 0
M  V30 5 O 0.630384 -2.931425 -0.329399 0
M  V30 6 N 2.752231 -2.084340 -0.749864 0
M  V30 7 C 3.449609 -0.917698 -0.294352 0
M  V30 8 C 4.724924 -0.498927 -0.608222 0
M  V30 9 C 5.231927 0.663205 -0.064307 0
M  V30 10 C 4.422917 1.401398 0.808673 0
M  V30 11 N 5.018951 2.586717 1.325179 0
M  V30 12 C 5.800310 2.972567 2.446936 0
M  V30 13 N 6.153383 4.370216 2.486938 0
M  V30 14 O 6.184059 2.214410 3.359308 0
M  V30 15 C 3.149495 0.946583 1.097041 0
M  V30 16 C 2.631773 -0.209663 0.561798 0
M  V30 17 C -0.846945 -1.327214 1.592035 0
M  V30 18 C -2.100723 -0.728162 1.402027 0
M  V30 19 C -3.091648 -1.700538 1.589550 0
M  V30 20 C -4.562796 -1.398446 1.464513 0
M  V30 21 N -5.030415 -1.586692 0.106915 0
M  V30 22 C -5.274175 -2.904076 -0.412933 0
M  V30 23 O -5.056999 -3.830535 0.386217 0
M  V30 24 C -5.746483 -2.830865 -1.839620 0
M  V30 25 O -5.995446 -4.077371 -2.379756 0
M  V30 26 C -2.392349 -2.849596 1.885920 0
M  V30 27 N -1.074141 -2.613626 1.883833 0
M  V30 28 H 1.022637 0.728103 3.146039 0
M  V30 29 H 0.382836 1.679369 1.661213 0
M  V30 30 H -0.671594 0.836489 2.761551 0
M  V30 31 H 3.143057 -2.809766 -1.418262 0
M  V30 32 H 5.358204 -1.074566 -1.291723 0
M  V30 33 H 6.229251 0.991331 -0.308510 0
M  V30 34 H 4.726925 3.289567 0.581347 0
M  V30 35 H 6.743938 5.171648 2.162560 0
M  V30 36 H 5.888367 5.266079 2.951700 0
M  V30 37 H 2.657364 1.608572 1.776768 0
M  V30 38 H -2.335485 0.317817 1.147294 0
M  V30 39 H -5.102921 -2.143382 2.109726 0
M  V30 40 H -4.807411 -0.402817 1.837314 0
M  V30 41 H -5.163975 -0.694538 -0.429490 0
M  V30 42 H -6.627861 -2.200402 -1.948681 0
M  V30 43 H -4.887528 -2.394856 -2.435132 0
M  V30 44 H -6.944779 -4.179468 -2.677061 0
M  V30 45 H -2.900369 -3.781185 2.083054 0
M  V30 46 H -0.320374 -3.300131 2.091789 0
M  V30 END ATOM
M  V30 BEGIN BOND
M  V30 1 1 1 2
M  V30 2 2 2 3
M  V30 3 1 3 4
M  V30 4 2 4 5
M  V30 5 1 4 6
M  V30 6 1 6 7
M  V30 7 2 7 8
M  V30 8 1 8 9
M  V30 9 2 9 10
M  V30 10 1 10 11
M  V30 11 1 11 12
M  V30 12 1 12 13
M  V30 13 2 12 14
M  V30 14 1 10 15
M  V30 15 2 15 16
M  V30 16 1 2 17
M  V30 17 2 17 18
M  V30 18 1 18 19
M  V30 19 1 19 20
M  V30 20 1 20 21
M  V30 21 1 21 22
M  V30 22 2 22 23
M  V30 23 1 22 24
M  V30 24 1 24 25
M  V30 25 2 19 26
M  V30 26 1 26 27
M  V30 27 1 16 3
M  V30 28 1 27 17
M  V30 29 1 16 7
M  V30 30 1 1 28
M  V30 31 1 1 29
M  V30 32 1 1 30
M  V30 33 1 6 31
M  V30 34 1 8 32
M  V30 35 1 9 33
M  V30 36 1 11 34
M  V30 37 1 13 35
M  V30 38 1 13 36
M  V30 39 1 15 37
M  V30 40 1 18 38
M  V30 41 1 20 39
M  V30 42 1 20 40
M  V30 43 1 21 41
M  V30 44 1 24 42
M  V30 45 1 24 43
M  V30 46 1 25 44
M  V30 47 1 26 45
M  V30 48 1 27 46
M  V30 END BOND
M  V30 END CTAB
M  END
>  <Dataset>  (572) 
ChEMBL_Kinases

>  <Ligand_Instance>  (572) 
nan

>  <PDB_ID>  (572) 
nan

>  <Standardized_SMILES>  (572) 
C/C(=C1/C(=O)Nc2ccc(NC(N)=O)cc21)c1cc(CNC(=O)CO)c[nH]1

>  <Name>  (572) 
nan

>  <Pocket>  (572) 
nan

>  <ATP_Site>  (572) 
nan

>  <Peripheral>  (572) 
nan

>  <Num_H_Atoms_ProtBoundConf>  (572) 
nan

>  <Num_Resolved_Atoms>  (572) 
nan

>  <Num_Not_Resolved_Atoms>  (572) 
nan

$$$$
CHEMBL3889977
     RDKit          3D

  0  0  0  0  0  0  0  0  0  0999 V3000
M  V30 BEGIN CTAB
M  V30 COUNTS 71 75 0 0 0
M  V30 BEGIN ATOM
M  V30 1 C -1.284248 -2.995446 4.073636 0
M  V30 2 C -2.397524 -2.906742 3.408602 0
M  V30 3 C -2.747770 -1.779137 2.556282 0
M  V30 4 O -3.893966 -1.864941 1.987017 0
M  V30 5 N -1.951004 -0.620861 2.310751 0
M  V30 6 C -2.467621 0.417338 1.447488 0
M  V30 7 C -2.935987 1.506706 2.404842 0
M  V30 8 C -2.883723 2.847392 1.804900 0
M  V30 9 N -1.651515 3.254033 1.222023 0
M  V30 10 S -0.507174 3.830796 2.350561 0
M  V30 11 O -0.276675 5.295811 1.997792 0
M  V30 12 O -1.128590 3.890238 3.744760 0
M  V30 13 C 1.006951 3.013647 2.407046 0
M  V30 14 C 2.151702 3.831829 2.477495 0
M  V30 15 C 3.487902 3.420928 2.490174 0
M  V30 16 C 3.699128 2.037736 2.423464 0
M  V30 17 C 2.584787 1.193281 2.350613 0
M  V30 18 N 3.036601 -0.147195 2.250101 0
M  V30 19 C 2.496812 -0.806040 1.089519 0
M  V30 20 N 3.217195 -0.292813 0.070442 0
M  V30 21 C 3.019964 -0.668557 -1.205940 0
M  V30 22 C 2.065728 -1.604850 -1.548328 0
M  V30 23 C 1.355228 -2.103157 -0.480684 0
M  V30 24 N 1.540183 -1.733678 0.823768 0
M  V30 25 N 0.330168 -3.079696 -0.522051 0
M  V30 26 C 0.167250 -3.964205 0.603033 0
M  V30 27 C -0.609606 -3.316007 -1.593336 0
M  V30 28 C -1.804292 -3.874951 -1.144080 0
M  V30 29 C -2.778912 -4.142155 -2.102950 0
M  V30 30 C -2.547479 -3.857083 -3.431618 0
M  V30 31 C -3.619794 -4.155925 -4.419779 0
M  V30 32 C -1.350139 -3.296685 -3.884036 0
M  V30 33 C -0.373865 -3.026894 -2.937870 0
M  V30 34 C 0.818527 -2.443422 -3.571248 0
M  V30 35 O 0.867458 -2.407983 -4.825693 0
M  V30 36 N 1.976858 -1.888355 -2.923777 0
M  V30 37 C 3.153474 -1.583121 -3.683596 0
M  V30 38 C 1.314676 1.689001 2.346930 0
M  V30 39 C -1.132701 2.279113 0.310912 0
M  V30 40 C -1.569020 0.881235 0.397447 0
M  V30 41 H -0.454756 -2.283729 4.114582 0
M  V30 42 H -0.959341 -3.794470 4.720389 0
M  V30 43 H -3.040348 -3.746146 3.545649 0
M  V30 44 H -1.054648 -0.721089 2.834674 0
M  V30 45 H -3.409640 0.012625 1.016471 0
M  V30 46 H -2.332376 1.498028 3.337017 0
M  V30 47 H -3.971715 1.308464 2.752665 0
M  V30 48 H -3.654372 2.883260 0.980923 0
M  V30 49 H -3.200527 3.590167 2.568238 0
M  V30 50 H 2.040688 4.913333 2.528881 0
M  V30 51 H 4.287679 4.136179 2.547936 0
M  V30 52 H 4.746816 1.763897 2.436639 0
M  V30 53 H 3.685016 -0.545713 2.972784 0
M  V30 54 H 3.572179 -0.285994 -2.068948 0
M  V30 55 H -0.112914 -5.009159 0.284474 0
M  V30 56 H -0.456543 -3.555221 1.397763 0
M  V30 57 H 1.181485 -4.122745 1.075585 0
M  V30 58 H -1.867924 -4.053003 -0.081334 0
M  V30 59 H -3.683656 -4.572408 -1.710511 0
M  V30 60 H -3.407029 -5.007686 -5.064625 0
M  V30 61 H -4.598173 -4.276051 -3.866996 0
M  V30 62 H -3.762944 -3.272459 -5.077721 0
M  V30 63 H -1.193732 -3.083754 -4.927034 0
M  V30 64 H 4.098473 -1.888561 -3.194915 0
M  V30 65 H 3.165543 -0.541318 -4.083206 0
M  V30 66 H 3.110441 -2.225107 -4.611483 0
M  V30 67 H 0.504231 0.995460 2.308739 0
M  V30 68 H -1.315978 2.725821 -0.715937 0
M  V30 69 H -0.007568 2.374060 0.391061 0
M  V30 70 H -0.651997 0.214406 0.407630 0
M  V30 71 H -1.998081 0.610300 -0.624404 0
M  V30 END ATOM
M  V30 BEGIN BOND
M  V30 1 2 1 2
M  V30 2 1 2 3
M  V30 3 2 3 4
M  V30 4 1 3 5
M  V30 5 1 5 6
M  V30 6 1 6 7
M  V30 7 1 7 8
M  V30 8 1 8 9
M  V30 9 1 9 10
M  V30 10 2 10 11
M  V30 11 2 10 12
M  V30 12 1 10 13
M  V30 13 2 13 14
M  V30 14 1 14 15
M  V30 15 2 15 16
M  V30 16 1 16 17
M  V30 17 1 17 18
M  V30 18 1 18 19
M  V30 19 2 19 20
M  V30 20 1 20 21
M  V30 21 2 21 22
M  V30 22 1 22 23
M  V30 23 2 23 24
M  V30 24 1 23 25
M  V30 25 1 25 26
M  V30 26 1 25 27
M  V30 27 2 27 28
M  V30 28 1 28 29
M  V30 29 2 29 30
M  V30 30 1 30 31
M  V30 31 1 30 32
M  V30 32 2 32 33
M  V30 33 1 33 34
M  V30 34 2 34 35
M  V30 35 1 34 36
M  V30 36 1 36 37
M  V30 37 2 17 38
M  V30 38 1 9 39
M  V30 39 1 39 40
M  V30 40 1 40 6
M  V30 41 1 38 13
M  V30 42 1 24 19
M  V30 43 1 33 27
M  V30 44 1 36 22
M  V30 45 1 1 41
M  V30 46 1 1 42
M  V30 47 1 2 43
M  V30 48 1 5 44
M  V30 49 1 6 45
M  V30 50 1 7 46
M  V30 51 1 7 47
M  V30 52 1 8 48
M  V30 53 1 8 49
M  V30 54 1 14 50
M  V30 55 1 15 51
M  V30 56 1 16 52
M  V30 57 1 18 53
M  V30 58 1 21 54
M  V30 59 1 26 55
M  V30 60 1 26 56
M  V30 61 1 26 57
M  V30 62 1 28 58
M  V30 63 1 29 59
M  V30 64 1 31 60
M  V30 65 1 31 61
M  V30 66 1 31 62
M  V30 67 1 32 63
M  V30 68 1 37 64
M  V30 69 1 37 65
M  V30 70 1 37 66
M  V30 71 1 38 67
M  V30 72 1 39 68
M  V30 73 1 39 69
M  V30 74 1 40 70
M  V30 75 1 40 71
M  V30 END BOND
M  V30 END CTAB
M  END
>  <Dataset>  (573) 
ChEMBL_Kinases

>  <Ligand_Instance>  (573) 
nan

>  <PDB_ID>  (573) 
nan

>  <Standardized_SMILES>  (573) 
C=CC(=O)NC1CCN(S(=O)(=O)c2cccc(Nc3ncc4c(n3)N(C)c3ccc(C)cc3C(=O)N4C)c2)CC1

>  <Name>  (573) 
nan

>  <Pocket>  (573) 
nan

>  <ATP_Site>  (573) 
nan

>  <Peripheral>  (573) 
nan

>  <Num_H_Atoms_ProtBoundConf>  (573) 
nan

>  <Num_Resolved_Atoms>  (573) 
nan

>  <Num_Not_Resolved_Atoms>  (573) 
nan

$$$$
CHEMBL3891886
     RDKit          3D

  0  0  0  0  0  0  0  0  0  0999 V3000
M  V30 BEGIN CTAB
M  V30 COUNTS 69 72 0 0 0
M  V30 BEGIN ATOM
M  V30 1 O -0.114670 1.292830 3.041355 0
M  V30 2 C -0.382424 0.274351 3.725196 0
M  V30 3 N 0.471102 -0.742388 3.257327 0
M  V30 4 C 1.405914 -0.536149 2.174734 0
M  V30 5 C 2.748873 -0.216177 2.146025 0
M  V30 6 C 3.360579 -0.076229 0.931914 0
M  V30 7 C 2.665521 -0.248759 -0.245780 0
M  V30 8 C 1.332327 -0.567638 -0.309471 0
M  V30 9 C 0.524508 -0.766628 -1.472142 0
M  V30 10 C -0.009858 0.441755 -2.164979 0
M  V30 11 C -0.909050 1.350131 -1.441774 0
M  V30 12 N -0.214170 1.944491 -0.281852 0
M  V30 13 C -1.236392 2.817616 0.334999 0
M  V30 14 C -0.480757 3.932150 0.965938 0
M  V30 15 C 0.888863 3.946452 0.279557 0
M  V30 16 C 0.782477 2.904513 -0.790955 0
M  V30 17 N 1.184059 -1.573001 -2.532487 0
M  V30 18 C 0.860026 -2.407653 -3.632778 0
M  V30 19 N -0.086932 -2.717099 -2.725993 0
M  V30 20 C -1.083693 -3.615981 -2.923082 0
M  V30 21 N -1.624282 -4.539981 -2.208993 0
M  V30 22 C -1.133307 -4.747374 -0.878499 0
M  V30 23 C -0.079639 -5.340233 -1.322271 0
M  V30 24 C 0.710920 -5.826430 -2.410141 0
M  V30 25 C 0.365409 -5.694844 -3.814199 0
M  V30 26 C 0.373009 -4.502620 -4.575340 0
M  V30 27 C 0.535912 -3.250220 -4.682541 0
M  V30 28 C 0.722612 -0.704876 0.956006 0
M  V30 29 C -1.386608 0.149326 4.806658 0
M  V30 30 C -1.528427 -1.025827 5.427136 0
M  V30 31 F -0.940436 -2.176402 5.302146 0
M  V30 32 C -2.610569 -0.806879 6.379335 0
M  V30 33 C -3.326715 0.198259 6.646668 0
M  V30 34 C -3.171690 1.512153 5.926219 0
M  V30 35 C -2.014648 1.470862 4.989267 0
M  V30 36 F -2.369826 2.033317 3.763696 0
M  V30 37 H 0.454220 -1.685681 3.675804 0
M  V30 38 H 3.114664 -0.109441 3.150220 0
M  V30 39 H 4.388923 0.170772 1.009562 0
M  V30 40 H 3.182436 -0.129589 -1.192474 0
M  V30 41 H -0.416008 -1.368858 -1.172766 0
M  V30 42 H 0.898146 1.090679 -2.472670 0
M  V30 43 H -0.450721 0.183799 -3.166686 0
M  V30 44 H -1.845353 0.857031 -1.131981 0
M  V30 45 H -1.110344 2.223754 -2.131111 0
M  V30 46 H -1.812190 2.170153 1.002800 0
M  V30 47 H -1.885201 3.243440 -0.490448 0
M  V30 48 H -0.425833 3.784708 2.043351 0
M  V30 49 H -0.970174 4.935977 0.806439 0
M  V30 50 H 1.618725 3.682007 1.089148 0
M  V30 51 H 1.076865 4.948556 -0.168562 0
M  V30 52 H 0.428669 3.337159 -1.752563 0
M  V30 53 H 1.733642 2.348744 -0.919961 0
M  V30 54 H 2.223671 -1.735697 -2.864788 0
M  V30 55 H -1.834264 -3.929950 -3.650466 0
M  V30 56 H -1.506891 -4.500588 0.073903 0
M  V30 57 H 0.450174 -5.562732 -0.371065 0
M  V30 58 H 0.818721 -6.965316 -2.236507 0
M  V30 59 H 1.840120 -5.569044 -2.271239 0
M  V30 60 H 1.062920 -6.391904 -4.390511 0
M  V30 61 H -0.632590 -6.268858 -3.954903 0
M  V30 62 H 0.108135 -4.586681 -5.621786 0
M  V30 63 H 0.610967 -2.318738 -5.120077 0
M  V30 64 H -0.339643 -0.957741 0.939105 0
M  V30 65 H -2.965321 -1.608826 7.061848 0
M  V30 66 H -4.117830 0.476153 7.366787 0
M  V30 67 H -4.136958 1.774475 5.438515 0
M  V30 68 H -2.982506 2.333176 6.658809 0
M  V30 69 H -1.198353 2.138463 5.427696 0
M  V30 END ATOM
M  V30 BEGIN BOND
M  V30 1 2 1 2
M  V30 2 1 2 3
M  V30 3 1 3 4
M  V30 4 2 4 5
M  V30 5 1 5 6
M  V30 6 2 6 7
M  V30 7 1 7 8
M  V30 8 1 8 9
M  V30 9 1 9 10
M  V30 10 1 10 11
M  V30 11 1 11 12
M  V30 12 1 12 13
M  V30 13 1 13 14
M  V30 14 1 14 15
M  V30 15 1 15 16
M  V30 16 1 9 17
M  V30 17 1 17 18
M  V30 18 2 18 19
M  V30 19 1 19 20
M  V30 20 2 20 21
M  V30 21 1 21 22
M  V30 22 2 22 23
M  V30 23 1 23 24
M  V30 24 1 24 25
M  V30 25 1 25 26
M  V30 26 2 26 27
M  V30 27 2 8 28
M  V30 28 1 2 29
M  V30 29 2 29 30
M  V30 30 1 30 31
M  V30 31 1 30 32
M  V30 32 2 32 33
M  V30 33 1 33 34
M  V30 34 1 34 35
M  V30 35 1 35 36
M  V30 36 1 28 4
M  V30 37 1 35 29
M  V30 38 1 16 12
M  V30 39 1 27 18
M  V30 40 1 3 37
M  V30 41 1 5 38
M  V30 42 1 6 39
M  V30 43 1 7 40
M  V30 44 1 9 41
M  V30 45 1 10 42
M  V30 46 1 10 43
M  V30 47 1 11 44
M  V30 48 1 11 45
M  V30 49 1 13 46
M  V30 50 1 13 47
M  V30 51 1 14 48
M  V30 52 1 14 49
M  V30 53 1 15 50
M  V30 54 1 15 51
M  V30 55 1 16 52
M  V30 56 1 16 53
M  V30 57 1 17 54
M  V30 58 1 20 55
M  V30 59 1 22 56
M  V30 60 1 23 57
M  V30 61 1 24 58
M  V30 62 1 24 59
M  V30 63 1 25 60
M  V30 64 1 25 61
M  V30 65 1 26 62
M  V30 66 1 27 63
M  V30 67 1 28 64
M  V30 68 1 32 65
M  V30 69 1 33 66
M  V30 70 1 34 67
M  V30 71 1 34 68
M  V30 72 1 35 69
M  V30 END BOND
M  V30 END CTAB
M  END
>  <Dataset>  (574) 
ChEMBL_Kinases

>  <Ligand_Instance>  (574) 
nan

>  <PDB_ID>  (574) 
nan

>  <Standardized_SMILES>  (574) 
O=C(Nc1cccc(C(CCN2CCCC2)NC2=N/C=N\C=C/CC/C=C\2)c1)C1=C(F)C=CCC1F

>  <Name>  (574) 
nan

>  <Pocket>  (574) 
nan

>  <ATP_Site>  (574) 
nan

>  <Peripheral>  (574) 
nan

>  <Num_H_Atoms_ProtBoundConf>  (574) 
nan

>  <Num_Resolved_Atoms>  (574) 
nan

>  <Num_Not_Resolved_Atoms>  (574) 
nan

$$$$
CHEMBL3893914
     RDKit          3D

  0  0  0  0  0  0  0  0  0  0999 V3000
M  V30 BEGIN CTAB
M  V30 COUNTS 48 50 0 0 0
M  V30 BEGIN ATOM
M  V30 1 C 0.550926 -7.526925 1.506751 0
M  V30 2 C 0.814943 -6.311892 0.681447 0
M  V30 3 C -0.318882 -5.620890 0.329650 0
M  V30 4 C -0.126197 -4.491846 -0.432647 0
M  V30 5 C 1.086212 -4.006881 -0.863122 0
M  V30 6 O 1.615543 -3.031101 -1.553119 0
M  V30 7 C 1.437718 -1.912314 -2.263589 0
M  V30 8 C 0.836171 -0.698429 -1.646440 0
M  V30 9 N -0.498991 -0.852447 -1.138316 0
M  V30 10 C -0.976520 0.363290 -0.520936 0
M  V30 11 N -0.284802 1.513556 -0.416265 0
M  V30 12 C -0.728936 2.635201 0.155536 0
M  V30 13 N 0.188458 3.739970 0.150684 0
M  V30 14 C 0.922621 3.543050 1.379234 0
M  V30 15 C 0.718176 3.981019 2.669005 0
M  V30 16 C 1.729265 3.500362 3.468685 0
M  V30 17 C 1.919455 3.711512 4.908251 0
M  V30 18 N 2.542199 2.777061 2.676902 0
M  V30 19 N 2.054147 2.807407 1.431984 0
M  V30 20 C -1.989970 2.695819 0.705822 0
M  V30 21 C -2.770612 1.562894 0.644453 0
M  V30 22 C -4.142111 1.550509 1.216401 0
M  V30 23 C -2.241005 0.460957 0.043571 0
M  V30 24 C -3.090449 -0.715199 -0.002415 0
M  V30 25 N -3.772168 -1.652115 -0.051935 0
M  V30 26 C 2.187292 -4.792095 -0.446441 0
M  V30 27 N 2.069413 -5.927620 0.313024 0
M  V30 28 H 1.436706 -8.201433 1.355320 0
M  V30 29 H -0.390346 -8.014739 1.248043 0
M  V30 30 H 0.525275 -7.239553 2.574064 0
M  V30 31 H -1.330384 -5.870871 0.587419 0
M  V30 32 H -0.915323 -3.870350 -0.781180 0
M  V30 33 H 0.878530 -2.064855 -3.248236 0
M  V30 34 H 2.473830 -1.563828 -2.619634 0
M  V30 35 H 0.789705 0.078949 -2.462690 0
M  V30 36 H 1.518728 -0.233807 -0.892907 0
M  V30 37 H -1.201815 -1.615189 -1.112218 0
M  V30 38 H 0.395475 4.547475 -0.487167 0
M  V30 39 H -0.115676 4.594488 2.933651 0
M  V30 40 H 1.499726 4.673450 5.204320 0
M  V30 41 H 1.520395 2.855775 5.508180 0
M  V30 42 H 3.023193 3.706726 5.120439 0
M  V30 43 H 3.403908 2.284082 3.002840 0
M  V30 44 H -2.325467 3.615301 1.162618 0
M  V30 45 H -4.349965 2.473122 1.795044 0
M  V30 46 H -4.231535 0.645194 1.885288 0
M  V30 47 H -4.866680 1.425455 0.385366 0
M  V30 48 H 3.273850 -4.695457 -0.610009 0
M  V30 END ATOM
M  V30 BEGIN BOND
M  V30 1 1 1 2
M  V30 2 2 2 3
M  V30 3 1 3 4
M  V30 4 2 4 5
M  V30 5 1 5 6
M  V30 6 1 6 7
M  V30 7 1 7 8
M  V30 8 1 8 9
M  V30 9 1 9 10
M  V30 10 2 10 11
M  V30 11 1 11 12
M  V30 12 1 12 13
M  V30 13 1 13 14
M  V30 14 1 14 15
M  V30 15 2 15 16
M  V30 16 1 16 17
M  V30 17 1 16 18
M  V30 18 1 18 19
M  V30 19 2 12 20
M  V30 20 1 20 21
M  V30 21 1 21 22
M  V30 22 2 21 23
M  V30 23 1 23 24
M  V30 24 3 24 25
M  V30 25 1 5 26
M  V30 26 2 26 27
M  V30 27 1 27 2
M  V30 28 1 23 10
M  V30 29 2 19 14
M  V30 30 1 1 28
M  V30 31 1 1 29
M  V30 32 1 1 30
M  V30 33 1 3 31
M  V30 34 1 4 32
M  V30 35 1 7 33
M  V30 36 1 7 34
M  V30 37 1 8 35
M  V30 38 1 8 36
M  V30 39 1 9 37
M  V30 40 1 13 38
M  V30 41 1 15 39
M  V30 42 1 17 40
M  V30 43 1 17 41
M  V30 44 1 17 42
M  V30 45 1 18 43
M  V30 46 1 20 44
M  V30 47 1 22 45
M  V30 48 1 22 46
M  V30 49 1 22 47
M  V30 50 1 26 48
M  V30 END BOND
M  V30 END CTAB
M  END
>  <Dataset>  (575) 
ChEMBL_Kinases

>  <Ligand_Instance>  (575) 
nan

>  <PDB_ID>  (575) 
nan

>  <Standardized_SMILES>  (575) 
Cc1ccc(OCCNc2nc(Nc3cc(C)[nH]n3)cc(C)c2C#N)cn1

>  <Name>  (575) 
nan

>  <Pocket>  (575) 
nan

>  <ATP_Site>  (575) 
nan

>  <Peripheral>  (575) 
nan

>  <Num_H_Atoms_ProtBoundConf>  (575) 
nan

>  <Num_Resolved_Atoms>  (575) 
nan

>  <Num_Not_Resolved_Atoms>  (575) 
nan

$$$$
CHEMBL3894492
     RDKit          3D

  0  0  0  0  0  0  0  0  0  0999 V3000
M  V30 BEGIN CTAB
M  V30 COUNTS 55 58 0 0 0
M  V30 BEGIN ATOM
M  V30 1 C 2.325349 1.524521 6.294724 0
M  V30 2 O 2.739922 0.466570 5.453999 0
M  V30 3 C 2.861032 0.712936 4.095327 0
M  V30 4 C 3.274354 -0.388832 3.351757 0
M  V30 5 C 3.432422 -0.262830 1.970325 0
M  V30 6 C 3.178581 0.957334 1.337698 0
M  V30 7 S 3.421687 0.960083 -0.399190 0
M  V30 8 O 4.564397 0.042841 -0.739653 0
M  V30 9 O 3.776564 2.370661 -0.799983 0
M  V30 10 N 1.995164 0.529981 -1.263337 0
M  V30 11 C 0.833202 1.340561 -1.143747 0
M  V30 12 C 0.730507 2.715641 -1.186439 0
M  V30 13 C -0.498704 3.327091 -1.050275 0
M  V30 14 C -1.627292 2.555178 -0.870818 0
M  V30 15 N -2.907113 2.975171 -0.720516 0
M  V30 16 N -3.657933 1.882528 -0.577759 0
M  V30 17 C -2.862364 0.782148 -0.636946 0
M  V30 18 C -3.298414 -0.598612 -0.524364 0
M  V30 19 C -4.197811 -0.804779 0.509655 0
M  V30 20 C -4.734282 -2.052865 0.783988 0
M  V30 21 C -4.342298 -3.106590 -0.014736 0
M  V30 22 C -3.455085 -2.912352 -1.037475 0
M  V30 23 N -2.969889 -3.929739 -1.939155 0
M  V30 24 C -1.792009 -4.540091 -1.423841 0
M  V30 25 O -1.486116 -4.030844 -0.318547 0
M  V30 26 C -1.100157 -5.595286 -2.134781 0
M  V30 27 C -0.008249 -6.202433 -1.716687 0
M  V30 28 C 0.571717 -5.815677 -0.462736 0
M  V30 29 O 1.630484 -6.393148 -0.039735 0
M  V30 30 O 1.037882 -5.360889 0.754477 0
M  V30 31 C -2.923060 -1.663960 -1.306289 0
M  V30 32 C -1.554424 1.177962 -0.824150 0
M  V30 33 C -0.323142 0.570380 -0.960720 0
M  V30 34 C 2.770625 2.035131 2.090911 0
M  V30 35 C 2.616133 1.907325 3.450337 0
M  V30 36 H 1.346620 1.907127 5.949859 0
M  V30 37 H 2.283285 1.143060 7.345318 0
M  V30 38 H 3.066796 2.364265 6.295799 0
M  V30 39 H 3.489726 -1.370918 3.781825 0
M  V30 40 H 3.760401 -1.148350 1.402396 0
M  V30 41 H 1.995486 -0.330036 -1.873315 0
M  V30 42 H 1.666053 3.218447 -1.329725 0
M  V30 43 H -0.464577 4.413854 -1.099112 0
M  V30 44 H -3.268186 3.966050 -0.713650 0
M  V30 45 H -4.556007 -0.024949 1.183771 0
M  V30 46 H -5.430587 -2.270987 1.566704 0
M  V30 47 H -4.665699 -4.141587 0.064618 0
M  V30 48 H -3.384213 -4.227324 -2.865502 0
M  V30 49 H -1.506400 -5.912721 -3.080824 0
M  V30 50 H 0.471505 -6.985518 -2.282015 0
M  V30 51 H 0.793164 -4.432764 1.135961 0
M  V30 52 H -2.219533 -1.434159 -2.094564 0
M  V30 53 H -0.345269 -0.514321 -0.913368 0
M  V30 54 H 2.589617 2.940923 1.568509 0
M  V30 55 H 2.301225 2.723856 4.063240 0
M  V30 END ATOM
M  V30 BEGIN BOND
M  V30 1 1 1 2
M  V30 2 1 2 3
M  V30 3 2 3 4
M  V30 4 1 4 5
M  V30 5 2 5 6
M  V30 6 1 6 7
M  V30 7 2 7 8
M  V30 8 2 7 9
M  V30 9 1 7 10
M  V30 10 1 10 11
M  V30 11 2 11 12
M  V30 12 1 12 13
M  V30 13 2 13 14
M  V30 14 1 14 15
M  V30 15 1 15 16
M  V30 16 2 16 17
M  V30 17 1 17 18
M  V30 18 2 18 19
M  V30 19 1 19 20
M  V30 20 2 20 21
M  V30 21 1 21 22
M  V30 22 1 22 23
M  V30 23 1 23 24
M  V30 24 2 24 25
M  V30 25 1 24 26
M  V30 26 2 26 27
M  V30 27 1 27 28
M  V30 28 2 28 29
M  V30 29 1 28 30
M  V30 30 2 22 31
M  V30 31 1 17 32
M  V30 32 2 32 33
M  V30 33 1 6 34
M  V30 34 2 34 35
M  V30 35 1 35 3
M  V30 36 1 33 11
M  V30 37 1 32 14
M  V30 38 1 31 18
M  V30 39 1 1 36
M  V30 40 1 1 37
M  V30 41 1 1 38
M  V30 42 1 4 39
M  V30 43 1 5 40
M  V30 44 1 10 41
M  V30 45 1 12 42
M  V30 46 1 13 43
M  V30 47 1 15 44
M  V30 48 1 19 45
M  V30 49 1 20 46
M  V30 50 1 21 47
M  V30 51 1 23 48
M  V30 52 1 26 49
M  V30 53 1 27 50
M  V30 54 1 30 51
M  V30 55 1 31 52
M  V30 56 1 33 53
M  V30 57 1 34 54
M  V30 58 1 35 55
M  V30 END BOND
M  V30 END CTAB
M  END
>  <Dataset>  (576) 
ChEMBL_Kinases

>  <Ligand_Instance>  (576) 
nan

>  <PDB_ID>  (576) 
nan

>  <Standardized_SMILES>  (576) 
COc1ccc(S(=O)(=O)Nc2ccc3[nH]nc(-c4cccc(NC(=O)/C=C\C(=O)O)c4)c3c2)cc1

>  <Name>  (576) 
nan

>  <Pocket>  (576) 
nan

>  <ATP_Site>  (576) 
nan

>  <Peripheral>  (576) 
nan

>  <Num_H_Atoms_ProtBoundConf>  (576) 
nan

>  <Num_Resolved_Atoms>  (576) 
nan

>  <Num_Not_Resolved_Atoms>  (576) 
nan

$$$$
CHEMBL3894999
     RDKit          3D

  0  0  0  0  0  0  0  0  0  0999 V3000
M  V30 BEGIN CTAB
M  V30 COUNTS 35 38 0 0 0
M  V30 BEGIN ATOM
M  V30 1 C 2.408558 -1.256848 2.624125 0
M  V30 2 N 2.354843 -2.232683 1.754896 0
M  V30 3 N 2.527252 -3.583073 2.130443 0
M  V30 4 C 3.096343 -4.319299 3.099669 0
M  V30 5 C 2.868550 -5.655589 2.830168 0
M  V30 6 C 2.130253 -5.725547 1.647075 0
M  V30 7 C 1.927955 -4.407568 1.225871 0
M  V30 8 C 2.194750 0.023480 1.946337 0
M  V30 9 N 2.940846 1.135819 1.804885 0
M  V30 10 N 2.302931 2.037318 1.093655 0
M  V30 11 C 1.087194 1.597621 0.707452 0
M  V30 12 C 0.031369 2.105161 -0.027358 0
M  V30 13 C -1.123016 1.345000 -0.240039 0
M  V30 14 C -2.254037 1.846412 -1.007907 0
M  V30 15 C -3.043734 0.951169 -1.737917 0
M  V30 16 C -4.121887 1.360334 -2.480390 0
M  V30 17 N -4.470753 2.676148 -2.536283 0
M  V30 18 C -3.719206 3.558197 -1.837013 0
M  V30 19 C -2.633909 3.181515 -1.084112 0
M  V30 20 C -1.204126 0.073599 0.292068 0
M  V30 21 C -0.117888 -0.413052 1.032068 0
M  V30 22 C 1.034149 0.327291 1.252514 0
M  V30 23 H 2.586228 -1.466756 3.648329 0
M  V30 24 H 3.589149 -3.739661 3.850423 0
M  V30 25 H 3.263455 -6.389538 3.518976 0
M  V30 26 H 1.898047 -6.737572 1.346547 0
M  V30 27 H 1.359962 -4.351977 0.308030 0
M  V30 28 H 2.687511 2.990482 0.849852 0
M  V30 29 H 0.104735 3.098139 -0.438209 0
M  V30 30 H -2.757192 -0.086403 -1.685444 0
M  V30 31 H -4.730467 0.662750 -3.044191 0
M  V30 32 H -4.022947 4.611107 -1.900224 0
M  V30 33 H -2.039500 3.899656 -0.528059 0
M  V30 34 H -2.049471 -0.556946 0.169602 0
M  V30 35 H -0.211784 -1.430142 1.443450 0
M  V30 END ATOM
M  V30 BEGIN BOND
M  V30 1 2 1 2
M  V30 2 1 2 3
M  V30 3 1 3 4
M  V30 4 2 4 5
M  V30 5 1 5 6
M  V30 6 2 6 7
M  V30 7 1 1 8
M  V30 8 2 8 9
M  V30 9 1 9 10
M  V30 10 1 10 11
M  V30 11 2 11 12
M  V30 12 1 12 13
M  V30 13 1 13 14
M  V30 14 2 14 15
M  V30 15 1 15 16
M  V30 16 2 16 17
M  V30 17 1 17 18
M  V30 18 2 18 19
M  V30 19 2 13 20
M  V30 20 1 20 21
M  V30 21 2 21 22
M  V30 22 1 7 3
M  V30 23 1 22 8
M  V30 24 1 22 11
M  V30 25 1 19 14
M  V30 26 1 1 23
M  V30 27 1 4 24
M  V30 28 1 5 25
M  V30 29 1 6 26
M  V30 30 1 7 27
M  V30 31 1 10 28
M  V30 32 1 12 29
M  V30 33 1 15 30
M  V30 34 1 16 31
M  V30 35 1 18 32
M  V30 36 1 19 33
M  V30 37 1 20 34
M  V30 38 1 21 35
M  V30 END BOND
M  V30 END CTAB
M  END
>  <Dataset>  (577) 
ChEMBL_Kinases

>  <Ligand_Instance>  (577) 
nan

>  <PDB_ID>  (577) 
nan

>  <Standardized_SMILES>  (577) 
C(=N/n1cccc1)\c1n[nH]c2cc(-c3ccncc3)ccc12

>  <Name>  (577) 
nan

>  <Pocket>  (577) 
nan

>  <ATP_Site>  (577) 
nan

>  <Peripheral>  (577) 
nan

>  <Num_H_Atoms_ProtBoundConf>  (577) 
nan

>  <Num_Resolved_Atoms>  (577) 
nan

>  <Num_Not_Resolved_Atoms>  (577) 
nan

$$$$
CHEMBL3896124
     RDKit          3D

  0  0  0  0  0  0  0  0  0  0999 V3000
M  V30 BEGIN CTAB
M  V30 COUNTS 50 54 0 0 0
M  V30 BEGIN ATOM
M  V30 1 C -1.119427 -4.828659 -0.634101 0
M  V30 2 C -0.156708 -3.692487 -0.515053 0
M  V30 3 N 1.089645 -3.954105 -1.010752 0
M  V30 4 C 1.993699 -2.976786 -0.929292 0
M  V30 5 C 3.234887 -3.282556 -1.441367 0
M  V30 6 C 4.241678 -2.342391 -1.407759 0
M  V30 7 C 3.982576 -1.106076 -0.857741 0
M  V30 8 C 2.753070 -0.736865 -0.325318 0
M  V30 9 C 2.525881 0.582240 0.245694 0
M  V30 10 C 3.508575 1.553603 0.292548 0
M  V30 11 C 2.989614 2.682404 0.885811 0
M  V30 12 C 1.676947 2.411466 1.209643 0
M  V30 13 N 1.468985 1.148845 0.801844 0
M  V30 14 C 1.082595 3.601415 1.851235 0
M  V30 15 C -0.328775 3.925053 1.639166 0
M  V30 16 C 0.145550 3.401981 2.981034 0
M  V30 17 N 2.113689 4.588228 1.884561 0
M  V30 18 C 3.292650 4.047667 1.299655 0
M  V30 19 O 4.417137 4.594527 1.140454 0
M  V30 20 C 1.806987 -1.730692 -0.398773 0
M  V30 21 N 0.588481 -1.500227 0.076286 0
M  V30 22 C -0.363273 -2.438810 0.024340 0
M  V30 23 N -1.723864 -2.351468 0.483183 0
M  V30 24 C -3.049510 -2.262619 0.931668 0
M  V30 25 C -3.887138 -1.122082 0.342892 0
M  V30 26 C -3.087022 -2.079525 2.452181 0
M  V30 27 C -3.876316 -3.511188 0.579044 0
M  V30 28 H -1.886490 -4.610431 -1.397043 0
M  V30 29 H -0.593205 -5.745562 -1.039004 0
M  V30 30 H -1.508528 -5.148612 0.333193 0
M  V30 31 H 3.490501 -4.243867 -1.886427 0
M  V30 32 H 5.222687 -2.565334 -1.804615 0
M  V30 33 H 4.802488 -0.399047 -0.852393 0
M  V30 34 H 4.527045 1.472995 -0.068246 0
M  V30 35 H 0.544069 0.695837 0.930598 0
M  V30 36 H -0.603131 4.999982 1.665790 0
M  V30 37 H -0.976854 3.263971 1.011959 0
M  V30 38 H -0.150042 2.351775 3.177230 0
M  V30 39 H 0.224593 4.080208 3.846065 0
M  V30 40 H 2.038361 5.542153 2.265144 0
M  V30 41 H -1.666547 -1.339810 0.836554 0
M  V30 42 H -3.214303 -0.302365 0.020380 0
M  V30 43 H -4.479475 -1.444320 -0.526440 0
M  V30 44 H -4.606838 -0.723279 1.092022 0
M  V30 45 H -4.105651 -2.195530 2.859200 0
M  V30 46 H -2.325173 -2.713783 2.948951 0
M  V30 47 H -2.818098 -0.992640 2.605020 0
M  V30 48 H -3.595589 -4.395916 1.130062 0
M  V30 49 H -3.831293 -3.610827 -0.511026 0
M  V30 50 H -4.907619 -3.237927 0.931209 0
M  V30 END ATOM
M  V30 BEGIN BOND
M  V30 1 1 1 2
M  V30 2 2 2 3
M  V30 3 1 3 4
M  V30 4 2 4 5
M  V30 5 1 5 6
M  V30 6 2 6 7
M  V30 7 1 7 8
M  V30 8 1 8 9
M  V30 9 2 9 10
M  V30 10 1 10 11
M  V30 11 2 11 12
M  V30 12 1 12 13
M  V30 13 1 12 14
M  V30 14 1 14 15
M  V30 15 1 15 16
M  V30 16 1 14 17
M  V30 17 1 17 18
M  V30 18 2 18 19
M  V30 19 2 8 20
M  V30 20 1 20 21
M  V30 21 2 21 22
M  V30 22 1 22 23
M  V30 23 1 23 24
M  V30 24 1 24 25
M  V30 25 1 24 26
M  V30 26 1 24 27
M  V30 27 1 22 2
M  V30 28 1 20 4
M  V30 29 1 13 9
M  V30 30 1 16 14
M  V30 31 1 18 11
M  V30 32 1 1 28
M  V30 33 1 1 29
M  V30 34 1 1 30
M  V30 35 1 5 31
M  V30 36 1 6 32
M  V30 37 1 7 33
M  V30 38 1 10 34
M  V30 39 1 13 35
M  V30 40 1 15 36
M  V30 41 1 15 37
M  V30 42 1 16 38
M  V30 43 1 16 39
M  V30 44 1 17 40
M  V30 45 1 23 41
M  V30 46 1 25 42
M  V30 47 1 25 43
M  V30 48 1 25 44
M  V30 49 1 26 45
M  V30 50 1 26 46
M  V30 51 1 26 47
M  V30 52 1 27 48
M  V30 53 1 27 49
M  V30 54 1 27 50
M  V30 END BOND
M  V30 END CTAB
M  END
>  <Dataset>  (578) 
ChEMBL_Kinases

>  <Ligand_Instance>  (578) 
nan

>  <PDB_ID>  (578) 
nan

>  <Standardized_SMILES>  (578) 
Cc1nc2cccc(-c3cc4c([nH]3)C3(CC3)NC4=O)c2nc1NC(C)(C)C

>  <Name>  (578) 
nan

>  <Pocket>  (578) 
nan

>  <ATP_Site>  (578) 
nan

>  <Peripheral>  (578) 
nan

>  <Num_H_Atoms_ProtBoundConf>  (578) 
nan

>  <Num_Resolved_Atoms>  (578) 
nan

>  <Num_Not_Resolved_Atoms>  (578) 
nan

$$$$
CHEMBL3896195
     RDKit          3D

  0  0  0  0  0  0  0  0  0  0999 V3000
M  V30 BEGIN CTAB
M  V30 COUNTS 47 50 0 0 0
M  V30 BEGIN ATOM
M  V30 1 C -0.737910 -3.525135 4.390702 0
M  V30 2 C 0.092256 -2.558651 3.585819 0
M  V30 3 N 1.346792 -2.329315 3.997853 0
M  V30 4 C 2.077940 -1.466735 3.273087 0
M  V30 5 C 3.372674 -1.286767 3.773610 0
M  V30 6 C 4.186843 -0.400493 3.065036 0
M  V30 7 C 3.681915 0.233490 1.937749 0
M  V30 8 F 4.600523 1.041342 1.392505 0
M  V30 9 C 2.400630 0.035349 1.468943 0
M  V30 10 C 1.957663 0.743184 0.279149 0
M  V30 11 C 0.748598 0.712768 -0.373701 0
M  V30 12 C 0.724372 1.538074 -1.479508 0
M  V30 13 C -0.226092 1.848029 -2.434433 0
M  V30 14 O -1.363427 1.315010 -2.381187 0
M  V30 15 N 0.030656 2.710737 -3.428665 0
M  V30 16 C 1.247068 3.281849 -3.486983 0
M  V30 17 C 2.219296 2.995939 -2.551392 0
M  V30 18 C 1.999351 2.108700 -1.503609 0
M  V30 19 N 2.673947 1.608915 -0.455659 0
M  V30 20 C 1.569839 -0.833092 2.144468 0
M  V30 21 N 0.329202 -1.092752 1.780536 0
M  V30 22 C -0.453302 -1.941553 2.457798 0
M  V30 23 N -1.796631 -2.278105 2.137780 0
M  V30 24 C -2.560639 -1.770042 1.029902 0
M  V30 25 C -1.849747 -2.138498 -0.257425 0
M  V30 26 C -2.697624 -0.247088 1.069342 0
M  V30 27 C -3.977530 -2.351734 0.996217 0
M  V30 28 H -0.109249 -4.059640 5.120209 0
M  V30 29 H -1.586882 -3.019107 4.862659 0
M  V30 30 H -1.147214 -4.305102 3.696643 0
M  V30 31 H 3.730649 -1.798788 4.655607 0
M  V30 32 H 5.180493 -0.270277 3.459629 0
M  V30 33 H -0.110323 0.147728 -0.118738 0
M  V30 34 H -0.722068 2.906667 -4.119386 0
M  V30 35 H 1.488456 3.983254 -4.276609 0
M  V30 36 H 3.187445 3.458765 -2.608755 0
M  V30 37 H 3.636280 1.959828 -0.368246 0
M  V30 38 H -2.319736 -2.949189 2.728355 0
M  V30 39 H -0.794001 -2.291873 -0.031879 0
M  V30 40 H -2.022700 -1.324429 -0.991618 0
M  V30 41 H -2.349409 -3.047433 -0.654438 0
M  V30 42 H -1.791719 0.123700 1.594279 0
M  V30 43 H -3.636718 -0.017580 1.621210 0
M  V30 44 H -2.700487 0.152191 0.050044 0
M  V30 45 H -4.255424 -2.638023 -0.035957 0
M  V30 46 H -3.986289 -3.259187 1.642592 0
M  V30 47 H -4.697680 -1.649204 1.468061 0
M  V30 END ATOM
M  V30 BEGIN BOND
M  V30 1 1 1 2
M  V30 2 2 2 3
M  V30 3 1 3 4
M  V30 4 2 4 5
M  V30 5 1 5 6
M  V30 6 2 6 7
M  V30 7 1 7 8
M  V30 8 1 7 9
M  V30 9 1 9 10
M  V30 10 2 10 11
M  V30 11 1 11 12
M  V30 12 1 12 13
M  V30 13 2 13 14
M  V30 14 1 13 15
M  V30 15 1 15 16
M  V30 16 2 16 17
M  V30 17 1 17 18
M  V30 18 1 18 19
M  V30 19 2 9 20
M  V30 20 1 20 21
M  V30 21 2 21 22
M  V30 22 1 22 23
M  V30 23 1 23 24
M  V30 24 1 24 25
M  V30 25 1 24 26
M  V30 26 1 24 27
M  V30 27 1 22 2
M  V30 28 1 20 4
M  V30 29 1 19 10
M  V30 30 2 18 12
M  V30 31 1 1 28
M  V30 32 1 1 29
M  V30 33 1 1 30
M  V30 34 1 5 31
M  V30 35 1 6 32
M  V30 36 1 11 33
M  V30 37 1 15 34
M  V30 38 1 16 35
M  V30 39 1 17 36
M  V30 40 1 19 37
M  V30 41 1 23 38
M  V30 42 1 25 39
M  V30 43 1 25 40
M  V30 44 1 25 41
M  V30 45 1 26 42
M  V30 46 1 26 43
M  V30 47 1 26 44
M  V30 48 1 27 45
M  V30 49 1 27 46
M  V30 50 1 27 47
M  V30 END BOND
M  V30 END CTAB
M  END
>  <Dataset>  (579) 
ChEMBL_Kinases

>  <Ligand_Instance>  (579) 
nan

>  <PDB_ID>  (579) 
nan

>  <Standardized_SMILES>  (579) 
Cc1nc2ccc(F)c(-c3cc4c(=O)[nH]ccc4[nH]3)c2nc1NC(C)(C)C

>  <Name>  (579) 
nan

>  <Pocket>  (579) 
nan

>  <ATP_Site>  (579) 
nan

>  <Peripheral>  (579) 
nan

>  <Num_H_Atoms_ProtBoundConf>  (579) 
nan

>  <Num_Resolved_Atoms>  (579) 
nan

>  <Num_Not_Resolved_Atoms>  (579) 
nan

$$$$
CHEMBL3632824
     RDKit          3D

  0  0  0  0  0  0  0  0  0  0999 V3000
M  V30 BEGIN CTAB
M  V30 COUNTS 51 55 0 0 0
M  V30 BEGIN ATOM
M  V30 1 N 0.865023 -0.247405 2.274877 0
M  V30 2 C 1.991875 -0.066466 3.104391 0
M  V30 3 O 1.468320 -0.524146 4.138724 0
M  V30 4 C 3.357835 0.424630 3.081817 0
M  V30 5 C 3.985718 0.363304 4.302663 0
M  V30 6 C 5.281208 0.833591 4.385949 0
M  V30 7 F 5.962097 0.806439 5.550760 0
M  V30 8 C 5.884233 1.339694 3.251905 0
M  V30 9 C 5.208972 1.376512 2.054881 0
M  V30 10 C 3.915277 0.917569 1.925933 0
M  V30 11 C 3.244182 0.946161 0.636976 0
M  V30 12 C 3.268183 2.240444 0.115157 0
M  V30 13 C 2.691048 2.517751 -1.130538 0
M  V30 14 C 2.091564 1.494164 -1.848425 0
M  V30 15 C 1.479345 1.827915 -3.177667 0
M  V30 16 S -0.250558 2.285922 -3.022601 0
M  V30 17 C -1.272013 0.928183 -2.494167 0
M  V30 18 N -1.795256 0.162157 -3.489021 0
M  V30 19 N -2.519023 -0.787379 -2.886139 0
M  V30 20 C -2.448856 -0.618934 -1.569545 0
M  V30 21 C -3.082788 -1.422755 -0.531235 0
M  V30 22 C -2.907399 -1.114387 0.801227 0
M  V30 23 C -3.509984 -1.877916 1.808539 0
M  V30 24 C -4.304483 -2.972854 1.470731 0
M  V30 25 C -4.477472 -3.278343 0.130452 0
M  V30 26 C -3.869293 -2.505259 -0.839175 0
M  V30 27 O -5.273358 -4.369731 -0.110531 0
M  V30 28 C -5.584317 -5.395665 0.784427 0
M  V30 29 C -5.128217 -5.137940 2.183001 0
M  V30 30 O -4.914735 -3.749665 2.424202 0
M  V30 31 O -1.687401 0.427454 -1.353287 0
M  V30 32 C 2.079672 0.232435 -1.318305 0
M  V30 33 C 2.643102 -0.051455 -0.096977 0
M  V30 34 H 0.492541 -1.111866 1.854820 0
M  V30 35 H 0.314295 0.621260 2.042848 0
M  V30 36 H 3.539124 -0.026765 5.205321 0
M  V30 37 H 6.898646 1.704647 3.332322 0
M  V30 38 H 5.726242 1.782815 1.196168 0
M  V30 39 H 3.703025 3.133762 0.569152 0
M  V30 40 H 2.689691 3.514748 -1.570951 0
M  V30 41 H 2.059174 2.666104 -3.606541 0
M  V30 42 H 1.583681 0.931493 -3.821500 0
M  V30 43 H -2.299711 -0.277847 1.040452 0
M  V30 44 H -3.349442 -1.605937 2.840544 0
M  V30 45 H -4.040100 -2.792071 -1.884291 0
M  V30 46 H -6.682140 -5.606015 0.801411 0
M  V30 47 H -5.074211 -6.317909 0.410410 0
M  V30 48 H -5.863374 -5.550024 2.903518 0
M  V30 49 H -4.146450 -5.618434 2.336165 0
M  V30 50 H 1.618834 -0.578681 -1.859688 0
M  V30 51 H 2.685376 -1.000011 0.375501 0
M  V30 END ATOM
M  V30 BEGIN BOND
M  V30 1 1 1 2
M  V30 2 2 2 3
M  V30 3 1 2 4
M  V30 4 2 4 5
M  V30 5 1 5 6
M  V30 6 1 6 7
M  V30 7 2 6 8
M  V30 8 1 8 9
M  V30 9 2 9 10
M  V30 10 1 10 11
M  V30 11 2 11 12
M  V30 12 1 12 13
M  V30 13 2 13 14
M  V30 14 1 14 15
M  V30 15 1 15 16
M  V30 16 1 16 17
M  V30 17 2 17 18
M  V30 18 1 18 19
M  V30 19 2 19 20
M  V30 20 1 20 21
M  V30 21 2 21 22
M  V30 22 1 22 23
M  V30 23 2 23 24
M  V30 24 1 24 25
M  V30 25 2 25 26
M  V30 26 1 25 27
M  V30 27 1 27 28
M  V30 28 1 28 29
M  V30 29 1 29 30
M  V30 30 1 20 31
M  V30 31 1 14 32
M  V30 32 2 32 33
M  V30 33 1 10 4
M  V30 34 1 33 11
M  V30 35 1 31 17
M  V30 36 1 26 21
M  V30 37 1 30 24
M  V30 38 1 1 34
M  V30 39 1 1 35
M  V30 40 1 5 36
M  V30 41 1 8 37
M  V30 42 1 9 38
M  V30 43 1 12 39
M  V30 44 1 13 40
M  V30 45 1 15 41
M  V30 46 1 15 42
M  V30 47 1 22 43
M  V30 48 1 23 44
M  V30 49 1 26 45
M  V30 50 1 28 46
M  V30 51 1 28 47
M  V30 52 1 29 48
M  V30 53 1 29 49
M  V30 54 1 32 50
M  V30 55 1 33 51
M  V30 END BOND
M  V30 END CTAB
M  END
>  <Dataset>  (580) 
ChEMBL_Kinases

>  <Ligand_Instance>  (580) 
nan

>  <PDB_ID>  (580) 
nan

>  <Standardized_SMILES>  (580) 
NC(=O)c1cc(F)ccc1-c1ccc(CSc2nnc(-c3ccc4c(c3)OCCO4)o2)cc1

>  <Name>  (580) 
nan

>  <Pocket>  (580) 
nan

>  <ATP_Site>  (580) 
nan

>  <Peripheral>  (580) 
nan

>  <Num_H_Atoms_ProtBoundConf>  (580) 
nan

>  <Num_Resolved_Atoms>  (580) 
nan

>  <Num_Not_Resolved_Atoms>  (580) 
nan

$$$$
CHEMBL3897323
     RDKit          3D

  0  0  0  0  0  0  0  0  0  0999 V3000
M  V30 BEGIN CTAB
M  V30 COUNTS 55 59 0 0 0
M  V30 BEGIN ATOM
M  V30 1 C 0.880767 0.019485 3.793831 0
M  V30 2 C 1.853458 0.380129 2.726023 0 CFG=1
M  V30 3 C 3.312865 0.204749 3.135144 0
M  V30 4 C 4.146426 -0.049324 1.921486 0 CFG=2
M  V30 5 N 5.449450 0.589127 2.189461 0
M  V30 6 C 3.658115 0.543924 0.648850 0
M  V30 7 N 2.216017 0.338594 0.410556 0
M  V30 8 C 1.721586 0.904342 -0.765079 0
M  V30 9 C 2.568567 1.211481 -1.811464 0
M  V30 10 C 2.199073 1.704176 -3.038980 0
M  V30 11 N 0.884817 1.913711 -3.261711 0
M  V30 12 C 0.007109 1.641971 -2.298068 0
M  V30 13 C 0.409407 1.153281 -1.083549 0
M  V30 14 N -0.595034 0.977790 -0.081270 0
M  V30 15 C -1.968563 1.090053 -0.490542 0
M  V30 16 N -2.667461 2.172239 -0.865798 0
M  V30 17 C -3.925014 1.822231 -1.170239 0
M  V30 18 C -4.082442 0.478404 -0.998203 0
M  V30 19 C -5.090008 -0.447116 -1.128966 0
M  V30 20 C -4.855568 -1.770468 -0.837297 0
M  V30 21 C -3.605876 -2.159334 -0.413686 0
M  V30 22 C -3.079102 -3.460766 -0.028002 0
M  V30 23 C -2.445201 -4.431747 -0.767951 0
M  V30 24 F -2.318494 -4.097704 -2.063145 0
M  V30 25 C -2.014641 -5.597505 -0.158500 0
M  V30 26 C -2.213412 -5.808247 1.202190 0
M  V30 27 C -2.843446 -4.849181 1.944441 0
M  V30 28 C -3.269562 -3.693870 1.341500 0
M  V30 29 F -3.873090 -2.846963 2.208095 0
M  V30 30 N -2.665103 -1.205333 -0.307872 0
M  V30 31 N -2.864667 0.062401 -0.580980 0
M  V30 32 C 1.701356 -0.448942 1.467843 0
M  V30 33 H 1.318265 -0.216312 4.774898 0
M  V30 34 H 0.235945 -0.831249 3.455733 0
M  V30 35 H 0.181489 0.890395 3.937752 0
M  V30 36 H 1.774578 1.474193 2.464924 0
M  V30 37 H 3.329863 -0.729024 3.747056 0
M  V30 38 H 3.651332 1.020854 3.774024 0
M  V30 39 H 4.392455 -1.128251 1.759570 0
M  V30 40 H 5.231085 1.593049 2.398737 0
M  V30 41 H 5.910141 0.134379 3.016106 0
M  V30 42 H 3.925141 1.617353 0.510278 0
M  V30 43 H 4.154996 -0.039721 -0.182745 0
M  V30 44 H 3.661796 1.092036 -1.758482 0
M  V30 45 H 2.880768 1.938129 -3.840920 0
M  V30 46 H -1.021438 1.833831 -2.553093 0
M  V30 47 H -0.725453 0.799471 0.923610 0
M  V30 48 H -4.741829 2.456088 -1.507718 0
M  V30 49 H -6.073055 -0.156960 -1.456246 0
M  V30 50 H -5.555059 -2.591376 -0.896374 0
M  V30 51 H -1.517070 -6.319323 -0.813639 0
M  V30 52 H -1.848928 -6.740046 1.604808 0
M  V30 53 H -2.946051 -5.110078 2.978745 0
M  V30 54 H 0.713737 -0.907500 1.338994 0
M  V30 55 H 2.380049 -1.362461 1.593113 0
M  V30 END ATOM
M  V30 BEGIN BOND
M  V30 1 1 1 2
M  V30 2 1 2 3
M  V30 3 1 3 4
M  V30 4 1 4 5
M  V30 5 1 4 6
M  V30 6 1 6 7
M  V30 7 1 7 8
M  V30 8 2 8 9
M  V30 9 1 9 10
M  V30 10 2 10 11
M  V30 11 1 11 12
M  V30 12 2 12 13
M  V30 13 1 13 14
M  V30 14 1 14 15
M  V30 15 2 15 16
M  V30 16 1 16 17
M  V30 17 2 17 18
M  V30 18 1 18 19
M  V30 19 2 19 20
M  V30 20 1 20 21
M  V30 21 1 21 22
M  V30 22 2 22 23
M  V30 23 1 23 24
M  V30 24 1 23 25
M  V30 25 2 25 26
M  V30 26 1 26 27
M  V30 27 2 27 28
M  V30 28 1 28 29
M  V30 29 2 21 30
M  V30 30 1 30 31
M  V30 31 1 7 32
M  V30 32 1 32 2
M  V30 33 1 13 8
M  V30 34 1 31 15
M  V30 35 1 31 18
M  V30 36 1 28 22
M  V30 37 1 1 33
M  V30 38 1 1 34
M  V30 39 1 1 35
M  V30 40 1 2 36 CFG=3
M  V30 41 1 3 37
M  V30 42 1 3 38
M  V30 43 1 4 39 CFG=3
M  V30 44 1 5 40
M  V30 45 1 5 41
M  V30 46 1 6 42
M  V30 47 1 6 43
M  V30 48 1 9 44
M  V30 49 1 10 45
M  V30 50 1 12 46
M  V30 51 1 14 47
M  V30 52 1 17 48
M  V30 53 1 19 49
M  V30 54 1 20 50
M  V30 55 1 25 51
M  V30 56 1 26 52
M  V30 57 1 27 53
M  V30 58 1 32 54
M  V30 59 1 32 55
M  V30 END BOND
M  V30 END CTAB
M  END
>  <Dataset>  (581) 
ChEMBL_Kinases

>  <Ligand_Instance>  (581) 
nan

>  <PDB_ID>  (581) 
nan

>  <Standardized_SMILES>  (581) 
C[C@H]1C[C@H](N)CN(c2ccncc2Nc2ncc3ccc(-c4c(F)cccc4F)nn23)C1

>  <Name>  (581) 
nan

>  <Pocket>  (581) 
nan

>  <ATP_Site>  (581) 
nan

>  <Peripheral>  (581) 
nan

>  <Num_H_Atoms_ProtBoundConf>  (581) 
nan

>  <Num_Resolved_Atoms>  (581) 
nan

>  <Num_Not_Resolved_Atoms>  (581) 
nan

$$$$
CHEMBL389745
     RDKit          3D

  0  0  0  0  0  0  0  0  0  0999 V3000
M  V30 BEGIN CTAB
M  V30 COUNTS 78 83 0 0 0
M  V30 BEGIN ATOM
M  V30 1 C 4.666856 -2.819287 8.918394 0
M  V30 2 O 5.798837 -3.274582 8.210600 0
M  V30 3 C 5.913624 -3.012292 6.852353 0
M  V30 4 C 5.012021 -2.320059 6.041845 0
M  V30 5 C 5.299269 -2.157045 4.700522 0
M  V30 6 C 4.334393 -1.426774 3.878813 0
M  V30 7 C 3.545208 -0.392226 4.365750 0
M  V30 8 C 2.643159 0.264073 3.526983 0
M  V30 9 C 2.520257 -0.109416 2.185152 0
M  V30 10 C 3.297194 -1.135918 1.684556 0
M  V30 11 C 4.191062 -1.778786 2.535559 0
M  V30 12 N 3.314136 -1.654191 0.358679 0
M  V30 13 C 2.426044 -1.340032 -0.733553 0
M  V30 14 C 2.552319 -2.260917 -1.753748 0
M  V30 15 C 1.773627 -2.125218 -2.899785 0
M  V30 16 C 0.879075 -1.075415 -3.016906 0
M  V30 17 C -0.013236 -0.793539 -4.159943 0
M  V30 18 C 0.594842 0.349264 -4.945036 0
M  V30 19 C -0.096292 -1.987997 -5.109104 0
M  V30 20 C -1.388264 -0.444646 -3.781588 0
M  V30 21 O -1.902511 0.682911 -4.099598 0
M  V30 22 N -2.273628 -1.282565 -3.048134 0
M  V30 23 C -3.535226 -0.628886 -2.854269 0
M  V30 24 C -3.722065 0.162808 -1.717835 0
M  V30 25 C -4.929829 0.797849 -1.518513 0
M  V30 26 C -5.978076 0.700436 -2.379523 0
M  V30 27 N -7.209284 1.365225 -2.149549 0
M  V30 28 C -7.480516 2.194655 -0.998832 0
M  V30 29 C -7.741365 3.589262 -1.524806 0
M  V30 30 O -7.710616 3.651001 -2.918956 0
M  V30 31 C -8.576629 2.755833 -3.505937 0
M  V30 32 C -8.364581 1.315574 -3.022683 0
M  V30 33 C -5.762364 -0.083403 -3.484094 0
M  V30 34 C -4.581411 -0.747051 -3.747074 0
M  V30 35 C 0.745096 -0.140578 -1.991068 0
M  V30 36 C 1.535011 -0.291968 -0.846976 0
M  V30 37 N 1.275393 0.743628 0.100570 0
M  V30 38 C 1.517915 0.721995 1.523140 0
M  V30 39 O 0.800595 1.482398 2.212811 0
M  V30 40 C 6.463251 -2.658405 4.110838 0
M  V30 41 C 7.344806 -3.340911 4.926922 0
M  V30 42 C 7.063072 -3.508335 6.273925 0
M  V30 43 N 8.087479 -4.241924 6.974467 0
M  V30 44 H 4.838558 -1.742203 9.162725 0
M  V30 45 H 4.499126 -3.416152 9.857181 0
M  V30 46 H 3.732506 -2.889702 8.357427 0
M  V30 47 H 4.147769 -1.963240 6.544084 0
M  V30 48 H 3.652373 -0.120406 5.393093 0
M  V30 49 H 2.026911 1.074186 3.913131 0
M  V30 50 H 4.765629 -2.567365 2.087481 0
M  V30 51 H 4.072195 -2.355668 0.151860 0
M  V30 52 H 3.238334 -3.091361 -1.698077 0
M  V30 53 H 1.808332 -2.805933 -3.753964 0
M  V30 54 H 1.459730 0.007273 -5.543698 0
M  V30 55 H 0.915071 1.200915 -4.314157 0
M  V30 56 H -0.136536 0.770856 -5.676820 0
M  V30 57 H 0.800071 -2.094396 -5.738997 0
M  V30 58 H -1.034059 -1.869836 -5.688159 0
M  V30 59 H -0.256718 -2.891164 -4.451177 0
M  V30 60 H -1.931355 -2.222041 -2.749618 0
M  V30 61 H -2.880724 0.231471 -1.041837 0
M  V30 62 H -4.949362 1.366951 -0.625527 0
M  V30 63 H -6.747852 2.160235 -0.200886 0
M  V30 64 H -8.458308 1.845790 -0.552661 0
M  V30 65 H -6.943559 4.289218 -1.161144 0
M  V30 66 H -8.733576 3.981797 -1.219767 0
M  V30 67 H -8.306485 2.743948 -4.595771 0
M  V30 68 H -9.621103 3.071815 -3.425537 0
M  V30 69 H -8.289125 0.617119 -3.852454 0
M  V30 70 H -9.273028 1.083649 -2.423811 0
M  V30 71 H -6.512019 -0.242340 -4.242839 0
M  V30 72 H -4.424471 -1.362578 -4.622786 0
M  V30 73 H 0.079375 0.698135 -2.000893 0
M  V30 74 H 0.867503 1.610865 -0.264317 0
M  V30 75 H 6.603778 -2.482361 3.053589 0
M  V30 76 H 8.231107 -3.714393 4.443386 0
M  V30 77 H 8.317704 -5.258109 6.991116 0
M  V30 78 H 8.648417 -3.559991 7.537372 0
M  V30 END ATOM
M  V30 BEGIN BOND
M  V30 1 1 1 2
M  V30 2 1 2 3
M  V30 3 2 3 4
M  V30 4 1 4 5
M  V30 5 1 5 6
M  V30 6 2 6 7
M  V30 7 1 7 8
M  V30 8 2 8 9
M  V30 9 1 9 10
M  V30 10 2 10 11
M  V30 11 1 10 12
M  V30 12 1 12 13
M  V30 13 2 13 14
M  V30 14 1 14 15
M  V30 15 2 15 16
M  V30 16 1 16 17
M  V30 17 1 17 18
M  V30 18 1 17 19
M  V30 19 1 17 20
M  V30 20 2 20 21
M  V30 21 1 20 22
M  V30 22 1 22 23
M  V30 23 2 23 24
M  V30 24 1 24 25
M  V30 25 2 25 26
M  V30 26 1 26 27
M  V30 27 1 27 28
M  V30 28 1 28 29
M  V30 29 1 29 30
M  V30 30 1 30 31
M  V30 31 1 31 32
M  V30 32 1 26 33
M  V30 33 2 33 34
M  V30 34 1 16 35
M  V30 35 2 35 36
M  V30 36 1 36 37
M  V30 37 1 37 38
M  V30 38 2 38 39
M  V30 39 2 5 40
M  V30 40 1 40 41
M  V30 41 2 41 42
M  V30 42 1 42 43
M  V30 43 1 42 3
M  V30 44 1 11 6
M  V30 45 1 36 13
M  V30 46 1 38 9
M  V30 47 1 34 23
M  V30 48 1 32 27
M  V30 49 1 1 44
M  V30 50 1 1 45
M  V30 51 1 1 46
M  V30 52 1 4 47
M  V30 53 1 7 48
M  V30 54 1 8 49
M  V30 55 1 11 50
M  V30 56 1 12 51
M  V30 57 1 14 52
M  V30 58 1 15 53
M  V30 59 1 18 54
M  V30 60 1 18 55
M  V30 61 1 18 56
M  V30 62 1 19 57
M  V30 63 1 19 58
M  V30 64 1 19 59
M  V30 65 1 22 60
M  V30 66 1 24 61
M  V30 67 1 25 62
M  V30 68 1 28 63
M  V30 69 1 28 64
M  V30 70 1 29 65
M  V30 71 1 29 66
M  V30 72 1 31 67
M  V30 73 1 31 68
M  V30 74 1 32 69
M  V30 75 1 32 70
M  V30 76 1 33 71
M  V30 77 1 34 72
M  V30 78 1 35 73
M  V30 79 1 37 74
M  V30 80 1 40 75
M  V30 81 1 41 76
M  V30 82 1 43 77
M  V30 83 1 43 78
M  V30 END BOND
M  V30 END CTAB
M  END
>  <Dataset>  (582) 
ChEMBL_Kinases

>  <Ligand_Instance>  (582) 
nan

>  <PDB_ID>  (582) 
nan

>  <Standardized_SMILES>  (582) 
COc1cc(-c2ccc3c(c2)Nc2ccc(C(C)(C)C(=O)Nc4ccc(N5CCOCC5)cc4)cc2NC3=O)ccc1N

>  <Name>  (582) 
nan

>  <Pocket>  (582) 
nan

>  <ATP_Site>  (582) 
nan

>  <Peripheral>  (582) 
nan

>  <Num_H_Atoms_ProtBoundConf>  (582) 
nan

>  <Num_Resolved_Atoms>  (582) 
nan

>  <Num_Not_Resolved_Atoms>  (582) 
nan

$$$$
CHEMBL3898901
     RDKit          3D

  0  0  0  0  0  0  0  0  0  0999 V3000
M  V30 BEGIN CTAB
M  V30 COUNTS 68 72 0 0 0
M  V30 BEGIN ATOM
M  V30 1 C 4.859807 -4.396896 5.844167 0
M  V30 2 C 5.197870 -5.249983 4.876067 0
M  V30 3 C 5.154327 -5.033734 3.425065 0
M  V30 4 O 5.488054 -5.881228 2.583862 0
M  V30 5 N 4.686559 -3.737602 3.099214 0
M  V30 6 C 4.446417 -3.006190 1.905941 0
M  V30 7 C 3.116002 -3.028527 1.461614 0
M  V30 8 C 2.778204 -2.327447 0.292060 0
M  V30 9 C 3.743737 -1.603671 -0.445220 0
M  V30 10 N 3.012838 -0.983620 -1.483229 0
M  V30 11 S 3.484020 0.681045 -1.169802 0
M  V30 12 O 2.717089 1.567759 -2.111642 0
M  V30 13 O 4.907197 0.951489 -1.344740 0
M  V30 14 C 2.946230 1.033208 0.482706 0
M  V30 15 C 3.987662 1.094063 1.401712 0
M  V30 16 C 3.715911 1.282785 2.739835 0
M  V30 17 C 2.402945 1.407727 3.130178 0
M  V30 18 C 1.339119 1.351577 2.230185 0
M  V30 19 N -0.030623 1.462139 2.613470 0
M  V30 20 C -1.202189 1.376221 1.823016 0
M  V30 21 N -2.056652 2.410865 2.133609 0
M  V30 22 C -3.252051 2.506118 1.498987 0
M  V30 23 C -3.559251 1.549180 0.558876 0
M  V30 24 C -2.686769 0.503007 0.249663 0
M  V30 25 N -1.491810 0.435678 0.906703 0
M  V30 26 N -2.856836 -0.563657 -0.690591 0
M  V30 27 C -1.937553 -1.674278 -0.589996 0
M  V30 28 C -3.821525 -0.685701 -1.738276 0
M  V30 29 C -3.541651 -1.697138 -2.664693 0
M  V30 30 C -4.398034 -1.926073 -3.717516 0
M  V30 31 C -5.546391 -1.188915 -3.907749 0
M  V30 32 C -6.513546 -1.395470 -5.039041 0
M  V30 33 C -5.876453 -0.164119 -3.009368 0
M  V30 34 C -4.979760 0.019613 -1.974741 0
M  V30 35 C -5.431099 1.113558 -1.117452 0
M  V30 36 O -6.577126 1.567505 -1.426411 0
M  V30 37 N -4.840317 1.791360 0.015115 0
M  V30 38 C -5.694427 2.799006 0.606861 0
M  V30 39 C 1.655992 1.161874 0.902505 0
M  V30 40 C 5.022453 -1.622054 0.035231 0
M  V30 41 C 5.364998 -2.299626 1.173980 0
M  V30 42 H 4.918604 -4.632591 6.918487 0
M  V30 43 H 4.488099 -3.401404 6.022874 0
M  V30 44 H 5.543715 -6.190286 5.218584 0
M  V30 45 H 4.409832 -3.001531 3.814133 0
M  V30 46 H 2.370164 -3.588255 2.039468 0
M  V30 47 H 1.698074 -2.432687 0.080984 0
M  V30 48 H 2.410472 -1.487146 -2.164266 0
M  V30 49 H 5.039229 1.004178 1.128997 0
M  V30 50 H 4.473830 1.332588 3.502520 0
M  V30 51 H 2.182140 1.555159 4.175031 0
M  V30 52 H -0.152133 1.621158 3.662079 0
M  V30 53 H -3.933312 3.322353 1.725010 0
M  V30 54 H -1.469415 -1.598254 0.420905 0
M  V30 55 H -1.123000 -1.659900 -1.320342 0
M  V30 56 H -2.486967 -2.658004 -0.547027 0
M  V30 57 H -2.650512 -2.270800 -2.526633 0
M  V30 58 H -4.201778 -2.702696 -4.435327 0
M  V30 59 H -6.944495 -0.418065 -5.301561 0
M  V30 60 H -6.008062 -1.885247 -5.899981 0
M  V30 61 H -7.322065 -2.036517 -4.615098 0
M  V30 62 H -6.763477 0.423182 -3.135058 0
M  V30 63 H -5.824978 2.705734 1.700697 0
M  V30 64 H -5.440050 3.817060 0.253037 0
M  V30 65 H -6.745291 2.627394 0.214262 0
M  V30 66 H 0.927339 1.103482 0.138814 0
M  V30 67 H 5.671837 -1.052743 -0.604684 0
M  V30 68 H 6.381606 -2.276873 1.508710 0
M  V30 END ATOM
M  V30 BEGIN BOND
M  V30 1 2 1 2
M  V30 2 1 2 3
M  V30 3 2 3 4
M  V30 4 1 3 5
M  V30 5 1 5 6
M  V30 6 2 6 7
M  V30 7 1 7 8
M  V30 8 2 8 9
M  V30 9 1 9 10
M  V30 10 1 10 11
M  V30 11 2 11 12
M  V30 12 2 11 13
M  V30 13 1 11 14
M  V30 14 2 14 15
M  V30 15 1 15 16
M  V30 16 2 16 17
M  V30 17 1 17 18
M  V30 18 1 18 19
M  V30 19 1 19 20
M  V30 20 2 20 21
M  V30 21 1 21 22
M  V30 22 2 22 23
M  V30 23 1 23 24
M  V30 24 2 24 25
M  V30 25 1 24 26
M  V30 26 1 26 27
M  V30 27 1 26 28
M  V30 28 2 28 29
M  V30 29 1 29 30
M  V30 30 2 30 31
M  V30 31 1 31 32
M  V30 32 1 31 33
M  V30 33 2 33 34
M  V30 34 1 34 35
M  V30 35 2 35 36
M  V30 36 1 35 37
M  V30 37 1 37 38
M  V30 38 2 18 39
M  V30 39 1 9 40
M  V30 40 2 40 41
M  V30 41 1 41 6
M  V30 42 1 39 14
M  V30 43 1 25 20
M  V30 44 1 34 28
M  V30 45 1 37 23
M  V30 46 1 1 42
M  V30 47 1 1 43
M  V30 48 1 2 44
M  V30 49 1 5 45
M  V30 50 1 7 46
M  V30 51 1 8 47
M  V30 52 1 10 48
M  V30 53 1 15 49
M  V30 54 1 16 50
M  V30 55 1 17 51
M  V30 56 1 19 52
M  V30 57 1 22 53
M  V30 58 1 27 54
M  V30 59 1 27 55
M  V30 60 1 27 56
M  V30 61 1 29 57
M  V30 62 1 30 58
M  V30 63 1 32 59
M  V30 64 1 32 60
M  V30 65 1 32 61
M  V30 66 1 33 62
M  V30 67 1 38 63
M  V30 68 1 38 64
M  V30 69 1 38 65
M  V30 70 1 39 66
M  V30 71 1 40 67
M  V30 72 1 41 68
M  V30 END BOND
M  V30 END CTAB
M  END
>  <Dataset>  (583) 
ChEMBL_Kinases

>  <Ligand_Instance>  (583) 
nan

>  <PDB_ID>  (583) 
nan

>  <Standardized_SMILES>  (583) 
C=CC(=O)Nc1ccc(NS(=O)(=O)c2cccc(Nc3ncc4c(n3)N(C)c3ccc(C)cc3C(=O)N4C)c2)cc1

>  <Name>  (583) 
nan

>  <Pocket>  (583) 
nan

>  <ATP_Site>  (583) 
nan

>  <Peripheral>  (583) 
nan

>  <Num_H_Atoms_ProtBoundConf>  (583) 
nan

>  <Num_Resolved_Atoms>  (583) 
nan

>  <Num_Not_Resolved_Atoms>  (583) 
nan

$$$$
CHEMBL3899711
     RDKit          3D

  0  0  0  0  0  0  0  0  0  0999 V3000
M  V30 BEGIN CTAB
M  V30 COUNTS 40 43 0 0 0
M  V30 BEGIN ATOM
M  V30 1 N 0.584281 -5.603468 2.410306 0
M  V30 2 C 0.453108 -4.562204 1.875470 0
M  V30 3 C 0.317920 -3.288271 1.221546 0
M  V30 4 C 1.308934 -2.271898 1.706020 0
M  V30 5 C 1.876128 -2.334177 2.959006 0
M  V30 6 C 2.780499 -1.326563 3.279851 0
M  V30 7 N 3.063163 -0.370614 2.408990 0
M  V30 8 C 2.506750 -0.303132 1.170151 0
M  V30 9 O 2.761591 0.671424 0.214275 0
M  V30 10 C 2.150954 0.687202 -1.057025 0
M  V30 11 C 2.668954 1.870844 -1.792186 0
M  V30 12 C 1.970322 3.075610 -1.661039 0
M  V30 13 C 2.336642 4.255154 -2.286128 0
M  V30 14 C 3.462014 4.229623 -3.085615 0
M  V30 15 C 4.175545 3.061406 -3.238679 0
M  V30 16 C 3.792086 1.894519 -2.605181 0
M  V30 17 N 1.630239 -1.279766 0.859273 0
M  V30 18 C -1.104988 -2.835967 1.583937 0
M  V30 19 N -1.796844 -2.955977 2.471296 0
M  V30 20 C -3.016626 -2.538614 2.715214 0
M  V30 21 C -3.869794 -2.676610 3.788569 0
M  V30 22 C -5.118586 -2.122586 3.772266 0
M  V30 23 C -5.640075 -1.391641 2.716496 0
M  V30 24 C -4.883750 -1.187223 1.592625 0
M  V30 25 C -3.587661 -1.785769 1.658964 0
M  V30 26 S -2.171090 -1.807761 0.404177 0
M  V30 27 H 0.358390 -3.370422 0.110388 0
M  V30 28 H 1.602737 -3.133949 3.612189 0
M  V30 29 H 3.249010 -1.339043 4.255800 0
M  V30 30 H 2.405582 -0.206004 -1.661008 0
M  V30 31 H 1.050124 0.786310 -1.009007 0
M  V30 32 H 1.087749 3.089446 -1.032140 0
M  V30 33 H 1.732630 5.131586 -2.122003 0
M  V30 34 H 3.746518 5.155713 -3.574172 0
M  V30 35 H 5.062477 3.035861 -3.867113 0
M  V30 36 H 4.318818 0.948430 -2.692475 0
M  V30 37 H -3.606768 -3.212333 4.671837 0
M  V30 38 H -5.798629 -2.234447 4.631732 0
M  V30 39 H -6.608348 -0.928159 2.632655 0
M  V30 40 H -5.046527 -0.674975 0.666564 0
M  V30 END ATOM
M  V30 BEGIN BOND
M  V30 1 3 1 2
M  V30 2 1 2 3
M  V30 3 1 3 4
M  V30 4 2 4 5
M  V30 5 1 5 6
M  V30 6 2 6 7
M  V30 7 1 7 8
M  V30 8 1 8 9
M  V30 9 1 9 10
M  V30 10 1 10 11
M  V30 11 2 11 12
M  V30 12 1 12 13
M  V30 13 2 13 14
M  V30 14 1 14 15
M  V30 15 2 15 16
M  V30 16 2 8 17
M  V30 17 1 3 18
M  V30 18 2 18 19
M  V30 19 1 19 20
M  V30 20 2 20 21
M  V30 21 1 21 22
M  V30 22 2 22 23
M  V30 23 1 23 24
M  V30 24 2 24 25
M  V30 25 1 25 26
M  V30 26 1 17 4
M  V30 27 1 26 18
M  V30 28 1 16 11
M  V30 29 1 25 20
M  V30 30 1 3 27
M  V30 31 1 5 28
M  V30 32 1 6 29
M  V30 33 1 10 30
M  V30 34 1 10 31
M  V30 35 1 12 32
M  V30 36 1 13 33
M  V30 37 1 14 34
M  V30 38 1 15 35
M  V30 39 1 16 36
M  V30 40 1 21 37
M  V30 41 1 22 38
M  V30 42 1 23 39
M  V30 43 1 24 40
M  V30 END BOND
M  V30 END CTAB
M  END
>  <Dataset>  (584) 
ChEMBL_Kinases

>  <Ligand_Instance>  (584) 
nan

>  <PDB_ID>  (584) 
nan

>  <Standardized_SMILES>  (584) 
N#CC(c1ccnc(OCc2ccccc2)n1)c1nc2ccccc2s1

>  <Name>  (584) 
nan

>  <Pocket>  (584) 
nan

>  <ATP_Site>  (584) 
nan

>  <Peripheral>  (584) 
nan

>  <Num_H_Atoms_ProtBoundConf>  (584) 
nan

>  <Num_Resolved_Atoms>  (584) 
nan

>  <Num_Not_Resolved_Atoms>  (584) 
nan

$$$$
CHEMBL3900646
     RDKit          3D

  0  0  0  0  0  0  0  0  0  0999 V3000
M  V30 BEGIN CTAB
M  V30 COUNTS 55 59 0 0 0
M  V30 BEGIN ATOM
M  V30 1 C 1.288494 2.455818 3.558178 0
M  V30 2 C 1.855210 1.325189 2.739952 0 CFG=1
M  V30 3 C 1.139077 0.054231 3.122307 0
M  V30 4 C 1.475378 -1.100339 2.243118 0
M  V30 5 C 2.492664 -0.835239 1.188345 0 CFG=2
M  V30 6 N 3.808832 -1.185905 1.712900 0
M  V30 7 C 2.454301 0.514980 0.561242 0
M  V30 8 N 1.709085 1.506272 1.314245 0
M  V30 9 C 0.918925 2.547910 0.712254 0
M  V30 10 C 1.327118 3.842903 0.941921 0
M  V30 11 C 0.665263 4.928071 0.416494 0
M  V30 12 N -0.404857 4.671089 -0.336437 0
M  V30 13 C -0.791006 3.402863 -0.551522 0
M  V30 14 C -0.186638 2.267934 -0.064646 0
M  V30 15 N -0.620058 0.941605 -0.303484 0
M  V30 16 C -1.730656 0.531054 -1.088768 0
M  V30 17 N -2.613777 1.271137 -1.775155 0
M  V30 18 C -3.512404 0.497295 -2.385091 0
M  V30 19 C -3.174740 -0.779439 -2.065009 0
M  V30 20 C -3.770849 -1.984198 -2.429509 0
M  V30 21 C -3.235399 -3.177134 -1.970174 0
M  V30 22 C -2.119738 -3.095080 -1.161999 0
M  V30 23 C -1.589960 -4.375277 -0.701680 0
M  V30 24 C -2.150201 -4.778663 0.496088 0
M  V30 25 F -3.098208 -4.069740 1.189123 0
M  V30 26 C -1.792213 -5.976250 1.125708 0
M  V30 27 C -0.829971 -6.769617 0.493045 0
M  V30 28 C -0.282605 -6.349613 -0.702008 0
M  V30 29 C -0.642051 -5.180849 -1.301893 0
M  V30 30 F -0.158436 -4.688091 -2.474292 0
M  V30 31 N -1.589045 -1.899056 -0.844646 0
M  V30 32 N -2.091374 -0.750420 -1.277286 0
M  V30 33 H 0.470831 3.001527 3.085837 0
M  V30 34 H 0.992965 2.062301 4.576117 0
M  V30 35 H 2.113263 3.167331 3.774923 0
M  V30 36 H 2.923739 1.175230 2.982877 0
M  V30 37 H 0.030799 0.217278 3.109291 0
M  V30 38 H 1.363979 -0.124157 4.212407 0
M  V30 39 H 1.882256 -1.900733 2.917091 0
M  V30 40 H 0.552240 -1.586143 1.807579 0
M  V30 41 H 2.310026 -1.598065 0.373628 0
M  V30 42 H 3.782322 -1.384533 2.737598 0
M  V30 43 H 4.511853 -0.448878 1.460685 0
M  V30 44 H 3.522568 0.895828 0.589596 0
M  V30 45 H 2.211075 0.521826 -0.523129 0
M  V30 46 H 2.196248 4.055964 1.552299 0
M  V30 47 H 0.976593 5.948425 0.590086 0
M  V30 48 H -1.667127 3.322167 -1.174198 0
M  V30 49 H -0.044368 0.193507 0.162457 0
M  V30 50 H -4.328091 0.829642 -2.998780 0
M  V30 51 H -4.640531 -1.980360 -3.063427 0
M  V30 52 H -3.684154 -4.118983 -2.242566 0
M  V30 53 H -2.223914 -6.301960 2.062982 0
M  V30 54 H -0.523476 -7.709031 0.949806 0
M  V30 55 H 0.465826 -6.942561 -1.217234 0
M  V30 END ATOM
M  V30 BEGIN BOND
M  V30 1 1 1 2
M  V30 2 1 2 3
M  V30 3 1 3 4
M  V30 4 1 4 5
M  V30 5 1 5 6
M  V30 6 1 5 7
M  V30 7 1 7 8
M  V30 8 1 8 9
M  V30 9 2 9 10
M  V30 10 1 10 11
M  V30 11 2 11 12
M  V30 12 1 12 13
M  V30 13 2 13 14
M  V30 14 1 14 15
M  V30 15 1 15 16
M  V30 16 2 16 17
M  V30 17 1 17 18
M  V30 18 2 18 19
M  V30 19 1 19 20
M  V30 20 2 20 21
M  V30 21 1 21 22
M  V30 22 1 22 23
M  V30 23 2 23 24
M  V30 24 1 24 25
M  V30 25 1 24 26
M  V30 26 2 26 27
M  V30 27 1 27 28
M  V30 28 2 28 29
M  V30 29 1 29 30
M  V30 30 2 22 31
M  V30 31 1 31 32
M  V30 32 1 8 2
M  V30 33 1 14 9
M  V30 34 1 32 16
M  V30 35 1 32 19
M  V30 36 1 29 23
M  V30 37 1 1 33
M  V30 38 1 1 34
M  V30 39 1 1 35
M  V30 40 1 2 36 CFG=3
M  V30 41 1 3 37
M  V30 42 1 3 38
M  V30 43 1 4 39
M  V30 44 1 4 40
M  V30 45 1 5 41 CFG=3
M  V30 46 1 6 42
M  V30 47 1 6 43
M  V30 48 1 7 44
M  V30 49 1 7 45
M  V30 50 1 10 46
M  V30 51 1 11 47
M  V30 52 1 13 48
M  V30 53 1 15 49
M  V30 54 1 18 50
M  V30 55 1 20 51
M  V30 56 1 21 52
M  V30 57 1 26 53
M  V30 58 1 27 54
M  V30 59 1 28 55
M  V30 END BOND
M  V30 END CTAB
M  END
>  <Dataset>  (585) 
ChEMBL_Kinases

>  <Ligand_Instance>  (585) 
nan

>  <PDB_ID>  (585) 
nan

>  <Standardized_SMILES>  (585) 
C[C@H]1CC[C@H](N)CN1c1ccncc1Nc1ncc2ccc(-c3c(F)cccc3F)nn12

>  <Name>  (585) 
nan

>  <Pocket>  (585) 
nan

>  <ATP_Site>  (585) 
nan

>  <Peripheral>  (585) 
nan

>  <Num_H_Atoms_ProtBoundConf>  (585) 
nan

>  <Num_Resolved_Atoms>  (585) 
nan

>  <Num_Not_Resolved_Atoms>  (585) 
nan

$$$$
CHEMBL3901151
     RDKit          3D

  0  0  0  0  0  0  0  0  0  0999 V3000
M  V30 BEGIN CTAB
M  V30 COUNTS 33 35 0 0 0
M  V30 BEGIN ATOM
M  V30 1 C 4.121759 2.559979 0.702573 0
M  V30 2 C 4.383068 1.467213 -0.017030 0
M  V30 3 C 3.536554 0.290654 0.197799 0
M  V30 4 O 3.683132 -0.810947 -0.425113 0
M  V30 5 N 2.473661 0.297551 1.133514 0
M  V30 6 C 1.617972 -0.814723 1.385239 0
M  V30 7 C 1.877351 -1.777711 2.338169 0
M  V30 8 C 1.049634 -2.853537 2.581587 0
M  V30 9 C -0.116863 -2.970168 1.816733 0
M  V30 10 C -0.406109 -2.008597 0.842980 0
M  V30 11 C -1.646176 -2.205343 0.087455 0
M  V30 12 N -2.084700 -3.370379 -0.448327 0
M  V30 13 N -3.249562 -3.182523 -1.066616 0
M  V30 14 C -3.621248 -1.895845 -0.963089 0
M  V30 15 C -4.692969 -1.109567 -1.381493 0
M  V30 16 C -4.727183 0.236063 -1.071018 0
M  V30 17 C -3.733777 0.877520 -0.347154 0
M  V30 18 C -2.684411 0.066711 0.052484 0
M  V30 19 C -2.619262 -1.280551 -0.240751 0
M  V30 20 C 0.459178 -0.967973 0.655035 0
M  V30 21 H 4.821089 3.372629 0.453605 0
M  V30 22 H 4.714831 3.456527 0.584488 0
M  V30 23 H 5.171779 1.332164 -0.769668 0
M  V30 24 H 2.336884 1.201200 1.659008 0
M  V30 25 H 2.785952 -1.666293 2.917637 0
M  V30 26 H 1.337464 -3.553568 3.347270 0
M  V30 27 H -0.730710 -3.836085 2.051121 0
M  V30 28 H -3.863963 -3.851041 -1.580948 0
M  V30 29 H -5.459596 -1.612415 -1.942040 0
M  V30 30 H -5.611935 0.733182 -1.453707 0
M  V30 31 H -3.827221 1.921197 -0.144507 0
M  V30 32 H -1.906961 0.593443 0.625041 0
M  V30 33 H 0.228137 -0.230999 -0.098149 0
M  V30 END ATOM
M  V30 BEGIN BOND
M  V30 1 2 1 2
M  V30 2 1 2 3
M  V30 3 2 3 4
M  V30 4 1 3 5
M  V30 5 1 5 6
M  V30 6 2 6 7
M  V30 7 1 7 8
M  V30 8 2 8 9
M  V30 9 1 9 10
M  V30 10 1 10 11
M  V30 11 2 11 12
M  V30 12 1 12 13
M  V30 13 1 13 14
M  V30 14 2 14 15
M  V30 15 1 15 16
M  V30 16 2 16 17
M  V30 17 1 17 18
M  V30 18 2 18 19
M  V30 19 2 10 20
M  V30 20 1 20 6
M  V30 21 1 19 11
M  V30 22 1 19 14
M  V30 23 1 1 21
M  V30 24 1 1 22
M  V30 25 1 2 23
M  V30 26 1 5 24
M  V30 27 1 7 25
M  V30 28 1 8 26
M  V30 29 1 9 27
M  V30 30 1 13 28
M  V30 31 1 15 29
M  V30 32 1 16 30
M  V30 33 1 17 31
M  V30 34 1 18 32
M  V30 35 1 20 33
M  V30 END BOND
M  V30 END CTAB
M  END
>  <Dataset>  (586) 
ChEMBL_Kinases

>  <Ligand_Instance>  (586) 
nan

>  <PDB_ID>  (586) 
nan

>  <Standardized_SMILES>  (586) 
C=CC(=O)Nc1cccc(-c2n[nH]c3ccccc23)c1

>  <Name>  (586) 
nan

>  <Pocket>  (586) 
nan

>  <ATP_Site>  (586) 
nan

>  <Peripheral>  (586) 
nan

>  <Num_H_Atoms_ProtBoundConf>  (586) 
nan

>  <Num_Resolved_Atoms>  (586) 
nan

>  <Num_Not_Resolved_Atoms>  (586) 
nan

$$$$
CHEMBL390201
     RDKit          3D

  0  0  0  0  0  0  0  0  0  0999 V3000
M  V30 BEGIN CTAB
M  V30 COUNTS 34 37 0 0 0
M  V30 BEGIN ATOM
M  V30 1 C -1.520000 -1.372386 5.340644 0
M  V30 2 N -0.569599 -1.661848 4.295434 0
M  V30 3 C -0.387776 -1.234339 2.952065 0
M  V30 4 N 0.665771 -1.745668 2.251321 0
M  V30 5 C 0.814185 -1.327884 0.990805 0
M  V30 6 C 1.889568 -1.865264 0.312098 0
M  V30 7 C 2.068509 -1.449452 -0.999295 0
M  V30 8 C 3.141273 -1.977907 -1.694377 0
M  V30 9 C 3.400714 -1.624949 -3.002859 0
M  V30 10 C 2.555163 -0.720858 -3.611520 0
M  V30 11 C 1.477022 -0.175826 -2.945979 0
M  V30 12 C 1.211560 -0.532160 -1.618555 0
M  V30 13 C 0.137904 -0.022635 -0.876915 0
M  V30 14 C -0.046616 -0.422376 0.406498 0
M  V30 15 C -1.106991 0.094928 1.105460 0
M  V30 16 C -2.082618 0.984411 0.767410 0
M  V30 17 C -2.372879 1.721745 -0.454194 0
M  V30 18 C -2.832144 1.058137 1.953647 0
M  V30 19 N -2.283535 0.249532 2.875328 0
M  V30 20 N -1.224151 -0.352749 2.380111 0
M  V30 21 H -1.011422 -1.053641 6.298653 0
M  V30 22 H -2.073994 -2.321961 5.572607 0
M  V30 23 H -2.239114 -0.577676 5.085313 0
M  V30 24 H 0.096462 -2.349261 4.709175 0
M  V30 25 H 2.563149 -2.576594 0.775874 0
M  V30 26 H 3.800006 -2.692236 -1.196499 0
M  V30 27 H 4.234430 -2.020849 -3.578140 0
M  V30 28 H 2.670685 -0.384349 -4.619595 0
M  V30 29 H 0.807415 0.533127 -3.411340 0
M  V30 30 H -0.424093 0.651579 -1.455472 0
M  V30 31 H -3.295754 2.357522 -0.267078 0
M  V30 32 H -2.713413 1.106977 -1.322024 0
M  V30 33 H -1.633281 2.514472 -0.726111 0
M  V30 34 H -3.718043 1.646959 2.165753 0
M  V30 END ATOM
M  V30 BEGIN BOND
M  V30 1 1 1 2
M  V30 2 1 2 3
M  V30 3 2 3 4
M  V30 4 1 4 5
M  V30 5 2 5 6
M  V30 6 1 6 7
M  V30 7 2 7 8
M  V30 8 1 8 9
M  V30 9 2 9 10
M  V30 10 1 10 11
M  V30 11 2 11 12
M  V30 12 1 12 13
M  V30 13 2 13 14
M  V30 14 1 14 15
M  V30 15 2 15 16
M  V30 16 1 16 17
M  V30 17 1 16 18
M  V30 18 2 18 19
M  V30 19 1 19 20
M  V30 20 1 20 3
M  V30 21 1 14 5
M  V30 22 1 20 15
M  V30 23 1 12 7
M  V30 24 1 1 21
M  V30 25 1 1 22
M  V30 26 1 1 23
M  V30 27 1 2 24
M  V30 28 1 6 25
M  V30 29 1 8 26
M  V30 30 1 9 27
M  V30 31 1 10 28
M  V30 32 1 11 29
M  V30 33 1 13 30
M  V30 34 1 17 31
M  V30 35 1 17 32
M  V30 36 1 17 33
M  V30 37 1 18 34
M  V30 END BOND
M  V30 END CTAB
M  END
>  <Dataset>  (587) 
ChEMBL_Kinases

>  <Ligand_Instance>  (587) 
nan

>  <PDB_ID>  (587) 
nan

>  <Standardized_SMILES>  (587) 
CNc1nc2cc3ccccc3cc2c2c(C)cnn12

>  <Name>  (587) 
nan

>  <Pocket>  (587) 
nan

>  <ATP_Site>  (587) 
nan

>  <Peripheral>  (587) 
nan

>  <Num_H_Atoms_ProtBoundConf>  (587) 
nan

>  <Num_Resolved_Atoms>  (587) 
nan

>  <Num_Not_Resolved_Atoms>  (587) 
nan

$$$$
CHEMBL3902148
     RDKit          3D

  0  0  0  0  0  0  0  0  0  0999 V3000
M  V30 BEGIN CTAB
M  V30 COUNTS 50 53 0 0 0
M  V30 BEGIN ATOM
M  V30 1 C 1.996307 -4.517009 0.683240 0
M  V30 2 C 2.996588 -3.713691 1.472194 0 CFG=1
M  V30 3 N 4.358668 -4.082032 1.274267 0
M  V30 4 C 5.086520 -3.008222 0.694485 0
M  V30 5 O 6.305165 -2.988102 0.386961 0
M  V30 6 C 4.152967 -1.882322 0.504283 0
M  V30 7 C 3.964859 -0.568330 0.060371 0
M  V30 8 C 2.649452 -0.202819 0.247835 0
M  V30 9 C 2.099581 1.096004 -0.101342 0
M  V30 10 C 2.851593 2.102081 -0.661811 0
M  V30 11 F 4.149536 1.961066 -0.928739 0
M  V30 12 C 2.333403 3.335858 -0.994516 0
M  V30 13 C 1.019390 3.631668 -0.781377 0
M  V30 14 C 0.219393 2.657078 -0.220848 0
M  V30 15 C -1.116282 2.922528 0.008964 0
M  V30 16 O -1.562733 4.050453 -0.301903 0
M  V30 17 N -1.934328 2.003773 0.553112 0
M  V30 18 C -3.333992 2.254480 0.804477 0
M  V30 19 C -1.388750 0.815693 0.862012 0
M  V30 20 N -2.141739 -0.245793 1.443090 0
M  V30 21 C -2.934139 -1.383989 1.107835 0
M  V30 22 C -3.420885 -2.048700 2.374815 0
M  V30 23 C -4.105058 -0.936411 0.244949 0
M  V30 24 C -2.174525 -2.426606 0.320512 0
M  V30 25 N -0.086613 0.577991 0.630116 0
M  V30 26 C 0.779902 1.437235 0.096242 0
M  V30 27 N 2.081293 -1.289289 0.793042 0
M  V30 28 C 2.939828 -2.311036 0.962875 0
M  V30 29 H 1.511446 -5.325583 1.285198 0
M  V30 30 H 1.161072 -3.833529 0.405381 0
M  V30 31 H 2.466629 -4.920074 -0.231633 0
M  V30 32 H 2.680431 -3.764782 2.545323 0
M  V30 33 H 4.743731 -5.030603 1.533328 0
M  V30 34 H 4.819952 -0.078882 -0.332738 0
M  V30 35 H 2.923650 4.124020 -1.433857 0
M  V30 36 H 0.605335 4.596952 -1.039552 0
M  V30 37 H -3.952632 1.980209 -0.077498 0
M  V30 38 H -3.491476 3.309063 1.107694 0
M  V30 39 H -3.719656 1.651968 1.659130 0
M  V30 40 H -1.969071 0.023239 2.457702 0
M  V30 41 H -3.505638 -3.149139 2.260781 0
M  V30 42 H -2.700240 -1.914836 3.226011 0
M  V30 43 H -4.388354 -1.633177 2.719389 0
M  V30 44 H -4.778386 -0.369749 0.912809 0
M  V30 45 H -3.743678 -0.349250 -0.613711 0
M  V30 46 H -4.664855 -1.798222 -0.135144 0
M  V30 47 H -1.447945 -2.939910 0.963113 0
M  V30 48 H -2.923405 -3.102558 -0.133665 0
M  V30 49 H -1.593523 -1.986177 -0.513652 0
M  V30 50 H 1.082736 -1.371974 1.069715 0
M  V30 END ATOM
M  V30 BEGIN BOND
M  V30 1 1 1 2
M  V30 2 1 2 3
M  V30 3 1 3 4
M  V30 4 2 4 5
M  V30 5 1 4 6
M  V30 6 1 6 7
M  V30 7 2 7 8
M  V30 8 1 8 9
M  V30 9 2 9 10
M  V30 10 1 10 11
M  V30 11 1 10 12
M  V30 12 2 12 13
M  V30 13 1 13 14
M  V30 14 1 14 15
M  V30 15 2 15 16
M  V30 16 1 15 17
M  V30 17 1 17 18
M  V30 18 1 17 19
M  V30 19 1 19 20
M  V30 20 1 20 21
M  V30 21 1 21 22
M  V30 22 1 21 23
M  V30 23 1 21 24
M  V30 24 2 19 25
M  V30 25 1 25 26
M  V30 26 1 8 27
M  V30 27 1 27 28
M  V30 28 1 28 2
M  V30 29 2 28 6
M  V30 30 1 26 9
M  V30 31 2 26 14
M  V30 32 1 1 29
M  V30 33 1 1 30
M  V30 34 1 1 31
M  V30 35 1 2 32 CFG=1
M  V30 36 1 3 33
M  V30 37 1 7 34
M  V30 38 1 12 35
M  V30 39 1 13 36
M  V30 40 1 18 37
M  V30 41 1 18 38
M  V30 42 1 18 39
M  V30 43 1 20 40
M  V30 44 1 22 41
M  V30 45 1 22 42
M  V30 46 1 22 43
M  V30 47 1 23 44
M  V30 48 1 23 45
M  V30 49 1 23 46
M  V30 50 1 24 47
M  V30 51 1 24 48
M  V30 52 1 24 49
M  V30 53 1 27 50
M  V30 END BOND
M  V30 END CTAB
M  END
>  <Dataset>  (588) 
ChEMBL_Kinases

>  <Ligand_Instance>  (588) 
nan

>  <PDB_ID>  (588) 
nan

>  <Standardized_SMILES>  (588) 
C[C@H]1NC(=O)c2cc(-c3c(F)ccc4c(=O)n(C)c(NC(C)(C)C)nc34)[nH]c21

>  <Name>  (588) 
nan

>  <Pocket>  (588) 
nan

>  <ATP_Site>  (588) 
nan

>  <Peripheral>  (588) 
nan

>  <Num_H_Atoms_ProtBoundConf>  (588) 
nan

>  <Num_Resolved_Atoms>  (588) 
nan

>  <Num_Not_Resolved_Atoms>  (588) 
nan

$$$$
CHEMBL3902228
     RDKit          3D

  0  0  0  0  0  0  0  0  0  0999 V3000
M  V30 BEGIN CTAB
M  V30 COUNTS 55 59 0 0 0
M  V30 BEGIN ATOM
M  V30 1 C 4.199152 -1.754712 -2.535338 0
M  V30 2 C 2.821751 -2.130541 -2.086611 0 CFG=1
M  V30 3 C 2.849254 -2.413731 -0.607508 0
M  V30 4 C 1.872594 -1.541999 0.153754 0
M  V30 5 N 2.112680 -0.126465 -0.143368 0
M  V30 6 C 2.328134 1.102074 0.584144 0
M  V30 7 C 3.522744 1.755191 0.382157 0
M  V30 8 C 3.827986 2.930363 1.027121 0
M  V30 9 N 2.881635 3.403545 1.871490 0
M  V30 10 C 1.718809 2.754696 2.059104 0
M  V30 11 C 1.357904 1.576733 1.442582 0
M  V30 12 N 0.124280 0.909937 1.655569 0
M  V30 13 C -0.933198 1.297169 2.501740 0
M  V30 14 N -1.041488 2.361868 3.296750 0
M  V30 15 C -2.207432 2.363347 3.935787 0
M  V30 16 C -2.859550 1.238697 3.515434 0
M  V30 17 C -4.098914 0.737557 3.847451 0
M  V30 18 C -4.547071 -0.435250 3.282292 0
M  V30 19 C -3.700008 -1.056130 2.389663 0
M  V30 20 C -3.969667 -2.300817 1.677036 0
M  V30 21 C -4.596309 -2.253608 0.429174 0
M  V30 22 F -4.957414 -1.079117 -0.130099 0
M  V30 23 C -4.860627 -3.435372 -0.264421 0
M  V30 24 C -4.503808 -4.670691 0.277896 0
M  V30 25 C -3.885772 -4.684975 1.513111 0
M  V30 26 C -3.606886 -3.530076 2.232217 0
M  V30 27 F -2.992925 -3.601392 3.451580 0
M  V30 28 N -2.516450 -0.520343 2.112176 0
M  V30 29 N -2.069074 0.603557 2.643931 0
M  V30 30 C 2.153191 0.171322 -1.562610 0
M  V30 31 C 1.853568 -1.029367 -2.399792 0 CFG=1
M  V30 32 N 1.969410 -0.617594 -3.786179 0
M  V30 33 H 4.211635 -1.237859 -3.534389 0
M  V30 34 H 4.725054 -1.133023 -1.782449 0
M  V30 35 H 4.808045 -2.686250 -2.721471 0
M  V30 36 H 2.475792 -3.043926 -2.647400 0
M  V30 37 H 3.889415 -2.321241 -0.183936 0
M  V30 38 H 2.543724 -3.465045 -0.429281 0
M  V30 39 H 0.871437 -1.833182 -0.171261 0
M  V30 40 H 1.982592 -1.769302 1.223202 0
M  V30 41 H 4.266435 1.372855 -0.288106 0
M  V30 42 H 4.737127 3.505250 0.927067 0
M  V30 43 H 1.054681 3.238902 2.757002 0
M  V30 44 H 0.027428 0.014980 1.088728 0
M  V30 45 H -2.611598 3.073022 4.647115 0
M  V30 46 H -4.746193 1.241886 4.550116 0
M  V30 47 H -5.489391 -0.910749 3.469356 0
M  V30 48 H -5.351943 -3.424303 -1.246522 0
M  V30 49 H -4.725758 -5.564246 -0.290992 0
M  V30 50 H -3.622191 -5.670235 1.903615 0
M  V30 51 H 1.516596 1.045385 -1.821830 0
M  V30 52 H 3.217412 0.475943 -1.784716 0
M  V30 53 H 0.834001 -1.382440 -2.156235 0
M  V30 54 H 1.072676 -0.910099 -4.265848 0
M  V30 55 H 2.011608 0.418865 -3.900747 0
M  V30 END ATOM
M  V30 BEGIN BOND
M  V30 1 1 1 2
M  V30 2 1 2 3
M  V30 3 1 3 4
M  V30 4 1 4 5
M  V30 5 1 5 6
M  V30 6 2 6 7
M  V30 7 1 7 8
M  V30 8 2 8 9
M  V30 9 1 9 10
M  V30 10 2 10 11
M  V30 11 1 11 12
M  V30 12 1 12 13
M  V30 13 2 13 14
M  V30 14 1 14 15
M  V30 15 2 15 16
M  V30 16 1 16 17
M  V30 17 2 17 18
M  V30 18 1 18 19
M  V30 19 1 19 20
M  V30 20 2 20 21
M  V30 21 1 21 22
M  V30 22 1 21 23
M  V30 23 2 23 24
M  V30 24 1 24 25
M  V30 25 2 25 26
M  V30 26 1 26 27
M  V30 27 2 19 28
M  V30 28 1 28 29
M  V30 29 1 5 30
M  V30 30 1 30 31
M  V30 31 1 31 32
M  V30 32 1 31 2
M  V30 33 1 11 6
M  V30 34 1 29 13
M  V30 35 1 29 16
M  V30 36 1 26 20
M  V30 37 1 1 33
M  V30 38 1 1 34
M  V30 39 1 1 35
M  V30 40 1 2 36 CFG=3
M  V30 41 1 3 37
M  V30 42 1 3 38
M  V30 43 1 4 39
M  V30 44 1 4 40
M  V30 45 1 7 41
M  V30 46 1 8 42
M  V30 47 1 10 43
M  V30 48 1 12 44
M  V30 49 1 15 45
M  V30 50 1 17 46
M  V30 51 1 18 47
M  V30 52 1 23 48
M  V30 53 1 24 49
M  V30 54 1 25 50
M  V30 55 1 30 51
M  V30 56 1 30 52
M  V30 57 1 31 53 CFG=3
M  V30 58 1 32 54
M  V30 59 1 32 55
M  V30 END BOND
M  V30 END CTAB
M  END
>  <Dataset>  (589) 
ChEMBL_Kinases

>  <Ligand_Instance>  (589) 
nan

>  <PDB_ID>  (589) 
nan

>  <Standardized_SMILES>  (589) 
C[C@H]1CCN(c2ccncc2Nc2ncc3ccc(-c4c(F)cccc4F)nn23)C[C@H]1N

>  <Name>  (589) 
nan

>  <Pocket>  (589) 
nan

>  <ATP_Site>  (589) 
nan

>  <Peripheral>  (589) 
nan

>  <Num_H_Atoms_ProtBoundConf>  (589) 
nan

>  <Num_Resolved_Atoms>  (589) 
nan

>  <Num_Not_Resolved_Atoms>  (589) 
nan

$$$$
CHEMBL3896244
     RDKit          3D

  0  0  0  0  0  0  0  0  0  0999 V3000
M  V30 BEGIN CTAB
M  V30 COUNTS 55 59 0 0 0
M  V30 BEGIN ATOM
M  V30 1 C 1.712999 -4.353644 2.961486 0
M  V30 2 C 2.898312 -3.414994 2.936852 0 CFG=2
M  V30 3 C 2.442913 -2.064701 3.424197 0
M  V30 4 C 3.021783 -0.937543 2.600047 0
M  V30 5 N 2.720513 -1.085568 1.190112 0
M  V30 6 C 2.492818 -0.049862 0.241652 0
M  V30 7 C 3.380628 0.112827 -0.807252 0
M  V30 8 C 3.175004 1.126619 -1.729131 0
M  V30 9 N 2.141351 1.984656 -1.668343 0
M  V30 10 C 1.268884 1.842584 -0.657518 0
M  V30 11 C 1.445415 0.844195 0.275226 0
M  V30 12 N 0.490677 0.746450 1.291749 0
M  V30 13 C -0.614370 1.629702 1.418208 0
M  V30 14 N -0.647286 2.774428 2.127339 0
M  V30 15 C -1.854992 3.377476 2.033036 0
M  V30 16 C -2.618773 2.577243 1.228193 0
M  V30 17 C -3.923794 2.716043 0.801577 0
M  V30 18 C -4.472130 1.736622 -0.033736 0
M  V30 19 C -3.639014 0.667364 -0.381084 0
M  V30 20 C -4.300649 -0.294766 -1.254046 0
M  V30 21 C -5.030049 -1.412542 -0.958958 0
M  V30 22 F -5.135562 -1.635639 0.372370 0
M  V30 23 C -5.567895 -2.177435 -1.979673 0
M  V30 24 C -5.382161 -1.833044 -3.303242 0
M  V30 25 C -4.644692 -0.701921 -3.620413 0
M  V30 26 C -4.106111 0.063342 -2.584694 0
M  V30 27 F -3.415727 1.134242 -3.090934 0
M  V30 28 N -2.381661 0.600935 0.072908 0
M  V30 29 N -1.859461 1.526651 0.863821 0
M  V30 30 C 2.624671 -2.424413 0.632849 0
M  V30 31 C 3.408310 -3.360809 1.513304 0 CFG=1
M  V30 32 N 4.806834 -2.956892 1.479873 0
M  V30 33 H 0.799821 -3.844092 3.315104 0
M  V30 34 H 1.470953 -4.756275 1.937414 0
M  V30 35 H 1.919824 -5.261616 3.574745 0
M  V30 36 H 3.691791 -3.869000 3.561404 0
M  V30 37 H 2.832247 -1.940551 4.456759 0
M  V30 38 H 1.344591 -2.040276 3.457834 0
M  V30 39 H 2.547957 -0.000126 2.943041 0
M  V30 40 H 4.106481 -0.805218 2.783620 0
M  V30 41 H 4.211982 -0.573976 -0.860038 0
M  V30 42 H 3.949324 1.149138 -2.511686 0
M  V30 43 H 0.428411 2.527082 -0.593043 0
M  V30 44 H 0.330508 0.115112 2.104067 0
M  V30 45 H -2.193155 4.300360 2.481957 0
M  V30 46 H -4.545868 3.562819 1.091160 0
M  V30 47 H -5.497854 1.845405 -0.369722 0
M  V30 48 H -6.122723 -3.035961 -1.599734 0
M  V30 49 H -5.862156 -2.527301 -3.964235 0
M  V30 50 H -4.550591 -0.508851 -4.669305 0
M  V30 51 H 1.569713 -2.742928 0.508335 0
M  V30 52 H 3.181688 -2.410790 -0.339731 0
M  V30 53 H 3.370730 -4.365666 1.029696 0
M  V30 54 H 5.453744 -3.656225 1.899201 0
M  V30 55 H 5.070878 -2.859606 0.474630 0
M  V30 END ATOM
M  V30 BEGIN BOND
M  V30 1 1 1 2
M  V30 2 1 2 3
M  V30 3 1 3 4
M  V30 4 1 4 5
M  V30 5 1 5 6
M  V30 6 2 6 7
M  V30 7 1 7 8
M  V30 8 2 8 9
M  V30 9 1 9 10
M  V30 10 2 10 11
M  V30 11 1 11 12
M  V30 12 1 12 13
M  V30 13 2 13 14
M  V30 14 1 14 15
M  V30 15 2 15 16
M  V30 16 1 16 17
M  V30 17 2 17 18
M  V30 18 1 18 19
M  V30 19 1 19 20
M  V30 20 2 20 21
M  V30 21 1 21 22
M  V30 22 1 21 23
M  V30 23 2 23 24
M  V30 24 1 24 25
M  V30 25 2 25 26
M  V30 26 1 26 27
M  V30 27 2 19 28
M  V30 28 1 28 29
M  V30 29 1 5 30
M  V30 30 1 30 31
M  V30 31 1 31 32
M  V30 32 1 31 2
M  V30 33 1 11 6
M  V30 34 1 29 13
M  V30 35 1 29 16
M  V30 36 1 26 20
M  V30 37 1 1 33
M  V30 38 1 1 34
M  V30 39 1 1 35
M  V30 40 1 2 36 CFG=1
M  V30 41 1 3 37
M  V30 42 1 3 38
M  V30 43 1 4 39
M  V30 44 1 4 40
M  V30 45 1 7 41
M  V30 46 1 8 42
M  V30 47 1 10 43
M  V30 48 1 12 44
M  V30 49 1 15 45
M  V30 50 1 17 46
M  V30 51 1 18 47
M  V30 52 1 23 48
M  V30 53 1 24 49
M  V30 54 1 25 50
M  V30 55 1 30 51
M  V30 56 1 30 52
M  V30 57 1 31 53 CFG=3
M  V30 58 1 32 54
M  V30 59 1 32 55
M  V30 END BOND
M  V30 END CTAB
M  END
>  <Dataset>  (590) 
ChEMBL_Kinases

>  <Ligand_Instance>  (590) 
nan

>  <PDB_ID>  (590) 
nan

>  <Standardized_SMILES>  (590) 
C[C@@H]1CCN(c2ccncc2Nc2ncc3ccc(-c4c(F)cccc4F)nn23)C[C@H]1N

>  <Name>  (590) 
nan

>  <Pocket>  (590) 
nan

>  <ATP_Site>  (590) 
nan

>  <Peripheral>  (590) 
nan

>  <Num_H_Atoms_ProtBoundConf>  (590) 
nan

>  <Num_Resolved_Atoms>  (590) 
nan

>  <Num_Not_Resolved_Atoms>  (590) 
nan

$$$$
CHEMBL3633152
     RDKit          3D

  0  0  0  0  0  0  0  0  0  0999 V3000
M  V30 BEGIN CTAB
M  V30 COUNTS 68 71 0 0 0
M  V30 BEGIN ATOM
M  V30 1 C 1.414493 -4.445110 3.888181 0
M  V30 2 C 2.677235 -4.099304 3.603471 0
M  V30 3 C 3.456362 -2.858101 3.477593 0
M  V30 4 O 4.587548 -2.379998 3.230514 0
M  V30 5 N 2.561068 -1.766947 3.746406 0
M  V30 6 C 2.780698 -0.350047 3.763716 0
M  V30 7 C 3.183551 0.165157 4.999329 0
M  V30 8 C 3.393130 1.548135 4.994683 0
M  V30 9 C 3.217689 2.344294 3.863430 0
M  V30 10 C 2.816839 1.734938 2.694230 0
M  V30 11 N 2.693381 2.671382 1.636004 0
M  V30 12 C 3.714439 3.491771 1.340423 0
M  V30 13 O 4.766615 3.375275 2.056735 0
M  V30 14 C 3.723755 4.438262 0.340463 0
M  V30 15 C 2.559044 4.525114 -0.408509 0
M  V30 16 C 2.558172 5.544524 -1.488233 0
M  V30 17 C 1.495125 3.695503 -0.127773 0
M  V30 18 C 0.420661 3.922124 -0.973770 0
M  V30 19 N -0.645051 3.114865 -0.717396 0
M  V30 20 C -0.564632 2.201820 0.298532 0
M  V30 21 N -1.739308 1.426916 0.423017 0
M  V30 22 C -2.189651 0.093201 -0.034847 0
M  V30 23 C -0.938202 -0.331833 -0.606029 0
M  V30 24 C -0.890691 -1.620444 -1.157436 0
M  V30 25 C -1.994308 -2.416764 -1.140753 0
M  V30 26 O -2.275163 -3.681630 -1.577438 0
M  V30 27 C -3.483668 -4.375730 -1.474940 0
M  V30 28 C -3.453663 -5.741080 -2.070863 0
M  V30 29 N -3.136087 -5.649425 -3.499401 0
M  V30 30 C -3.149163 -7.002942 -4.078997 0
M  V30 31 C -1.786823 -5.099529 -3.688819 0
M  V30 32 C -3.017943 -1.783204 -0.555896 0
M  V30 33 C -3.472403 -0.657867 0.054443 0
M  V30 34 O -3.926366 0.451195 0.657833 0
M  V30 35 C -5.228754 0.608073 1.125816 0
M  V30 36 N 0.495367 1.988187 1.122946 0
M  V30 37 C 1.580114 2.777261 0.895816 0
M  V30 38 C 2.593417 0.377166 2.631490 0
M  V30 39 H 0.487129 -3.933242 4.133672 0
M  V30 40 H 0.564043 -3.835218 4.117444 0
M  V30 41 H 3.019910 -5.092408 3.472869 0
M  V30 42 H 1.531032 -1.770668 3.991341 0
M  V30 43 H 3.318865 -0.452596 5.862469 0
M  V30 44 H 3.707722 1.977801 5.937388 0
M  V30 45 H 3.418217 3.397306 4.010007 0
M  V30 46 H 4.565491 5.086688 0.126029 0
M  V30 47 H 2.241752 5.094235 -2.447179 0
M  V30 48 H 1.788221 6.311426 -1.214085 0
M  V30 49 H 3.509512 6.060976 -1.592125 0
M  V30 50 H 0.391851 4.639294 -1.749481 0
M  V30 51 H -2.328179 2.097136 1.008733 0
M  V30 52 H 0.072876 0.074910 -0.754067 0
M  V30 53 H -0.068166 -2.124683 -1.627453 0
M  V30 54 H -4.254799 -3.798883 -2.027798 0
M  V30 55 H -3.863710 -4.382686 -0.416412 0
M  V30 56 H -4.504132 -6.123077 -2.049695 0
M  V30 57 H -2.751600 -6.441378 -1.549776 0
M  V30 58 H -2.178617 -7.295081 -4.504643 0
M  V30 59 H -3.423759 -7.719930 -3.270959 0
M  V30 60 H -3.937855 -7.012860 -4.858875 0
M  V30 61 H -1.319750 -5.507204 -4.610110 0
M  V30 62 H -1.208941 -5.369623 -2.777000 0
M  V30 63 H -1.884481 -4.006882 -3.834998 0
M  V30 64 H -4.052353 -2.239411 -0.420968 0
M  V30 65 H -5.896970 -0.034115 0.483695 0
M  V30 66 H -5.309410 0.331519 2.208468 0
M  V30 67 H -5.530620 1.678818 0.961006 0
M  V30 68 H 2.282668 -0.026237 1.683301 0
M  V30 END ATOM
M  V30 BEGIN BOND
M  V30 1 2 1 2
M  V30 2 1 2 3
M  V30 3 2 3 4
M  V30 4 1 3 5
M  V30 5 1 5 6
M  V30 6 2 6 7
M  V30 7 1 7 8
M  V30 8 2 8 9
M  V30 9 1 9 10
M  V30 10 1 10 11
M  V30 11 1 11 12
M  V30 12 2 12 13
M  V30 13 1 12 14
M  V30 14 2 14 15
M  V30 15 1 15 16
M  V30 16 1 15 17
M  V30 17 2 17 18
M  V30 18 1 18 19
M  V30 19 2 19 20
M  V30 20 1 20 21
M  V30 21 1 21 22
M  V30 22 2 22 23
M  V30 23 1 23 24
M  V30 24 2 24 25
M  V30 25 1 25 26
M  V30 26 1 26 27
M  V30 27 1 27 28
M  V30 28 1 28 29
M  V30 29 1 29 30
M  V30 30 1 29 31
M  V30 31 1 25 32
M  V30 32 2 32 33
M  V30 33 1 33 34
M  V30 34 1 34 35
M  V30 35 1 20 36
M  V30 36 2 36 37
M  V30 37 2 10 38
M  V30 38 1 38 6
M  V30 39 1 37 11
M  V30 40 1 37 17
M  V30 41 1 33 22
M  V30 42 1 1 39
M  V30 43 1 1 40
M  V30 44 1 2 41
M  V30 45 1 5 42
M  V30 46 1 7 43
M  V30 47 1 8 44
M  V30 48 1 9 45
M  V30 49 1 14 46
M  V30 50 1 16 47
M  V30 51 1 16 48
M  V30 52 1 16 49
M  V30 53 1 18 50
M  V30 54 1 21 51
M  V30 55 1 23 52
M  V30 56 1 24 53
M  V30 57 1 27 54
M  V30 58 1 27 55
M  V30 59 1 28 56
M  V30 60 1 28 57
M  V30 61 1 30 58
M  V30 62 1 30 59
M  V30 63 1 30 60
M  V30 64 1 31 61
M  V30 65 1 31 62
M  V30 66 1 31 63
M  V30 67 1 32 64
M  V30 68 1 35 65
M  V30 69 1 35 66
M  V30 70 1 35 67
M  V30 71 1 38 68
M  V30 END BOND
M  V30 END CTAB
M  END
>  <Dataset>  (591) 
ChEMBL_Kinases

>  <Ligand_Instance>  (591) 
nan

>  <PDB_ID>  (591) 
nan

>  <Standardized_SMILES>  (591) 
C=CC(=O)Nc1cccc(-n2c(=O)cc(C)c3cnc(Nc4ccc(OCCN(C)C)cc4OC)nc32)c1

>  <Name>  (591) 
nan

>  <Pocket>  (591) 
nan

>  <ATP_Site>  (591) 
nan

>  <Peripheral>  (591) 
nan

>  <Num_H_Atoms_ProtBoundConf>  (591) 
nan

>  <Num_Resolved_Atoms>  (591) 
nan

>  <Num_Not_Resolved_Atoms>  (591) 
nan

$$$$
CHEMBL4072795
     RDKit          3D

  0  0  0  0  0  0  0  0  0  0999 V3000
M  V30 BEGIN CTAB
M  V30 COUNTS 48 53 0 0 0
M  V30 BEGIN ATOM
M  V30 1 C -0.934149 2.504457 0.609795 0
M  V30 2 C 0.537570 2.384664 0.819905 0 CFG=1
M  V30 3 C 0.989675 1.691954 2.046377 0
M  V30 4 C 0.379265 0.820000 2.932235 0
M  V30 5 C 0.997519 0.269948 4.027648 0
M  V30 6 C 2.309820 0.562970 4.322227 0
M  V30 7 F 2.835090 -0.014326 5.405870 0
M  V30 8 C 2.956160 1.414902 3.483426 0
M  V30 9 C 2.326826 1.961578 2.386878 0
M  V30 10 N 1.348071 2.203048 -0.352440 0
M  V30 11 N 2.180904 3.174326 -0.794764 0
M  V30 12 N 2.841505 2.857047 -1.862218 0
M  V30 13 C 2.487948 1.627817 -2.212761 0
M  V30 14 C 2.903216 0.853855 -3.262469 0
M  V30 15 N 2.360249 -0.373743 -3.365681 0
M  V30 16 C 1.445531 -0.784976 -2.447761 0
M  V30 17 C 0.925927 -2.050334 -2.604373 0
M  V30 18 C 0.000568 -2.465383 -1.673090 0
M  V30 19 C -0.428259 -1.678761 -0.597138 0
M  V30 20 C -1.418832 -2.314541 0.278136 0
M  V30 21 C -2.386775 -1.563683 0.942311 0
M  V30 22 C -3.320769 -2.160319 1.771039 0
M  V30 23 C -3.312951 -3.530439 1.959610 0
M  V30 24 C -2.343100 -4.287020 1.294710 0
M  V30 25 C -1.405062 -3.679956 0.461297 0
M  V30 26 O -2.541950 -5.624671 1.643233 0
M  V30 27 C -3.350208 -5.610412 2.814090 0
M  V30 28 O -4.099074 -4.412351 2.711088 0
M  V30 29 C 0.135066 -0.427734 -0.507114 0
M  V30 30 C 1.052197 0.011127 -1.411970 0
M  V30 31 C 1.565226 1.253610 -1.260109 0
M  V30 32 H -1.121339 2.175323 -0.456445 0
M  V30 33 H -1.562099 1.839622 1.233922 0
M  V30 34 H -1.348823 3.529317 0.641845 0
M  V30 35 H 0.774523 3.475935 1.136320 0
M  V30 36 H -0.663943 0.647750 2.616798 0
M  V30 37 H 0.336579 -0.395037 4.598514 0
M  V30 38 H 3.988383 1.644360 3.716632 0
M  V30 39 H 2.962214 2.635893 1.789362 0
M  V30 40 H 3.633540 1.182733 -3.994728 0
M  V30 41 H 1.254226 -2.658299 -3.432398 0
M  V30 42 H -0.380990 -3.456399 -1.829322 0
M  V30 43 H -2.414639 -0.491741 0.812056 0
M  V30 44 H -4.077201 -1.588986 2.292384 0
M  V30 45 H -0.689982 -4.332738 -0.015318 0
M  V30 46 H -4.009327 -6.480306 2.804015 0
M  V30 47 H -2.679851 -5.522179 3.679852 0
M  V30 48 H -0.294451 0.014884 0.343249 0
M  V30 END ATOM
M  V30 BEGIN BOND
M  V30 1 1 1 2
M  V30 2 1 2 3
M  V30 3 2 3 4
M  V30 4 1 4 5
M  V30 5 2 5 6
M  V30 6 1 6 7
M  V30 7 1 6 8
M  V30 8 2 8 9
M  V30 9 1 2 10
M  V30 10 1 10 11
M  V30 11 2 11 12
M  V30 12 1 12 13
M  V30 13 2 13 14
M  V30 14 1 14 15
M  V30 15 2 15 16
M  V30 16 1 16 17
M  V30 17 2 17 18
M  V30 18 1 18 19
M  V30 19 1 19 20
M  V30 20 2 20 21
M  V30 21 1 21 22
M  V30 22 2 22 23
M  V30 23 1 23 24
M  V30 24 2 24 25
M  V30 25 1 24 26
M  V30 26 1 26 27
M  V30 27 1 27 28
M  V30 28 2 19 29
M  V30 29 1 29 30
M  V30 30 2 30 31
M  V30 31 1 9 3
M  V30 32 1 31 10
M  V30 33 1 31 13
M  V30 34 1 30 16
M  V30 35 1 25 20
M  V30 36 1 28 23
M  V30 37 1 1 32
M  V30 38 1 1 33
M  V30 39 1 1 34
M  V30 40 1 2 35 CFG=1
M  V30 41 1 4 36
M  V30 42 1 5 37
M  V30 43 1 8 38
M  V30 44 1 9 39
M  V30 45 1 14 40
M  V30 46 1 17 41
M  V30 47 1 18 42
M  V30 48 1 21 43
M  V30 49 1 22 44
M  V30 50 1 25 45
M  V30 51 1 27 46
M  V30 52 1 27 47
M  V30 53 1 29 48
M  V30 END BOND
M  V30 END CTAB
M  END
>  <Dataset>  (592) 
ChEMBL_Kinases

>  <Ligand_Instance>  (592) 
nan

>  <PDB_ID>  (592) 
nan

>  <Standardized_SMILES>  (592) 
C[C@@H](c1ccc(F)cc1)n1nnc2cnc3ccc(-c4ccc5c(c4)OCO5)cc3c21

>  <Name>  (592) 
nan

>  <Pocket>  (592) 
nan

>  <ATP_Site>  (592) 
nan

>  <Peripheral>  (592) 
nan

>  <Num_H_Atoms_ProtBoundConf>  (592) 
nan

>  <Num_Resolved_Atoms>  (592) 
nan

>  <Num_Not_Resolved_Atoms>  (592) 
nan

$$$$
CHEMBL3884960
     RDKit          3D

  0  0  0  0  0  0  0  0  0  0999 V3000
M  V30 BEGIN CTAB
M  V30 COUNTS 58 61 0 0 0
M  V30 BEGIN ATOM
M  V30 1 C -8.388804 -0.957592 1.540897 0
M  V30 2 C -7.347237 -0.263615 1.198340 0
M  V30 3 C -5.912727 -0.402012 1.090991 0
M  V30 4 O -4.919154 -1.150242 1.234368 0
M  V30 5 N -5.243998 0.798393 0.614610 0
M  V30 6 C -3.833171 0.451140 0.602320 0
M  V30 7 C -3.326829 0.881919 1.806911 0
M  V30 8 C -1.989768 0.691143 2.119112 0
M  V30 9 C -1.166627 0.059929 1.202209 0
M  V30 10 C -1.746313 -0.342485 0.021759 0
M  V30 11 C -3.063690 -0.182246 -0.346108 0
M  V30 12 O -3.756182 -0.527121 -1.463438 0
M  V30 13 C -3.264708 -1.152088 -2.604117 0
M  V30 14 N -1.988058 -1.465298 -2.811438 0
M  V30 15 C -1.534784 -2.075823 -3.921787 0
M  V30 16 N -0.132093 -2.355834 -4.111769 0
M  V30 17 C 0.863950 -1.715959 -3.323997 0
M  V30 18 C 2.090555 -2.203144 -2.943096 0
M  V30 19 C 2.965236 -1.444948 -2.208663 0
M  V30 20 C 2.710757 -0.158030 -1.791945 0
M  V30 21 N 3.579562 0.660405 -1.013120 0
M  V30 22 C 3.272175 2.071077 -0.910471 0
M  V30 23 C 4.380800 2.755226 -0.171928 0
M  V30 24 N 4.407832 2.175767 1.158396 0
M  V30 25 C 3.176951 2.298436 1.868546 0
M  V30 26 C 4.828845 0.808600 1.094031 0
M  V30 27 C 4.739983 0.224298 -0.292344 0
M  V30 28 C 1.475444 0.328326 -2.178358 0
M  V30 29 C 0.584647 -0.416082 -2.914029 0
M  V30 30 N -2.426442 -2.402179 -4.906835 0
M  V30 31 C -3.737201 -2.070499 -4.676044 0
M  V30 32 C -4.222212 -1.445678 -3.549202 0
M  V30 33 Cl -5.899586 -1.061212 -3.346497 0
M  V30 34 H -9.399094 -1.234127 1.742382 0
M  V30 35 H -8.740123 -1.942658 1.836055 0
M  V30 36 H -7.867102 0.642414 0.952073 0
M  V30 37 H -5.785660 1.686416 0.360640 0
M  V30 38 H -3.799617 1.389366 2.641597 0
M  V30 39 H -1.459506 0.980599 3.034763 0
M  V30 40 H -0.108285 -0.149349 1.327287 0
M  V30 41 H -1.147959 -0.843640 -0.710138 0
M  V30 42 H 0.120566 -3.060752 -4.865878 0
M  V30 43 H 2.313542 -3.217312 -3.258885 0
M  V30 44 H 3.928011 -1.873030 -1.927646 0
M  V30 45 H 3.165272 2.540875 -1.910764 0
M  V30 46 H 2.316451 2.236302 -0.383379 0
M  V30 47 H 5.343241 2.483821 -0.662107 0
M  V30 48 H 4.275915 3.853646 -0.154143 0
M  V30 49 H 3.418680 2.263454 2.970627 0
M  V30 50 H 2.506559 1.405898 1.705234 0
M  V30 51 H 2.613116 3.233289 1.667668 0
M  V30 52 H 4.138452 0.212314 1.735546 0
M  V30 53 H 5.830259 0.686905 1.543735 0
M  V30 54 H 4.706669 -0.896108 -0.229760 0
M  V30 55 H 5.648981 0.500792 -0.855611 0
M  V30 56 H 1.242728 1.357506 -1.860362 0
M  V30 57 H -0.328800 0.133782 -3.128877 0
M  V30 58 H -4.396656 -2.347789 -5.477616 0
M  V30 END ATOM
M  V30 BEGIN BOND
M  V30 1 2 1 2
M  V30 2 1 2 3
M  V30 3 2 3 4
M  V30 4 1 3 5
M  V30 5 1 5 6
M  V30 6 2 6 7
M  V30 7 1 7 8
M  V30 8 2 8 9
M  V30 9 1 9 10
M  V30 10 2 10 11
M  V30 11 1 11 12
M  V30 12 1 12 13
M  V30 13 2 13 14
M  V30 14 1 14 15
M  V30 15 1 15 16
M  V30 16 1 16 17
M  V30 17 2 17 18
M  V30 18 1 18 19
M  V30 19 2 19 20
M  V30 20 1 20 21
M  V30 21 1 21 22
M  V30 22 1 22 23
M  V30 23 1 23 24
M  V30 24 1 24 25
M  V30 25 1 24 26
M  V30 26 1 26 27
M  V30 27 1 20 28
M  V30 28 2 28 29
M  V30 29 2 15 30
M  V30 30 1 30 31
M  V30 31 2 31 32
M  V30 32 1 32 33
M  V30 33 1 11 6
M  V30 34 1 32 13
M  V30 35 1 29 17
M  V30 36 1 27 21
M  V30 37 1 1 34
M  V30 38 1 1 35
M  V30 39 1 2 36
M  V30 40 1 5 37
M  V30 41 1 7 38
M  V30 42 1 8 39
M  V30 43 1 9 40
M  V30 44 1 10 41
M  V30 45 1 16 42
M  V30 46 1 18 43
M  V30 47 1 19 44
M  V30 48 1 22 45
M  V30 49 1 22 46
M  V30 50 1 23 47
M  V30 51 1 23 48
M  V30 52 1 25 49
M  V30 53 1 25 50
M  V30 54 1 25 51
M  V30 55 1 26 52
M  V30 56 1 26 53
M  V30 57 1 27 54
M  V30 58 1 27 55
M  V30 59 1 28 56
M  V30 60 1 29 57
M  V30 61 1 31 58
M  V30 END BOND
M  V30 END CTAB
M  END
>  <Dataset>  (593) 
ChEMBL_Kinases

>  <Ligand_Instance>  (593) 
nan

>  <PDB_ID>  (593) 
nan

>  <Standardized_SMILES>  (593) 
C=CC(=O)Nc1ccccc1Oc1nc(Nc2ccc(N3CCN(C)CC3)cc2)ncc1Cl

>  <Name>  (593) 
nan

>  <Pocket>  (593) 
nan

>  <ATP_Site>  (593) 
nan

>  <Peripheral>  (593) 
nan

>  <Num_H_Atoms_ProtBoundConf>  (593) 
nan

>  <Num_Resolved_Atoms>  (593) 
nan

>  <Num_Not_Resolved_Atoms>  (593) 
nan

$$$$
CHEMBL4072686
     RDKit          3D

  0  0  0  0  0  0  0  0  0  0999 V3000
M  V30 BEGIN CTAB
M  V30 COUNTS 37 39 0 0 0
M  V30 BEGIN ATOM
M  V30 1 N 1.453904 -6.542084 2.624060 0
M  V30 2 S 2.779879 -5.424057 2.761872 0
M  V30 3 O 2.775102 -4.730325 4.101413 0
M  V30 4 O 4.056528 -6.233905 2.645588 0
M  V30 5 C 2.762186 -4.261410 1.452031 0
M  V30 6 C 3.409785 -4.441447 0.236634 0
M  V30 7 C 3.363014 -3.492548 -0.761305 0
M  V30 8 C 2.667086 -2.316280 -0.595330 0
M  V30 9 C 2.004162 -2.097609 0.608955 0
M  V30 10 N 1.284121 -0.881476 0.781709 0
M  V30 11 C 1.290927 0.061077 -0.326764 0
M  V30 12 C 0.505013 1.286688 -0.020068 0
M  V30 13 N -0.807067 1.466971 -0.263409 0
M  V30 14 C -1.181982 2.703282 0.146695 0
M  V30 15 C -2.566794 3.139089 -0.010738 0
M  V30 16 C -2.980242 4.128118 -0.876127 0
M  V30 17 C -4.334090 4.462631 -0.942815 0
M  V30 18 N -5.269483 3.848796 -0.183807 0
M  V30 19 C -4.887411 2.886512 0.661942 0
M  V30 20 C -3.545871 2.525570 0.756103 0
M  V30 21 N -0.065566 3.278086 0.648542 0
M  V30 22 N 0.950969 2.432602 0.551340 0
M  V30 23 C 2.067128 -3.064243 1.591851 0
M  V30 24 H 1.246783 -6.957242 3.559961 0
M  V30 25 H 0.602764 -5.935122 2.428371 0
M  V30 26 H 3.950504 -5.390783 0.148751 0
M  V30 27 H 3.884526 -3.683807 -1.686391 0
M  V30 28 H 2.654627 -1.602004 -1.396547 0
M  V30 29 H 0.798584 -0.739962 1.685409 0
M  V30 30 H 2.309299 0.290013 -0.681192 0
M  V30 31 H 0.762458 -0.463280 -1.172455 0
M  V30 32 H -2.233289 4.617421 -1.481395 0
M  V30 33 H -4.629709 5.244689 -1.632931 0
M  V30 34 H -5.654200 2.407688 1.260916 0
M  V30 35 H -3.289774 1.740523 1.456427 0
M  V30 36 H 1.928379 2.622120 0.863705 0
M  V30 37 H 1.535396 -2.840715 2.501973 0
M  V30 END ATOM
M  V30 BEGIN BOND
M  V30 1 1 1 2
M  V30 2 2 2 3
M  V30 3 2 2 4
M  V30 4 1 2 5
M  V30 5 2 5 6
M  V30 6 1 6 7
M  V30 7 2 7 8
M  V30 8 1 8 9
M  V30 9 1 9 10
M  V30 10 1 10 11
M  V30 11 1 11 12
M  V30 12 2 12 13
M  V30 13 1 13 14
M  V30 14 1 14 15
M  V30 15 2 15 16
M  V30 16 1 16 17
M  V30 17 2 17 18
M  V30 18 1 18 19
M  V30 19 2 19 20
M  V30 20 2 14 21
M  V30 21 1 21 22
M  V30 22 2 9 23
M  V30 23 1 23 5
M  V30 24 1 22 12
M  V30 25 1 20 15
M  V30 26 1 1 24
M  V30 27 1 1 25
M  V30 28 1 6 26
M  V30 29 1 7 27
M  V30 30 1 8 28
M  V30 31 1 10 29
M  V30 32 1 11 30
M  V30 33 1 11 31
M  V30 34 1 16 32
M  V30 35 1 17 33
M  V30 36 1 19 34
M  V30 37 1 20 35
M  V30 38 1 22 36
M  V30 39 1 23 37
M  V30 END BOND
M  V30 END CTAB
M  END
>  <Dataset>  (594) 
ChEMBL_Kinases

>  <Ligand_Instance>  (594) 
nan

>  <PDB_ID>  (594) 
nan

>  <Standardized_SMILES>  (594) 
NS(=O)(=O)c1cccc(NCc2nc(-c3ccncc3)n[nH]2)c1

>  <Name>  (594) 
nan

>  <Pocket>  (594) 
nan

>  <ATP_Site>  (594) 
nan

>  <Peripheral>  (594) 
nan

>  <Num_H_Atoms_ProtBoundConf>  (594) 
nan

>  <Num_Resolved_Atoms>  (594) 
nan

>  <Num_Not_Resolved_Atoms>  (594) 
nan

$$$$
CHEMBL3634704
     RDKit          3D

  0  0  0  0  0  0  0  0  0  0999 V3000
M  V30 BEGIN CTAB
M  V30 COUNTS 48 52 0 0 0
M  V30 BEGIN ATOM
M  V30 1 C -0.168142 -3.306067 4.500967 0
M  V30 2 C 0.527978 -3.443371 3.187539 0
M  V30 3 C 1.189095 -4.618247 2.910148 0
M  V30 4 C 1.846750 -4.787433 1.706138 0
M  V30 5 C 1.852454 -3.786702 0.764962 0
M  V30 6 F 2.431764 -3.763912 -0.455202 0
M  V30 7 C 1.176274 -2.604020 1.066263 0
M  V30 8 C 1.022651 -1.397488 0.263069 0
M  V30 9 N 1.960642 -0.558648 -0.209200 0
M  V30 10 C 1.416154 0.469790 -0.928122 0
M  V30 11 C 2.357405 1.476953 -1.515819 0
M  V30 12 N 2.659810 2.566500 -0.645313 0
M  V30 13 C 1.868913 3.589006 -0.108334 0
M  V30 14 C 2.340784 4.577474 0.764934 0
M  V30 15 C 1.487542 5.546653 1.231324 0
M  V30 16 C 0.154362 5.622431 0.892613 0
M  V30 17 C -0.337189 4.660567 0.033201 0
M  V30 18 C 0.533789 3.674592 -0.440512 0
M  V30 19 N 0.089613 0.249080 -0.892993 0
M  V30 20 C -0.164532 -0.859529 -0.187499 0
M  V30 21 C -1.498650 -1.396368 0.055329 0
M  V30 22 C -2.524353 -0.754857 0.712712 0
M  V30 23 C -3.714251 -1.468795 0.825404 0
M  V30 24 C -3.873833 -2.741050 0.316129 0
M  V30 25 N -4.935093 -3.588152 0.322973 0
M  V30 26 C -4.547911 -4.715138 -0.319385 0
M  V30 27 N -3.273047 -4.550337 -0.707690 0
M  V30 28 N -2.834982 -3.344953 -0.329319 0
M  V30 29 C -1.658149 -2.682646 -0.460281 0
M  V30 30 N 0.551747 -2.485714 2.248990 0
M  V30 31 H -1.080152 -3.938335 4.567149 0
M  V30 32 H -0.479938 -2.250037 4.679273 0
M  V30 33 H 0.500470 -3.556770 5.353410 0
M  V30 34 H 1.221167 -5.455529 3.620529 0
M  V30 35 H 2.392530 -5.678336 1.403759 0
M  V30 36 H 2.969740 -0.771408 0.013214 0
M  V30 37 H 3.246714 0.972369 -1.889668 0
M  V30 38 H 1.793581 1.908549 -2.385832 0
M  V30 39 H 3.666846 2.623692 -0.341027 0
M  V30 40 H 3.377157 4.541820 1.045611 0
M  V30 41 H 1.913314 6.290442 1.909237 0
M  V30 42 H -0.463460 6.410200 1.294297 0
M  V30 43 H -1.371924 4.739865 -0.214540 0
M  V30 44 H 0.014064 3.000474 -1.101731 0
M  V30 45 H -2.326431 0.219934 1.075643 0
M  V30 46 H -4.525327 -0.945201 1.352618 0
M  V30 47 H -5.138920 -5.614969 -0.506277 0
M  V30 48 H -0.903001 -3.243595 -0.983967 0
M  V30 END ATOM
M  V30 BEGIN BOND
M  V30 1 1 1 2
M  V30 2 2 2 3
M  V30 3 1 3 4
M  V30 4 2 4 5
M  V30 5 1 5 6
M  V30 6 1 5 7
M  V30 7 1 7 8
M  V30 8 1 8 9
M  V30 9 1 9 10
M  V30 10 1 10 11
M  V30 11 1 11 12
M  V30 12 1 12 13
M  V30 13 2 13 14
M  V30 14 1 14 15
M  V30 15 2 15 16
M  V30 16 1 16 17
M  V30 17 2 17 18
M  V30 18 2 10 19
M  V30 19 1 19 20
M  V30 20 1 20 21
M  V30 21 1 21 22
M  V30 22 2 22 23
M  V30 23 1 23 24
M  V30 24 2 24 25
M  V30 25 1 25 26
M  V30 26 2 26 27
M  V30 27 1 27 28
M  V30 28 1 28 29
M  V30 29 2 7 30
M  V30 30 1 30 2
M  V30 31 2 20 8
M  V30 32 2 29 21
M  V30 33 1 18 13
M  V30 34 1 28 24
M  V30 35 1 1 31
M  V30 36 1 1 32
M  V30 37 1 1 33
M  V30 38 1 3 34
M  V30 39 1 4 35
M  V30 40 1 9 36
M  V30 41 1 11 37
M  V30 42 1 11 38
M  V30 43 1 12 39
M  V30 44 1 14 40
M  V30 45 1 15 41
M  V30 46 1 16 42
M  V30 47 1 17 43
M  V30 48 1 18 44
M  V30 49 1 22 45
M  V30 50 1 23 46
M  V30 51 1 26 47
M  V30 52 1 29 48
M  V30 END BOND
M  V30 END CTAB
M  END
>  <Dataset>  (595) 
ChEMBL_Kinases

>  <Ligand_Instance>  (595) 
nan

>  <PDB_ID>  (595) 
nan

>  <Standardized_SMILES>  (595) 
Cc1ccc(F)c(-c2[nH]c(CNc3ccccc3)nc2-c2ccc3ncnn3c2)n1

>  <Name>  (595) 
nan

>  <Pocket>  (595) 
nan

>  <ATP_Site>  (595) 
nan

>  <Peripheral>  (595) 
nan

>  <Num_H_Atoms_ProtBoundConf>  (595) 
nan

>  <Num_Resolved_Atoms>  (595) 
nan

>  <Num_Not_Resolved_Atoms>  (595) 
nan

$$$$
CHEMBL3634705
     RDKit          3D

  0  0  0  0  0  0  0  0  0  0999 V3000
M  V30 BEGIN CTAB
M  V30 COUNTS 48 52 0 0 0
M  V30 BEGIN ATOM
M  V30 1 C -0.135990 -1.257858 6.337721 0
M  V30 2 C 0.253244 -1.502107 4.923398 0
M  V30 3 C 1.250778 -2.449322 4.714526 0
M  V30 4 C 1.604049 -2.667675 3.383049 0
M  V30 5 C 0.978838 -1.966555 2.353466 0
M  V30 6 F 1.435065 -2.294002 1.111434 0
M  V30 7 C -0.017890 -1.026118 2.627030 0
M  V30 8 C -0.611437 -0.346985 1.482931 0
M  V30 9 N -0.523768 0.977693 1.283085 0
M  V30 10 C -1.146994 1.356331 0.165437 0
M  V30 11 C -1.427117 2.576628 -0.632844 0
M  V30 12 N -0.478241 2.812304 -1.679169 0
M  V30 13 C 0.889330 3.087052 -1.765904 0
M  V30 14 C 1.603524 3.185636 -0.597408 0
M  V30 15 C 2.964796 3.458951 -0.574494 0
M  V30 16 C 3.639913 3.641423 -1.763531 0
M  V30 17 C 2.919855 3.541743 -2.932637 0
M  V30 18 C 1.577012 3.272751 -2.971480 0
M  V30 19 F 0.853860 3.170782 -4.131567 0
M  V30 20 N -1.656017 0.211917 -0.370484 0
M  V30 21 C -1.340312 -0.831509 0.416394 0
M  V30 22 C -1.638234 -2.254205 0.296340 0
M  V30 23 C -2.461071 -2.936478 1.202339 0
M  V30 24 C -2.641392 -4.293842 0.947509 0
M  V30 25 C -2.061743 -4.947710 -0.116575 0
M  V30 26 N -2.102742 -6.225037 -0.536246 0
M  V30 27 C -1.339806 -6.348720 -1.658961 0
M  V30 28 N -0.834026 -5.102379 -1.906012 0
M  V30 29 N -1.275502 -4.274419 -0.974083 0
M  V30 30 C -1.077361 -2.962933 -0.761917 0
M  V30 31 N -0.308274 -0.864302 3.911702 0
M  V30 32 H -1.222631 -0.984271 6.360435 0
M  V30 33 H 0.395204 -0.338808 6.669542 0
M  V30 34 H 0.095094 -2.126780 6.988671 0
M  V30 35 H 1.727453 -2.987518 5.521743 0
M  V30 36 H 2.378986 -3.403697 3.228456 0
M  V30 37 H -0.069097 1.731247 1.840168 0
M  V30 38 H -2.465951 2.643011 -0.962670 0
M  V30 39 H -1.298884 3.430183 0.088032 0
M  V30 40 H -0.936977 2.765034 -2.641792 0
M  V30 41 H 1.240053 3.076683 0.405519 0
M  V30 42 H 3.594015 3.551123 0.300900 0
M  V30 43 H 4.683629 3.858042 -1.938072 0
M  V30 44 H 3.334207 3.665271 -3.908759 0
M  V30 45 H -2.898356 -2.413947 2.016286 0
M  V30 46 H -3.265613 -4.876139 1.610806 0
M  V30 47 H -1.007405 -7.066010 -2.394013 0
M  V30 48 H -0.432049 -2.431691 -1.473574 0
M  V30 END ATOM
M  V30 BEGIN BOND
M  V30 1 1 1 2
M  V30 2 2 2 3
M  V30 3 1 3 4
M  V30 4 2 4 5
M  V30 5 1 5 6
M  V30 6 1 5 7
M  V30 7 1 7 8
M  V30 8 1 8 9
M  V30 9 1 9 10
M  V30 10 1 10 11
M  V30 11 1 11 12
M  V30 12 1 12 13
M  V30 13 2 13 14
M  V30 14 1 14 15
M  V30 15 2 15 16
M  V30 16 1 16 17
M  V30 17 2 17 18
M  V30 18 1 18 19
M  V30 19 2 10 20
M  V30 20 1 20 21
M  V30 21 1 21 22
M  V30 22 1 22 23
M  V30 23 2 23 24
M  V30 24 1 24 25
M  V30 25 2 25 26
M  V30 26 1 26 27
M  V30 27 2 27 28
M  V30 28 1 28 29
M  V30 29 1 29 30
M  V30 30 2 7 31
M  V30 31 1 31 2
M  V30 32 2 21 8
M  V30 33 2 30 22
M  V30 34 1 18 13
M  V30 35 1 29 25
M  V30 36 1 1 32
M  V30 37 1 1 33
M  V30 38 1 1 34
M  V30 39 1 3 35
M  V30 40 1 4 36
M  V30 41 1 9 37
M  V30 42 1 11 38
M  V30 43 1 11 39
M  V30 44 1 12 40
M  V30 45 1 14 41
M  V30 46 1 15 42
M  V30 47 1 16 43
M  V30 48 1 17 44
M  V30 49 1 23 45
M  V30 50 1 24 46
M  V30 51 1 27 47
M  V30 52 1 30 48
M  V30 END BOND
M  V30 END CTAB
M  END
>  <Dataset>  (596) 
ChEMBL_Kinases

>  <Ligand_Instance>  (596) 
nan

>  <PDB_ID>  (596) 
nan

>  <Standardized_SMILES>  (596) 
Cc1ccc(F)c(-c2[nH]c(CNc3ccccc3F)nc2-c2ccc3ncnn3c2)n1

>  <Name>  (596) 
nan

>  <Pocket>  (596) 
nan

>  <ATP_Site>  (596) 
nan

>  <Peripheral>  (596) 
nan

>  <Num_H_Atoms_ProtBoundConf>  (596) 
nan

>  <Num_Resolved_Atoms>  (596) 
nan

>  <Num_Not_Resolved_Atoms>  (596) 
nan

$$$$
CHEMBL3885038
     RDKit          3D

  0  0  0  0  0  0  0  0  0  0999 V3000
M  V30 BEGIN CTAB
M  V30 COUNTS 61 64 0 0 0
M  V30 BEGIN ATOM
M  V30 1 C 1.526644 -2.486409 0.364727 0
M  V30 2 C 2.502007 -2.160721 -0.457002 0
M  V30 3 C 3.373789 -1.085054 -0.887450 0
M  V30 4 O 4.160011 -1.464322 -1.791231 0
M  V30 5 N 3.231825 0.183215 -0.264731 0
M  V30 6 C 4.027951 1.304460 -0.596936 0
M  V30 7 C 5.194783 1.435799 0.133563 0
M  V30 8 C 6.040603 2.493832 -0.102654 0
M  V30 9 C 5.759155 3.461157 -1.073771 0
M  V30 10 C 4.575490 3.292598 -1.786609 0
M  V30 11 C 3.713405 2.229821 -1.558824 0
M  V30 12 O 2.568155 2.153659 -2.315792 0
M  V30 13 C 1.278099 2.160246 -1.825235 0
M  V30 14 N 0.739239 2.182187 -0.586920 0
M  V30 15 C -0.600293 2.186469 -0.405789 0
M  V30 16 N -1.031724 2.168180 0.973644 0
M  V30 17 C -1.570109 0.889054 1.367165 0
M  V30 18 C -1.962151 0.582947 2.648147 0
M  V30 19 C -2.511269 -0.620923 3.075903 0
M  V30 20 C -2.671704 -1.591107 2.107911 0
M  V30 21 N -3.250722 -2.879728 2.413851 0
M  V30 22 C -3.759308 -3.341895 3.679652 0
M  V30 23 C -3.200020 -4.707032 3.965279 0
M  V30 24 N -3.492143 -5.684742 2.933433 0
M  V30 25 C -2.330507 -6.475167 2.571425 0
M  V30 26 C -4.097993 -5.064200 1.768142 0
M  V30 27 C -3.355184 -3.849480 1.318782 0
M  V30 28 C -2.302503 -1.368097 0.791249 0
M  V30 29 C -1.767574 -0.142817 0.469365 0
M  V30 30 N -1.472211 2.169795 -1.456146 0
M  V30 31 C -0.991787 2.146277 -2.730717 0
M  V30 32 C 0.396132 2.141624 -2.905701 0
M  V30 33 C 0.730732 2.120805 -4.372610 0
M  V30 34 H 0.781538 -3.053716 0.869260 0
M  V30 35 H 1.142927 -1.714980 1.040673 0
M  V30 36 H 2.465151 -3.179715 -0.815472 0
M  V30 37 H 2.512255 0.311328 0.477453 0
M  V30 38 H 5.548285 0.775188 0.909511 0
M  V30 39 H 6.958062 2.651077 0.430915 0
M  V30 40 H 6.403627 4.301279 -1.280322 0
M  V30 41 H 4.369675 4.054911 -2.536794 0
M  V30 42 H -1.031254 2.885642 1.738045 0
M  V30 43 H -1.843183 1.331780 3.420675 0
M  V30 44 H -2.795701 -0.795873 4.096944 0
M  V30 45 H -3.473636 -2.675721 4.513971 0
M  V30 46 H -4.874133 -3.456583 3.622610 0
M  V30 47 H -3.717163 -5.074419 4.892603 0
M  V30 48 H -2.119583 -4.656402 4.167176 0
M  V30 49 H -2.524956 -7.562674 2.567372 0
M  V30 50 H -1.503187 -6.289662 3.273201 0
M  V30 51 H -1.959734 -6.178158 1.546859 0
M  V30 52 H -4.119098 -5.816385 0.964444 0
M  V30 53 H -5.139757 -4.785417 2.054424 0
M  V30 54 H -2.372087 -4.110033 0.906567 0
M  V30 55 H -3.954806 -3.377280 0.486393 0
M  V30 56 H -2.422704 -2.126518 0.011310 0
M  V30 57 H -1.494182 -0.014377 -0.571289 0
M  V30 58 H -1.739107 2.131290 -3.501557 0
M  V30 59 H 1.767104 2.403231 -4.558452 0
M  V30 60 H 0.100345 2.853144 -4.922502 0
M  V30 61 H 0.556670 1.128002 -4.832704 0
M  V30 END ATOM
M  V30 BEGIN BOND
M  V30 1 2 1 2
M  V30 2 1 2 3
M  V30 3 2 3 4
M  V30 4 1 3 5
M  V30 5 1 5 6
M  V30 6 2 6 7
M  V30 7 1 7 8
M  V30 8 2 8 9
M  V30 9 1 9 10
M  V30 10 2 10 11
M  V30 11 1 11 12
M  V30 12 1 12 13
M  V30 13 2 13 14
M  V30 14 1 14 15
M  V30 15 1 15 16
M  V30 16 1 16 17
M  V30 17 2 17 18
M  V30 18 1 18 19
M  V30 19 2 19 20
M  V30 20 1 20 21
M  V30 21 1 21 22
M  V30 22 1 22 23
M  V30 23 1 23 24
M  V30 24 1 24 25
M  V30 25 1 24 26
M  V30 26 1 26 27
M  V30 27 1 20 28
M  V30 28 2 28 29
M  V30 29 2 15 30
M  V30 30 1 30 31
M  V30 31 2 31 32
M  V30 32 1 32 33
M  V30 33 1 11 6
M  V30 34 1 32 13
M  V30 35 1 29 17
M  V30 36 1 27 21
M  V30 37 1 1 34
M  V30 38 1 1 35
M  V30 39 1 2 36
M  V30 40 1 5 37
M  V30 41 1 7 38
M  V30 42 1 8 39
M  V30 43 1 9 40
M  V30 44 1 10 41
M  V30 45 1 16 42
M  V30 46 1 18 43
M  V30 47 1 19 44
M  V30 48 1 22 45
M  V30 49 1 22 46
M  V30 50 1 23 47
M  V30 51 1 23 48
M  V30 52 1 25 49
M  V30 53 1 25 50
M  V30 54 1 25 51
M  V30 55 1 26 52
M  V30 56 1 26 53
M  V30 57 1 27 54
M  V30 58 1 27 55
M  V30 59 1 28 56
M  V30 60 1 29 57
M  V30 61 1 31 58
M  V30 62 1 33 59
M  V30 63 1 33 60
M  V30 64 1 33 61
M  V30 END BOND
M  V30 END CTAB
M  END
>  <Dataset>  (597) 
ChEMBL_Kinases

>  <Ligand_Instance>  (597) 
nan

>  <PDB_ID>  (597) 
nan

>  <Standardized_SMILES>  (597) 
C=CC(=O)Nc1ccccc1Oc1nc(Nc2ccc(N3CCN(C)CC3)cc2)ncc1C

>  <Name>  (597) 
nan

>  <Pocket>  (597) 
nan

>  <ATP_Site>  (597) 
nan

>  <Peripheral>  (597) 
nan

>  <Num_H_Atoms_ProtBoundConf>  (597) 
nan

>  <Num_Resolved_Atoms>  (597) 
nan

>  <Num_Not_Resolved_Atoms>  (597) 
nan

$$$$
CHEMBL3634706
     RDKit          3D

  0  0  0  0  0  0  0  0  0  0999 V3000
M  V30 BEGIN CTAB
M  V30 COUNTS 49 53 0 0 0
M  V30 BEGIN ATOM
M  V30 1 C 3.984418 -4.946589 1.213099 0
M  V30 2 C 3.140477 -3.903265 1.851245 0
M  V30 3 C 2.826539 -4.047221 3.189100 0
M  V30 4 C 2.047962 -3.129680 3.870078 0
M  V30 5 C 1.588392 -2.039124 3.136554 0
M  V30 6 F 0.822487 -1.126521 3.786310 0
M  V30 7 C 1.900284 -1.885223 1.784846 0
M  V30 8 C 1.387283 -0.721869 1.074630 0
M  V30 9 N 1.588239 0.591698 1.276789 0
M  V30 10 C 0.909653 1.355661 0.372375 0
M  V30 11 C 1.073007 2.839870 0.510110 0
M  V30 12 N 0.109413 3.427191 1.411883 0
M  V30 13 C -1.291359 3.511658 1.269481 0
M  V30 14 C -2.001956 3.051621 0.189374 0
M  V30 15 C -3.370695 3.119326 0.038752 0
M  V30 16 C -4.096920 3.700036 1.060471 0
M  V30 17 C -3.422942 4.175306 2.163071 0
M  V30 18 C -4.179555 4.781757 3.230232 0
M  V30 19 N -4.784899 5.251901 4.094605 0
M  V30 20 C -2.053410 4.081947 2.262157 0
M  V30 21 N 0.271950 0.490204 -0.410205 0
M  V30 22 C 0.540192 -0.762526 -0.012222 0
M  V30 23 C -0.035075 -1.902002 -0.704042 0
M  V30 24 C -0.884100 -2.730963 0.033991 0
M  V30 25 C -1.473570 -3.836980 -0.549597 0
M  V30 26 C -1.195778 -4.092397 -1.878842 0
M  V30 27 N -1.627158 -5.090724 -2.697274 0
M  V30 28 C -1.054208 -4.869187 -3.893677 0
M  V30 29 N -0.287938 -3.777565 -3.849736 0
M  V30 30 N -0.375253 -3.299719 -2.609436 0
M  V30 31 C 0.191421 -2.226222 -2.027519 0
M  V30 32 N 2.658312 -2.826142 1.220325 0
M  V30 33 H 3.888480 -4.928363 0.106670 0
M  V30 34 H 3.805327 -5.948478 1.637992 0
M  V30 35 H 5.049000 -4.626017 1.402272 0
M  V30 36 H 3.196413 -4.900760 3.730275 0
M  V30 37 H 1.797454 -3.236680 4.920262 0
M  V30 38 H 2.225475 0.851911 2.084679 0
M  V30 39 H 2.109674 3.100642 0.782948 0
M  V30 40 H 0.919979 3.259063 -0.535492 0
M  V30 41 H 0.534141 3.842905 2.288964 0
M  V30 42 H -1.485311 2.597575 -0.635436 0
M  V30 43 H -3.872364 2.732899 -0.847605 0
M  V30 44 H -5.173622 3.758707 0.952557 0
M  V30 45 H -1.585272 4.474314 3.153712 0
M  V30 46 H -1.128078 -2.570765 1.069010 0
M  V30 47 H -2.140212 -4.516877 -0.029724 0
M  V30 48 H -1.307925 -5.595081 -4.662606 0
M  V30 49 H 0.854529 -1.566700 -2.579804 0
M  V30 END ATOM
M  V30 BEGIN BOND
M  V30 1 1 1 2
M  V30 2 2 2 3
M  V30 3 1 3 4
M  V30 4 2 4 5
M  V30 5 1 5 6
M  V30 6 1 5 7
M  V30 7 1 7 8
M  V30 8 1 8 9
M  V30 9 1 9 10
M  V30 10 1 10 11
M  V30 11 1 11 12
M  V30 12 1 12 13
M  V30 13 2 13 14
M  V30 14 1 14 15
M  V30 15 2 15 16
M  V30 16 1 16 17
M  V30 17 1 17 18
M  V30 18 3 18 19
M  V30 19 2 17 20
M  V30 20 2 10 21
M  V30 21 1 21 22
M  V30 22 1 22 23
M  V30 23 1 23 24
M  V30 24 2 24 25
M  V30 25 1 25 26
M  V30 26 2 26 27
M  V30 27 1 27 28
M  V30 28 2 28 29
M  V30 29 1 29 30
M  V30 30 1 30 31
M  V30 31 2 7 32
M  V30 32 1 32 2
M  V30 33 2 22 8
M  V30 34 2 31 23
M  V30 35 1 20 13
M  V30 36 1 30 26
M  V30 37 1 1 33
M  V30 38 1 1 34
M  V30 39 1 1 35
M  V30 40 1 3 36
M  V30 41 1 4 37
M  V30 42 1 9 38
M  V30 43 1 11 39
M  V30 44 1 11 40
M  V30 45 1 12 41
M  V30 46 1 14 42
M  V30 47 1 15 43
M  V30 48 1 16 44
M  V30 49 1 20 45
M  V30 50 1 24 46
M  V30 51 1 25 47
M  V30 52 1 28 48
M  V30 53 1 31 49
M  V30 END BOND
M  V30 END CTAB
M  END
>  <Dataset>  (598) 
ChEMBL_Kinases

>  <Ligand_Instance>  (598) 
nan

>  <PDB_ID>  (598) 
nan

>  <Standardized_SMILES>  (598) 
Cc1ccc(F)c(-c2[nH]c(CNc3cccc(C#N)c3)nc2-c2ccc3ncnn3c2)n1

>  <Name>  (598) 
nan

>  <Pocket>  (598) 
nan

>  <ATP_Site>  (598) 
nan

>  <Peripheral>  (598) 
nan

>  <Num_H_Atoms_ProtBoundConf>  (598) 
nan

>  <Num_Resolved_Atoms>  (598) 
nan

>  <Num_Not_Resolved_Atoms>  (598) 
nan

$$$$
CHEMBL3634707
     RDKit          3D

  0  0  0  0  0  0  0  0  0  0999 V3000
M  V30 BEGIN CTAB
M  V30 COUNTS 52 56 0 0 0
M  V30 BEGIN ATOM
M  V30 1 C 4.744896 -4.584032 1.781137 0
M  V30 2 C 4.065742 -3.327011 2.199308 0
M  V30 3 C 4.178028 -2.841388 3.500110 0
M  V30 4 C 3.520719 -1.662703 3.830505 0
M  V30 5 C 2.778252 -1.023088 2.836986 0
M  V30 6 F 2.163280 0.120469 3.226806 0
M  V30 7 C 2.682166 -1.529675 1.543985 0
M  V30 8 C 1.877258 -0.770803 0.595873 0
M  V30 9 N 2.048399 0.476337 0.168451 0
M  V30 10 C 1.113754 0.890400 -0.723574 0
M  V30 11 C 1.166231 2.265957 -1.306841 0
M  V30 12 N 0.454322 3.215246 -0.481709 0
M  V30 13 C -0.918772 3.307473 -0.187763 0
M  V30 14 C -1.467844 4.271055 0.661033 0
M  V30 15 C -2.792204 4.366901 0.935853 0
M  V30 16 C -3.696657 3.498226 0.380482 0
M  V30 17 C -3.230163 2.522631 -0.465739 0
M  V30 18 C -4.186730 1.601083 -1.055295 0
M  V30 19 N -5.562249 1.676615 -0.787729 0
M  V30 20 O -3.853133 0.667084 -1.849297 0
M  V30 21 C -1.895030 2.462882 -0.713654 0
M  V30 22 N 0.330211 -0.188734 -0.834479 0
M  V30 23 C 0.746063 -1.184172 -0.075379 0
M  V30 24 C 0.094042 -2.486845 0.012918 0
M  V30 25 C 0.677027 -3.681501 -0.357527 0
M  V30 26 C 0.027950 -4.895213 -0.259304 0
M  V30 27 C -1.264257 -4.939088 0.229269 0
M  V30 28 N -2.167093 -5.913042 0.454118 0
M  V30 29 C -3.289400 -5.361360 0.951303 0
M  V30 30 N -3.055359 -4.028762 1.026427 0
M  V30 31 N -1.832147 -3.766672 0.591181 0
M  V30 32 C -1.198031 -2.582898 0.494976 0
M  V30 33 N 3.338446 -2.670613 1.285040 0
M  V30 34 H 5.711276 -4.358330 1.299539 0
M  V30 35 H 4.880992 -5.221952 2.674601 0
M  V30 36 H 4.053434 -5.101510 1.066003 0
M  V30 37 H 4.758460 -3.360241 4.239323 0
M  V30 38 H 3.589467 -1.258310 4.838587 0
M  V30 39 H 2.864003 1.044165 0.531982 0
M  V30 40 H 0.716465 2.220064 -2.329209 0
M  V30 41 H 2.221724 2.576029 -1.357862 0
M  V30 42 H 1.022794 3.977454 -0.005602 0
M  V30 43 H -0.768513 4.983713 1.122958 0
M  V30 44 H -3.110836 5.154516 1.610108 0
M  V30 45 H -4.728635 3.653754 0.659128 0
M  V30 46 H -5.879927 1.423674 0.180667 0
M  V30 47 H -6.334525 1.962079 -1.452441 0
M  V30 48 H -1.604361 1.680978 -1.389612 0
M  V30 49 H 1.677796 -3.662781 -0.738014 0
M  V30 50 H 0.522023 -5.810669 -0.561274 0
M  V30 51 H -4.115918 -6.019279 1.186050 0
M  V30 52 H -1.709096 -1.684660 0.801281 0
M  V30 END ATOM
M  V30 BEGIN BOND
M  V30 1 1 1 2
M  V30 2 2 2 3
M  V30 3 1 3 4
M  V30 4 2 4 5
M  V30 5 1 5 6
M  V30 6 1 5 7
M  V30 7 1 7 8
M  V30 8 1 8 9
M  V30 9 1 9 10
M  V30 10 1 10 11
M  V30 11 1 11 12
M  V30 12 1 12 13
M  V30 13 2 13 14
M  V30 14 1 14 15
M  V30 15 2 15 16
M  V30 16 1 16 17
M  V30 17 1 17 18
M  V30 18 1 18 19
M  V30 19 2 18 20
M  V30 20 2 17 21
M  V30 21 2 10 22
M  V30 22 1 22 23
M  V30 23 1 23 24
M  V30 24 1 24 25
M  V30 25 2 25 26
M  V30 26 1 26 27
M  V30 27 2 27 28
M  V30 28 1 28 29
M  V30 29 2 29 30
M  V30 30 1 30 31
M  V30 31 1 31 32
M  V30 32 2 7 33
M  V30 33 1 33 2
M  V30 34 2 23 8
M  V30 35 2 32 24
M  V30 36 1 21 13
M  V30 37 1 31 27
M  V30 38 1 1 34
M  V30 39 1 1 35
M  V30 40 1 1 36
M  V30 41 1 3 37
M  V30 42 1 4 38
M  V30 43 1 9 39
M  V30 44 1 11 40
M  V30 45 1 11 41
M  V30 46 1 12 42
M  V30 47 1 14 43
M  V30 48 1 15 44
M  V30 49 1 16 45
M  V30 50 1 19 46
M  V30 51 1 19 47
M  V30 52 1 21 48
M  V30 53 1 25 49
M  V30 54 1 26 50
M  V30 55 1 29 51
M  V30 56 1 32 52
M  V30 END BOND
M  V30 END CTAB
M  END
>  <Dataset>  (599) 
ChEMBL_Kinases

>  <Ligand_Instance>  (599) 
nan

>  <PDB_ID>  (599) 
nan

>  <Standardized_SMILES>  (599) 
Cc1ccc(F)c(-c2[nH]c(CNc3cccc(C(N)=O)c3)nc2-c2ccc3ncnn3c2)n1

>  <Name>  (599) 
nan

>  <Pocket>  (599) 
nan

>  <ATP_Site>  (599) 
nan

>  <Peripheral>  (599) 
nan

>  <Num_H_Atoms_ProtBoundConf>  (599) 
nan

>  <Num_Resolved_Atoms>  (599) 
nan

>  <Num_Not_Resolved_Atoms>  (599) 
nan

$$$$
CHEMBL388853
     RDKit          3D

  0  0  0  0  0  0  0  0  0  0999 V3000
M  V30 BEGIN CTAB
M  V30 COUNTS 54 58 0 0 0
M  V30 BEGIN ATOM
M  V30 1 O 3.607147 -2.660387 2.815366 0
M  V30 2 C 3.351217 -1.419828 2.849089 0
M  V30 3 N 4.233870 -0.643506 3.620123 0
M  V30 4 C 5.339188 -1.277480 4.303700 0
M  V30 5 C 6.664837 -0.634666 3.923430 0
M  V30 6 C 6.813328 0.591486 4.791182 0
M  V30 7 C 5.957257 0.341508 5.988943 0
M  V30 8 C 5.246357 -0.960172 5.775417 0
M  V30 9 C 2.228439 -0.801401 2.150218 0
M  V30 10 C 1.876014 0.533058 2.130741 0
M  V30 11 C 0.769703 0.938980 1.406522 0
M  V30 12 C -0.023426 0.096761 0.688697 0
M  V30 13 C -1.166029 0.633161 -0.038692 0
M  V30 14 C -2.029989 -0.107447 -0.789549 0
M  V30 15 C -3.105081 0.419233 -1.470029 0
M  V30 16 C -4.006719 -0.410587 -2.263580 0
M  V30 17 C -5.087560 0.036247 -2.962105 0
M  V30 18 C -5.641476 -1.082000 -3.556272 0
M  V30 19 C -4.884408 -2.182041 -3.204972 0
M  V30 20 N -3.886552 -1.742874 -2.410770 0
M  V30 21 C -5.164835 -3.572329 -3.650231 0
M  V30 22 C -5.891496 -3.492789 -4.979195 0
M  V30 23 N -7.065426 -2.649232 -4.854559 0
M  V30 24 C -6.811371 -1.293979 -4.434332 0
M  V30 25 O -7.533147 -0.324198 -4.783084 0
M  V30 26 C -3.300331 1.781384 -1.371612 0
M  V30 27 C -2.423402 2.534736 -0.609202 0
M  V30 28 N -1.376851 1.956519 0.041732 0
M  V30 29 C 0.316200 -1.240491 0.698479 0
M  V30 30 C 1.417596 -1.668781 1.415241 0
M  V30 31 H 4.141733 0.386698 3.734719 0
M  V30 32 H 5.367009 -2.372936 4.130944 0
M  V30 33 H 7.511464 -1.327702 4.101140 0
M  V30 34 H 6.622097 -0.333337 2.845282 0
M  V30 35 H 6.522547 1.519065 4.229328 0
M  V30 36 H 7.901484 0.681873 5.079614 0
M  V30 37 H 5.217893 1.186961 6.038390 0
M  V30 38 H 6.524517 0.396886 6.947982 0
M  V30 39 H 5.702637 -1.774842 6.393628 0
M  V30 40 H 4.168451 -0.809073 6.029059 0
M  V30 41 H 2.521957 1.171602 2.707053 0
M  V30 42 H 0.565014 1.996995 1.444808 0
M  V30 43 H -1.877677 -1.165517 -0.865547 0
M  V30 44 H -5.491903 1.033436 -3.077914 0
M  V30 45 H -3.136921 -2.339520 -1.976578 0
M  V30 46 H -4.237439 -4.160744 -3.782747 0
M  V30 47 H -5.839984 -4.072190 -2.908347 0
M  V30 48 H -6.176014 -4.513679 -5.305504 0
M  V30 49 H -5.149823 -3.050937 -5.702189 0
M  V30 50 H -8.085290 -2.893649 -5.030477 0
M  V30 51 H -4.128805 2.283246 -1.879175 0
M  V30 52 H -2.523223 3.605751 -0.493225 0
M  V30 53 H -0.284310 -1.942934 0.143633 0
M  V30 54 H 1.632494 -2.727792 1.384125 0
M  V30 END ATOM
M  V30 BEGIN BOND
M  V30 1 2 1 2
M  V30 2 1 2 3
M  V30 3 1 3 4
M  V30 4 1 4 5
M  V30 5 1 5 6
M  V30 6 1 6 7
M  V30 7 1 7 8
M  V30 8 1 2 9
M  V30 9 2 9 10
M  V30 10 1 10 11
M  V30 11 2 11 12
M  V30 12 1 12 13
M  V30 13 2 13 14
M  V30 14 1 14 15
M  V30 15 1 15 16
M  V30 16 2 16 17
M  V30 17 1 17 18
M  V30 18 2 18 19
M  V30 19 1 19 20
M  V30 20 1 19 21
M  V30 21 1 21 22
M  V30 22 1 22 23
M  V30 23 1 23 24
M  V30 24 2 24 25
M  V30 25 2 15 26
M  V30 26 1 26 27
M  V30 27 2 27 28
M  V30 28 1 12 29
M  V30 29 2 29 30
M  V30 30 1 8 4
M  V30 31 1 30 9
M  V30 32 1 28 13
M  V30 33 1 20 16
M  V30 34 1 24 18
M  V30 35 1 3 31
M  V30 36 1 4 32
M  V30 37 1 5 33
M  V30 38 1 5 34
M  V30 39 1 6 35
M  V30 40 1 6 36
M  V30 41 1 7 37
M  V30 42 1 7 38
M  V30 43 1 8 39
M  V30 44 1 8 40
M  V30 45 1 10 41
M  V30 46 1 11 42
M  V30 47 1 14 43
M  V30 48 1 17 44
M  V30 49 1 20 45
M  V30 50 1 21 46
M  V30 51 1 21 47
M  V30 52 1 22 48
M  V30 53 1 22 49
M  V30 54 1 23 50
M  V30 55 1 26 51
M  V30 56 1 27 52
M  V30 57 1 29 53
M  V30 58 1 30 54
M  V30 END BOND
M  V30 END CTAB
M  END
>  <Dataset>  (600) 
ChEMBL_Kinases

>  <Ligand_Instance>  (600) 
nan

>  <PDB_ID>  (600) 
nan

>  <Standardized_SMILES>  (600) 
O=C(NC1CCCC1)c1ccc(-c2cc(-c3cc4c([nH]3)CCNC4=O)ccn2)cc1

>  <Name>  (600) 
nan

>  <Pocket>  (600) 
nan

>  <ATP_Site>  (600) 
nan

>  <Peripheral>  (600) 
nan

>  <Num_H_Atoms_ProtBoundConf>  (600) 
nan

>  <Num_Resolved_Atoms>  (600) 
nan

>  <Num_Not_Resolved_Atoms>  (600) 
nan

$$$$
CHEMBL4072555
     RDKit          3D

  0  0  0  0  0  0  0  0  0  0999 V3000
M  V30 BEGIN CTAB
M  V30 COUNTS 69 73 0 0 0
M  V30 BEGIN ATOM
M  V30 1 C 5.843676 5.293392 7.840339 0
M  V30 2 C 5.955032 4.016445 7.644314 0
M  V30 3 C 5.149255 3.412610 6.584717 0
M  V30 4 O 5.305702 2.141856 6.446777 0
M  V30 5 N 4.206421 4.006073 5.664880 0
M  V30 6 C 3.809891 2.854118 4.933092 0
M  V30 7 C 2.741870 2.129927 5.415506 0
M  V30 8 C 2.399001 1.014233 4.672389 0
M  V30 9 C 3.137682 0.730923 3.540605 0
M  V30 10 C 2.694926 -0.482712 2.830918 0
M  V30 11 O 1.775493 -1.204613 3.276196 0
M  V30 12 N 3.246887 -0.956639 1.602358 0
M  V30 13 C 2.581123 -2.157585 1.242704 0
M  V30 14 C 3.329099 -3.226485 1.708281 0
M  V30 15 C 2.945516 -4.546521 1.525087 0
M  V30 16 C 1.765546 -4.821471 0.849002 0
M  V30 17 C 1.039968 -3.729478 0.396627 0
M  V30 18 N -0.178219 -3.999094 -0.274038 0
M  V30 19 C -1.327607 -3.190880 -0.582501 0
M  V30 20 C -1.591816 -2.512674 -1.743101 0
M  V30 21 C -2.776791 -1.824653 -1.711102 0
M  V30 22 C -3.265153 -1.041588 -2.830903 0
M  V30 23 C -3.734300 -1.396964 -4.076026 0
M  V30 24 C -3.849266 -2.758270 -4.569636 0
M  V30 25 C -3.190533 -3.388812 -5.587172 0
M  V30 26 C -3.443495 -4.700802 -5.924771 0
M  V30 27 C -4.399504 -5.427657 -5.217983 0
M  V30 28 F -4.619333 -6.725908 -5.585782 0
M  V30 29 C -5.074260 -4.818983 -4.192641 0
M  V30 30 C -4.806785 -3.495991 -3.865713 0
M  V30 31 N -4.079227 -0.272506 -4.750323 0
M  V30 32 C -3.833401 0.800299 -3.943118 0
M  V30 33 S -4.125002 2.549858 -4.299901 0
M  V30 34 C -5.824103 2.946888 -3.722373 0
M  V30 35 N -3.334492 0.296611 -2.775329 0
M  V30 36 C -2.948208 1.166658 -1.666148 0
M  V30 37 C -3.625850 -1.822005 -0.596653 0
M  V30 38 C -3.263557 -2.542221 0.526836 0
M  V30 39 N -2.090549 -3.242250 0.537245 0
M  V30 40 C 1.418633 -2.420486 0.576775 0
M  V30 41 C 4.202026 1.469304 3.075915 0
M  V30 42 C 4.561609 2.592894 3.809005 0
M  V30 43 H 5.854217 6.336308 8.114806 0
M  V30 44 H 5.688585 6.346993 7.933524 0
M  V30 45 H 6.623992 3.448049 8.252010 0
M  V30 46 H 4.243743 5.035010 5.945947 0
M  V30 47 H 2.184629 2.377884 6.302460 0
M  V30 48 H 1.567437 0.421491 5.019221 0
M  V30 49 H 4.019496 -0.386869 1.163601 0
M  V30 50 H 4.281376 -3.219631 2.261878 0
M  V30 51 H 3.471349 -5.429476 1.855797 0
M  V30 52 H 1.398537 -5.828412 0.665494 0
M  V30 53 H -0.395047 -4.939176 -0.668292 0
M  V30 54 H -0.908310 -2.554164 -2.552982 0
M  V30 55 H -2.461262 -2.740829 -6.083315 0
M  V30 56 H -2.884185 -5.137824 -6.742723 0
M  V30 57 H -5.818703 -5.408909 -3.654608 0
M  V30 58 H -5.415457 -3.128145 -3.027386 0
M  V30 59 H -5.794101 3.634656 -2.835060 0
M  V30 60 H -6.351702 2.011385 -3.378663 0
M  V30 61 H -6.420384 3.348021 -4.562600 0
M  V30 62 H -3.778238 1.137225 -0.936916 0
M  V30 63 H -1.982638 0.813018 -1.267350 0
M  V30 64 H -2.771761 2.214056 -2.040473 0
M  V30 65 H -4.566853 -1.270979 -0.583891 0
M  V30 66 H -3.963383 -2.510318 1.377838 0
M  V30 67 H 0.913662 -1.536943 0.258027 0
M  V30 68 H 4.753272 1.205952 2.181791 0
M  V30 69 H 5.392661 3.241008 3.521837 0
M  V30 END ATOM
M  V30 BEGIN BOND
M  V30 1 2 1 2
M  V30 2 1 2 3
M  V30 3 2 3 4
M  V30 4 1 3 5
M  V30 5 1 5 6
M  V30 6 2 6 7
M  V30 7 1 7 8
M  V30 8 2 8 9
M  V30 9 1 9 10
M  V30 10 2 10 11
M  V30 11 1 10 12
M  V30 12 1 12 13
M  V30 13 2 13 14
M  V30 14 1 14 15
M  V30 15 2 15 16
M  V30 16 1 16 17
M  V30 17 1 17 18
M  V30 18 1 18 19
M  V30 19 2 19 20
M  V30 20 1 20 21
M  V30 21 1 21 22
M  V30 22 2 22 23
M  V30 23 1 23 24
M  V30 24 2 24 25
M  V30 25 1 25 26
M  V30 26 2 26 27
M  V30 27 1 27 28
M  V30 28 1 27 29
M  V30 29 2 29 30
M  V30 30 1 23 31
M  V30 31 2 31 32
M  V30 32 1 32 33
M  V30 33 1 33 34
M  V30 34 1 32 35
M  V30 35 1 35 36
M  V30 36 2 21 37
M  V30 37 1 37 38
M  V30 38 2 38 39
M  V30 39 2 17 40
M  V30 40 1 9 41
M  V30 41 2 41 42
M  V30 42 1 42 6
M  V30 43 1 40 13
M  V30 44 1 39 19
M  V30 45 1 35 22
M  V30 46 1 30 24
M  V30 47 1 1 43
M  V30 48 1 1 44
M  V30 49 1 2 45
M  V30 50 1 5 46
M  V30 51 1 7 47
M  V30 52 1 8 48
M  V30 53 1 12 49
M  V30 54 1 14 50
M  V30 55 1 15 51
M  V30 56 1 16 52
M  V30 57 1 18 53
M  V30 58 1 20 54
M  V30 59 1 25 55
M  V30 60 1 26 56
M  V30 61 1 29 57
M  V30 62 1 30 58
M  V30 63 1 34 59
M  V30 64 1 34 60
M  V30 65 1 34 61
M  V30 66 1 36 62
M  V30 67 1 36 63
M  V30 68 1 36 64
M  V30 69 1 37 65
M  V30 70 1 38 66
M  V30 71 1 40 67
M  V30 72 1 41 68
M  V30 73 1 42 69
M  V30 END BOND
M  V30 END CTAB
M  END
>  <Dataset>  (601) 
ChEMBL_Kinases

>  <Ligand_Instance>  (601) 
nan

>  <PDB_ID>  (601) 
nan

>  <Standardized_SMILES>  (601) 
C=CC(=O)Nc1ccc(C(=O)Nc2cccc(Nc3cc(-c4c(-c5ccc(F)cc5)nc(SC)n4C)ccn3)c2)cc1

>  <Name>  (601) 
nan

>  <Pocket>  (601) 
nan

>  <ATP_Site>  (601) 
nan

>  <Peripheral>  (601) 
nan

>  <Num_H_Atoms_ProtBoundConf>  (601) 
nan

>  <Num_Resolved_Atoms>  (601) 
nan

>  <Num_Not_Resolved_Atoms>  (601) 
nan

$$$$
CHEMBL3634711
     RDKit          3D

  0  0  0  0  0  0  0  0  0  0999 V3000
M  V30 BEGIN CTAB
M  V30 COUNTS 48 52 0 0 0
M  V30 BEGIN ATOM
M  V30 1 C -0.973568 -3.520773 -3.557684 0
M  V30 2 C -0.816564 -3.722839 -2.086591 0
M  V30 3 N -0.185404 -2.835174 -1.309671 0
M  V30 4 C -0.021149 -2.981157 0.033666 0
M  V30 5 C 0.686967 -1.911724 0.719309 0
M  V30 6 N 1.964160 -1.498502 0.676691 0
M  V30 7 C 2.191986 -0.437450 1.504603 0
M  V30 8 C 3.572358 0.155304 1.592189 0
M  V30 9 N 3.783448 1.174379 0.601683 0
M  V30 10 C 3.187234 2.449517 0.434664 0
M  V30 11 C 3.478448 3.310650 -0.595040 0
M  V30 12 C 2.888828 4.544514 -0.720494 0
M  V30 13 C 1.961113 4.990905 0.192127 0
M  V30 14 C 1.637968 4.161122 1.241753 0
M  V30 15 C 2.253876 2.932116 1.328337 0
M  V30 16 N 0.997305 -0.200769 2.071553 0
M  V30 17 C 0.080856 -1.065609 1.621108 0
M  V30 18 C -1.277330 -0.948015 2.135224 0
M  V30 19 C -1.902591 0.260517 1.804015 0
M  V30 20 C -3.201203 0.574722 2.197559 0
M  V30 21 C -3.889214 -0.356508 2.946895 0
M  V30 22 N -5.105894 -0.422861 3.492732 0
M  V30 23 C -5.242084 -1.616569 4.137837 0
M  V30 24 N -4.078473 -2.274343 3.970877 0
M  V30 25 N -3.271221 -1.509611 3.253877 0
M  V30 26 C -2.017450 -1.814160 2.874433 0
M  V30 27 C -0.558874 -4.132170 0.566453 0
M  V30 28 C -1.217886 -5.076421 -0.190170 0
M  V30 29 C -1.357527 -4.878959 -1.554825 0
M  V30 30 F -2.012320 -5.830000 -2.272743 0
M  V30 31 H -1.788988 -4.144730 -3.969125 0
M  V30 32 H -0.020206 -3.687778 -4.095882 0
M  V30 33 H -1.215834 -2.426666 -3.703971 0
M  V30 34 H 2.650728 -1.984935 0.054828 0
M  V30 35 H 3.750329 0.551839 2.621282 0
M  V30 36 H 4.305293 -0.657159 1.445602 0
M  V30 37 H 4.506583 0.968959 -0.154046 0
M  V30 38 H 4.202662 3.004662 -1.338403 0
M  V30 39 H 3.172910 5.160651 -1.558039 0
M  V30 40 H 1.520152 5.967897 0.057627 0
M  V30 41 H 0.911003 4.539030 1.936333 0
M  V30 42 H 1.926329 2.381071 2.191617 0
M  V30 43 H -1.411674 1.038284 1.214209 0
M  V30 44 H -3.662338 1.509468 1.932571 0
M  V30 45 H -6.118664 -1.974516 4.683310 0
M  V30 46 H -1.508106 -2.735396 3.115756 0
M  V30 47 H -0.423731 -4.246373 1.632140 0
M  V30 48 H -1.608218 -5.951650 0.318553 0
M  V30 END ATOM
M  V30 BEGIN BOND
M  V30 1 1 1 2
M  V30 2 2 2 3
M  V30 3 1 3 4
M  V30 4 1 4 5
M  V30 5 1 5 6
M  V30 6 1 6 7
M  V30 7 1 7 8
M  V30 8 1 8 9
M  V30 9 1 9 10
M  V30 10 2 10 11
M  V30 11 1 11 12
M  V30 12 2 12 13
M  V30 13 1 13 14
M  V30 14 2 14 15
M  V30 15 2 7 16
M  V30 16 1 16 17
M  V30 17 1 17 18
M  V30 18 1 18 19
M  V30 19 2 19 20
M  V30 20 1 20 21
M  V30 21 2 21 22
M  V30 22 1 22 23
M  V30 23 2 23 24
M  V30 24 1 24 25
M  V30 25 1 25 26
M  V30 26 2 4 27
M  V30 27 1 27 28
M  V30 28 2 28 29
M  V30 29 1 29 30
M  V30 30 1 29 2
M  V30 31 2 17 5
M  V30 32 2 26 18
M  V30 33 1 15 10
M  V30 34 1 25 21
M  V30 35 1 1 31
M  V30 36 1 1 32
M  V30 37 1 1 33
M  V30 38 1 6 34
M  V30 39 1 8 35
M  V30 40 1 8 36
M  V30 41 1 9 37
M  V30 42 1 11 38
M  V30 43 1 12 39
M  V30 44 1 13 40
M  V30 45 1 14 41
M  V30 46 1 15 42
M  V30 47 1 19 43
M  V30 48 1 20 44
M  V30 49 1 23 45
M  V30 50 1 26 46
M  V30 51 1 27 47
M  V30 52 1 28 48
M  V30 END BOND
M  V30 END CTAB
M  END
>  <Dataset>  (602) 
ChEMBL_Kinases

>  <Ligand_Instance>  (602) 
nan

>  <PDB_ID>  (602) 
nan

>  <Standardized_SMILES>  (602) 
Cc1nc(-c2[nH]c(CNc3ccccc3)nc2-c2ccc3ncnn3c2)ccc1F

>  <Name>  (602) 
nan

>  <Pocket>  (602) 
nan

>  <ATP_Site>  (602) 
nan

>  <Peripheral>  (602) 
nan

>  <Num_H_Atoms_ProtBoundConf>  (602) 
nan

>  <Num_Resolved_Atoms>  (602) 
nan

>  <Num_Not_Resolved_Atoms>  (602) 
nan

$$$$
CHEMBL3634712
     RDKit          3D

  0  0  0  0  0  0  0  0  0  0999 V3000
M  V30 BEGIN CTAB
M  V30 COUNTS 48 52 0 0 0
M  V30 BEGIN ATOM
M  V30 1 C -4.662869 0.673155 2.814604 0
M  V30 2 C -3.368474 0.094907 3.292666 0
M  V30 3 N -2.331929 -0.042410 2.411241 0
M  V30 4 C -1.150195 -0.572404 2.853002 0
M  V30 5 C 0.003364 -0.743677 1.949787 0
M  V30 6 N 1.234581 -0.190316 2.025679 0
M  V30 7 C 1.971041 -0.630959 0.982895 0
M  V30 8 C 3.398230 -0.253308 0.703345 0
M  V30 9 N 3.557686 0.881918 -0.094734 0
M  V30 10 C 3.681911 2.082155 -0.856195 0
M  V30 11 C 3.305684 3.385235 -0.741419 0
M  V30 12 C 3.645174 4.242563 -1.748835 0
M  V30 13 C 4.344727 3.784188 -2.835476 0
M  V30 14 C 4.756447 2.469384 -3.010834 0
M  V30 15 C 4.392124 1.613499 -1.958314 0
M  V30 16 F 4.879429 0.382070 -2.310651 0
M  V30 17 N 1.182239 -1.455622 0.271271 0
M  V30 18 C -0.040052 -1.561258 0.821645 0
M  V30 19 C -1.101476 -2.389216 0.259619 0
M  V30 20 C -2.321343 -2.007425 -0.258325 0
M  V30 21 C -3.174648 -2.964134 -0.737275 0
M  V30 22 C -2.817187 -4.297242 -0.701863 0
M  V30 23 N -3.512679 -5.369398 -1.120412 0
M  V30 24 C -2.742186 -6.468581 -0.874864 0
M  V30 25 N -1.597931 -5.995073 -0.309318 0
M  V30 26 N -1.632063 -4.686080 -0.200119 0
M  V30 27 C -0.787630 -3.736968 0.273909 0
M  V30 28 C -0.951594 -0.977432 4.151069 0
M  V30 29 C -2.042270 -0.807256 4.979173 0
M  V30 30 C -3.266685 -0.283675 4.620500 0
M  V30 31 F -4.285018 -0.152751 5.501330 0
M  V30 32 H -4.887467 0.182517 1.830905 0
M  V30 33 H -5.463957 0.400144 3.523202 0
M  V30 34 H -4.614050 1.763271 2.709274 0
M  V30 35 H 1.551881 0.463096 2.765387 0
M  V30 36 H 3.870363 -1.167229 0.196187 0
M  V30 37 H 3.947391 -0.144742 1.687015 0
M  V30 38 H 3.015772 1.384156 0.659196 0
M  V30 39 H 2.768817 3.562682 0.170821 0
M  V30 40 H 3.310672 5.251419 -1.580009 0
M  V30 41 H 4.532511 4.581288 -3.535557 0
M  V30 42 H 5.287990 2.338578 -3.933235 0
M  V30 43 H -2.486659 -0.941571 -0.232290 0
M  V30 44 H -4.111916 -2.650971 -1.133487 0
M  V30 45 H -2.729629 -7.545325 -0.970042 0
M  V30 46 H 0.136972 -4.155347 0.653932 0
M  V30 47 H -0.022714 -1.395737 4.504423 0
M  V30 48 H -1.928362 -1.117327 6.025900 0
M  V30 END ATOM
M  V30 BEGIN BOND
M  V30 1 1 1 2
M  V30 2 2 2 3
M  V30 3 1 3 4
M  V30 4 1 4 5
M  V30 5 1 5 6
M  V30 6 1 6 7
M  V30 7 1 7 8
M  V30 8 1 8 9
M  V30 9 1 9 10
M  V30 10 2 10 11
M  V30 11 1 11 12
M  V30 12 2 12 13
M  V30 13 1 13 14
M  V30 14 2 14 15
M  V30 15 1 15 16
M  V30 16 2 7 17
M  V30 17 1 17 18
M  V30 18 1 18 19
M  V30 19 1 19 20
M  V30 20 2 20 21
M  V30 21 1 21 22
M  V30 22 2 22 23
M  V30 23 1 23 24
M  V30 24 2 24 25
M  V30 25 1 25 26
M  V30 26 1 26 27
M  V30 27 2 4 28
M  V30 28 1 28 29
M  V30 29 2 29 30
M  V30 30 1 30 31
M  V30 31 1 30 2
M  V30 32 2 18 5
M  V30 33 2 27 19
M  V30 34 1 15 10
M  V30 35 1 26 22
M  V30 36 1 1 32
M  V30 37 1 1 33
M  V30 38 1 1 34
M  V30 39 1 6 35
M  V30 40 1 8 36
M  V30 41 1 8 37
M  V30 42 1 9 38
M  V30 43 1 11 39
M  V30 44 1 12 40
M  V30 45 1 13 41
M  V30 46 1 14 42
M  V30 47 1 20 43
M  V30 48 1 21 44
M  V30 49 1 24 45
M  V30 50 1 27 46
M  V30 51 1 28 47
M  V30 52 1 29 48
M  V30 END BOND
M  V30 END CTAB
M  END
>  <Dataset>  (603) 
ChEMBL_Kinases

>  <Ligand_Instance>  (603) 
nan

>  <PDB_ID>  (603) 
nan

>  <Standardized_SMILES>  (603) 
Cc1nc(-c2[nH]c(CNc3ccccc3F)nc2-c2ccc3ncnn3c2)ccc1F

>  <Name>  (603) 
nan

>  <Pocket>  (603) 
nan

>  <ATP_Site>  (603) 
nan

>  <Peripheral>  (603) 
nan

>  <Num_H_Atoms_ProtBoundConf>  (603) 
nan

>  <Num_Resolved_Atoms>  (603) 
nan

>  <Num_Not_Resolved_Atoms>  (603) 
nan

$$$$
CHEMBL3885043
     RDKit          3D

  0  0  0  0  0  0  0  0  0  0999 V3000
M  V30 BEGIN CTAB
M  V30 COUNTS 30 32 0 0 0
M  V30 BEGIN ATOM
M  V30 1 N 0.748151 -1.753090 -2.497744 0
M  V30 2 C 0.593241 -1.315208 -1.425813 0
M  V30 3 C 0.374585 -0.775333 -0.080442 0
M  V30 4 C 1.357702 -1.143033 0.691463 0
M  V30 5 C 2.550413 -1.940493 0.479738 0
M  V30 6 C 2.504102 -3.152485 -0.208140 0
M  V30 7 C 3.682256 -3.877704 -0.403908 0
M  V30 8 C 4.863141 -3.336231 0.112382 0
M  V30 9 N 4.928941 -2.153178 0.788108 0
M  V30 10 C 3.771919 -1.451410 0.973806 0
M  V30 11 C -0.834453 -0.015869 0.156521 0
M  V30 12 C -1.636671 0.364974 -0.900758 0
M  V30 13 N -2.702829 1.043316 -0.463564 0
M  V30 14 C -2.654960 1.139729 0.874159 0
M  V30 15 C -3.491986 1.715882 1.804563 0
M  V30 16 C -3.197163 1.649542 3.143738 0
M  V30 17 C -2.039254 0.987119 3.476111 0
M  V30 18 Cl -1.557714 0.842121 5.173400 0
M  V30 19 C -1.147490 0.384293 2.601190 0
M  V30 20 C -1.488602 0.477837 1.260275 0
M  V30 21 H 1.328706 -0.793987 1.702604 0
M  V30 22 H 1.581713 -3.564177 -0.594005 0
M  V30 23 H 3.642892 -4.799577 -0.931758 0
M  V30 24 H 5.730037 -3.926656 -0.065105 0
M  V30 25 H 3.805069 -0.490644 1.515969 0
M  V30 26 H -1.545847 0.214972 -1.980321 0
M  V30 27 H -3.490548 1.466769 -0.997785 0
M  V30 28 H -4.405994 2.239805 1.535659 0
M  V30 29 H -3.801211 2.079946 3.949291 0
M  V30 30 H -0.265273 -0.134372 2.893274 0
M  V30 END ATOM
M  V30 BEGIN BOND
M  V30 1 3 1 2
M  V30 2 1 2 3
M  V30 3 2 3 4
M  V30 4 1 4 5
M  V30 5 2 5 6
M  V30 6 1 6 7
M  V30 7 2 7 8
M  V30 8 1 8 9
M  V30 9 2 9 10
M  V30 10 1 3 11
M  V30 11 2 11 12
M  V30 12 1 12 13
M  V30 13 1 13 14
M  V30 14 2 14 15
M  V30 15 1 15 16
M  V30 16 2 16 17
M  V30 17 1 17 18
M  V30 18 1 17 19
M  V30 19 2 19 20
M  V30 20 1 10 5
M  V30 21 1 20 11
M  V30 22 1 20 14
M  V30 23 1 4 21
M  V30 24 1 6 22
M  V30 25 1 7 23
M  V30 26 1 8 24
M  V30 27 1 10 25
M  V30 28 1 12 26
M  V30 29 1 13 27
M  V30 30 1 15 28
M  V30 31 1 16 29
M  V30 32 1 19 30
M  V30 END BOND
M  V30 END CTAB
M  END
>  <Dataset>  (604) 
ChEMBL_Kinases

>  <Ligand_Instance>  (604) 
nan

>  <PDB_ID>  (604) 
nan

>  <Standardized_SMILES>  (604) 
N#C/C(=C\c1cccnc1)c1c[nH]c2ccc(Cl)cc12

>  <Name>  (604) 
nan

>  <Pocket>  (604) 
nan

>  <ATP_Site>  (604) 
nan

>  <Peripheral>  (604) 
nan

>  <Num_H_Atoms_ProtBoundConf>  (604) 
nan

>  <Num_Resolved_Atoms>  (604) 
nan

>  <Num_Not_Resolved_Atoms>  (604) 
nan

$$$$
CHEMBL3885333
     RDKit          3D

  0  0  0  0  0  0  0  0  0  0999 V3000
M  V30 BEGIN CTAB
M  V30 COUNTS 37 39 0 0 0
M  V30 BEGIN ATOM
M  V30 1 C -0.366451 -4.166293 4.553212 0
M  V30 2 O -0.307956 -3.210875 3.517707 0
M  V30 3 C 0.800119 -2.460539 3.236159 0
M  V30 4 C 1.990051 -2.549215 3.930199 0
M  V30 5 C 3.086227 -1.773560 3.612663 0
M  V30 6 C 2.957989 -0.891985 2.564353 0
M  V30 7 N 3.798819 -0.015809 1.994540 0
M  V30 8 C 3.210168 0.623877 0.978981 0
M  V30 9 C 1.893989 0.177532 0.827705 0
M  V30 10 C 1.024058 0.690439 -0.200108 0
M  V30 11 C 1.615260 1.617340 -1.152318 0
M  V30 12 N 2.113908 2.361258 -1.922094 0
M  V30 13 C -0.227872 0.484903 -0.503271 0
M  V30 14 C -1.096626 1.007168 -1.541683 0
M  V30 15 C -1.114892 2.335068 -1.913237 0
M  V30 16 N -1.935994 2.737152 -2.893570 0
M  V30 17 C -2.772331 1.970764 -3.580058 0
M  V30 18 C -2.802557 0.610081 -3.250230 0
M  V30 19 C -1.967453 0.177145 -2.246495 0
M  V30 20 C -1.986574 -1.281911 -1.870696 0
M  V30 21 C 1.803252 -0.752428 1.831371 0
M  V30 22 C 0.756194 -1.554495 2.202744 0
M  V30 23 H 0.438941 -4.912148 4.443117 0
M  V30 24 H -1.370740 -4.623941 4.645893 0
M  V30 25 H -0.169324 -3.630973 5.504214 0
M  V30 26 H 2.049692 -3.267596 4.759201 0
M  V30 27 H 4.035562 -1.833692 4.155863 0
M  V30 28 H 4.774471 0.109839 2.339537 0
M  V30 29 H 3.783849 1.371428 0.421678 0
M  V30 30 H -0.766106 -0.193473 0.114400 0
M  V30 31 H -0.488340 3.067261 -1.427411 0
M  V30 32 H -3.441346 2.269387 -4.371705 0
M  V30 33 H -3.468480 -0.061766 -3.778581 0
M  V30 34 H -2.362152 -1.332009 -0.808878 0
M  V30 35 H -2.727053 -1.815704 -2.479605 0
M  V30 36 H -1.001258 -1.749137 -1.913803 0
M  V30 37 H -0.161400 -1.489520 1.663179 0
M  V30 END ATOM
M  V30 BEGIN BOND
M  V30 1 1 1 2
M  V30 2 1 2 3
M  V30 3 2 3 4
M  V30 4 1 4 5
M  V30 5 2 5 6
M  V30 6 1 6 7
M  V30 7 1 7 8
M  V30 8 2 8 9
M  V30 9 1 9 10
M  V30 10 1 10 11
M  V30 11 3 11 12
M  V30 12 2 10 13
M  V30 13 1 13 14
M  V30 14 2 14 15
M  V30 15 1 15 16
M  V30 16 2 16 17
M  V30 17 1 17 18
M  V30 18 2 18 19
M  V30 19 1 19 20
M  V30 20 1 9 21
M  V30 21 2 21 22
M  V30 22 1 22 3
M  V30 23 1 21 6
M  V30 24 1 19 14
M  V30 25 1 1 23
M  V30 26 1 1 24
M  V30 27 1 1 25
M  V30 28 1 4 26
M  V30 29 1 5 27
M  V30 30 1 7 28
M  V30 31 1 8 29
M  V30 32 1 13 30
M  V30 33 1 15 31
M  V30 34 1 17 32
M  V30 35 1 18 33
M  V30 36 1 20 34
M  V30 37 1 20 35
M  V30 38 1 20 36
M  V30 39 1 22 37
M  V30 END BOND
M  V30 END CTAB
M  END
>  <Dataset>  (605) 
ChEMBL_Kinases

>  <Ligand_Instance>  (605) 
nan

>  <PDB_ID>  (605) 
nan

>  <Standardized_SMILES>  (605) 
COc1ccc2[nH]cc(/C(C#N)=C/c3cnccc3C)c2c1

>  <Name>  (605) 
nan

>  <Pocket>  (605) 
nan

>  <ATP_Site>  (605) 
nan

>  <Peripheral>  (605) 
nan

>  <Num_H_Atoms_ProtBoundConf>  (605) 
nan

>  <Num_Resolved_Atoms>  (605) 
nan

>  <Num_Not_Resolved_Atoms>  (605) 
nan

$$$$
CHEMBL3885421
     RDKit          3D

  0  0  0  0  0  0  0  0  0  0999 V3000
M  V30 BEGIN CTAB
M  V30 COUNTS 60 63 0 0 0
M  V30 BEGIN ATOM
M  V30 1 C 1.045068 -1.401221 4.735829 0
M  V30 2 C 2.261575 -1.779025 4.096262 0
M  V30 3 C 1.630733 -0.766954 3.019783 0
M  V30 4 O 0.840948 -0.046989 2.481839 0
M  V30 5 O 2.640888 -0.588856 2.241250 0
M  V30 6 C 3.493140 -0.299300 1.407790 0
M  V30 7 C 4.664760 -0.956546 0.815459 0
M  V30 8 C 5.513103 -0.224298 -0.074989 0
M  V30 9 C 5.384281 1.165383 -0.539007 0
M  V30 10 C 4.291912 1.581831 0.006706 0
M  V30 11 C 3.394340 1.016966 0.869007 0
M  V30 12 N 2.165974 1.782143 0.833088 0
M  V30 13 C 1.006160 2.525628 0.844103 0
M  V30 14 N -0.130610 2.229821 1.423630 0
M  V30 15 C -1.305305 2.737430 1.407697 0
M  V30 16 N -2.546148 2.247691 1.940338 0
M  V30 17 C -3.001716 0.952972 1.484336 0
M  V30 18 C -4.319399 0.638137 1.801515 0
M  V30 19 C -4.798823 -0.652051 1.547778 0
M  V30 20 C -3.874583 -1.542925 0.987473 0
M  V30 21 C -2.581660 -1.280739 0.658236 0
M  V30 22 N -1.682715 -2.271978 0.214921 0
M  V30 23 C -1.948420 -3.665381 0.504602 0
M  V30 24 C -1.392472 -4.653267 -0.553707 0
M  V30 25 N -1.281933 -4.048512 -1.855426 0
M  V30 26 C -1.985075 -4.807488 -2.915138 0
M  V30 27 C -1.811540 -3.889001 -4.144363 0
M  V30 28 O -2.397479 -5.824389 -2.457358 0
M  V30 29 C -0.484379 -2.848441 -1.917280 0
M  V30 30 C -0.515781 -2.115468 -0.562986 0
M  V30 31 C -2.233943 0.004660 0.930753 0
M  V30 32 N -1.430189 3.865528 0.594237 0
M  V30 33 C -0.348796 4.295314 -0.047025 0
M  V30 34 C 0.985704 3.620120 0.047256 0
M  V30 35 Cl 2.041050 4.301592 -1.128914 0
M  V30 36 H -0.028227 -0.831368 4.847878 0
M  V30 37 H 1.416816 -1.392286 5.828366 0
M  V30 38 H 2.701130 -2.403942 4.695676 0
M  V30 39 H 4.722488 -1.938387 1.176565 0
M  V30 40 H 6.175689 -1.113818 -0.321069 0
M  V30 41 H 6.281336 1.129161 -1.100861 0
M  V30 42 H 4.245957 2.546506 -0.456862 0
M  V30 43 H 1.800593 1.304384 -0.090231 0
M  V30 44 H -3.120340 2.805201 2.626556 0
M  V30 45 H -4.988710 1.427929 2.200909 0
M  V30 46 H -5.797390 -0.840612 1.803399 0
M  V30 47 H -4.398903 -2.484751 0.755499 0
M  V30 48 H -1.427898 -3.890521 1.482089 0
M  V30 49 H -3.025043 -3.894768 0.729117 0
M  V30 50 H -2.171332 -5.514055 -0.657577 0
M  V30 51 H -0.522057 -5.181305 -0.165534 0
M  V30 52 H -2.106377 -4.437696 -5.055336 0
M  V30 53 H -0.722354 -3.633025 -4.161761 0
M  V30 54 H -2.384192 -2.993691 -3.943120 0
M  V30 55 H 0.579554 -3.069062 -2.215672 0
M  V30 56 H -0.933924 -2.171612 -2.664458 0
M  V30 57 H 0.350919 -2.623394 0.000359 0
M  V30 58 H -0.259826 -1.045812 -0.762138 0
M  V30 59 H -1.261202 0.376977 0.606615 0
M  V30 60 H -0.458701 5.222598 -0.591237 0
M  V30 END ATOM
M  V30 BEGIN BOND
M  V30 1 2 1 2
M  V30 2 1 2 3
M  V30 3 2 3 4
M  V30 4 1 3 5
M  V30 5 1 5 6
M  V30 6 2 6 7
M  V30 7 1 7 8
M  V30 8 2 8 9
M  V30 9 1 9 10
M  V30 10 2 10 11
M  V30 11 1 11 12
M  V30 12 1 12 13
M  V30 13 2 13 14
M  V30 14 1 14 15
M  V30 15 1 15 16
M  V30 16 1 16 17
M  V30 17 2 17 18
M  V30 18 1 18 19
M  V30 19 2 19 20
M  V30 20 1 20 21
M  V30 21 1 21 22
M  V30 22 1 22 23
M  V30 23 1 23 24
M  V30 24 1 24 25
M  V30 25 1 25 26
M  V30 26 1 26 27
M  V30 27 2 26 28
M  V30 28 1 25 29
M  V30 29 1 29 30
M  V30 30 2 21 31
M  V30 31 2 15 32
M  V30 32 1 32 33
M  V30 33 2 33 34
M  V30 34 1 34 35
M  V30 35 1 11 6
M  V30 36 1 34 13
M  V30 37 1 31 17
M  V30 38 1 30 22
M  V30 39 1 1 36
M  V30 40 1 1 37
M  V30 41 1 2 38
M  V30 42 1 7 39
M  V30 43 1 8 40
M  V30 44 1 9 41
M  V30 45 1 10 42
M  V30 46 1 12 43
M  V30 47 1 16 44
M  V30 48 1 18 45
M  V30 49 1 19 46
M  V30 50 1 20 47
M  V30 51 1 23 48
M  V30 52 1 23 49
M  V30 53 1 24 50
M  V30 54 1 24 51
M  V30 55 1 27 52
M  V30 56 1 27 53
M  V30 57 1 27 54
M  V30 58 1 29 55
M  V30 59 1 29 56
M  V30 60 1 30 57
M  V30 61 1 30 58
M  V30 62 1 31 59
M  V30 63 1 33 60
M  V30 END BOND
M  V30 END CTAB
M  END
>  <Dataset>  (606) 
ChEMBL_Kinases

>  <Ligand_Instance>  (606) 
nan

>  <PDB_ID>  (606) 
nan

>  <Standardized_SMILES>  (606) 
C=CC(=O)Oc1ccccc1Nc1nc(Nc2cccc(N3CCN(C(C)=O)CC3)c2)ncc1Cl

>  <Name>  (606) 
nan

>  <Pocket>  (606) 
nan

>  <ATP_Site>  (606) 
nan

>  <Peripheral>  (606) 
nan

>  <Num_H_Atoms_ProtBoundConf>  (606) 
nan

>  <Num_Resolved_Atoms>  (606) 
nan

>  <Num_Not_Resolved_Atoms>  (606) 
nan

$$$$
CHEMBL388646
     RDKit          3D

  0  0  0  0  0  0  0  0  0  0999 V3000
M  V30 BEGIN CTAB
M  V30 COUNTS 52 55 0 0 0
M  V30 BEGIN ATOM
M  V30 1 N 1.332403 1.329438 6.298239 0
M  V30 2 C 1.093144 0.243133 5.446892 0
M  V30 3 O 1.027629 -0.880452 6.013064 0
M  V30 4 C 0.926145 0.362918 4.002484 0
M  V30 5 C 1.005835 1.612558 3.423717 0
M  V30 6 C 0.843169 1.699137 2.045910 0
M  V30 7 C 0.936529 3.042345 1.482603 0
M  V30 8 C 1.431341 3.162243 0.203393 0
M  V30 9 C 1.520248 4.443530 -0.334754 0
M  V30 10 C 1.133581 5.570590 0.366276 0
M  V30 11 C 0.639555 5.434880 1.647378 0
M  V30 12 C 0.545902 4.159432 2.196029 0
M  V30 13 C 0.608706 0.573774 1.272641 0
M  V30 14 C 0.534447 -0.677159 1.896089 0
M  V30 15 C 0.289661 -1.887407 1.119512 0
M  V30 16 C -0.590642 -2.900022 1.444266 0
M  V30 17 C -0.746140 -4.007303 0.633975 0
M  V30 18 C -0.021659 -4.136104 -0.532505 0
M  V30 19 S -0.146756 -5.499528 -1.625576 0
M  V30 20 O 1.150167 -5.721781 -2.352732 0
M  V30 21 O -0.459930 -6.747710 -0.858418 0
M  V30 22 N -1.367734 -5.185108 -2.799901 0
M  V30 23 N -1.087276 -4.080889 -3.578234 0
M  V30 24 C -2.319494 -3.487373 -4.021123 0
M  V30 25 C -3.297704 -2.989784 -3.019386 0
M  V30 26 C -2.454538 -1.984817 -3.771564 0
M  V30 27 C 0.867117 -3.108052 -0.855099 0
M  V30 28 C 1.043291 -1.978023 -0.053366 0
M  V30 29 C 0.693980 -0.778554 3.263380 0
M  V30 30 N 0.624567 -2.044142 3.943140 0
M  V30 31 H 0.464458 1.854167 6.547814 0
M  V30 32 H 2.059955 1.866724 6.819560 0
M  V30 33 H 1.190817 2.502404 4.033443 0
M  V30 34 H 1.748166 2.327396 -0.392869 0
M  V30 35 H 1.914905 4.534819 -1.354483 0
M  V30 36 H 1.255372 6.518600 -0.172953 0
M  V30 37 H 0.344812 6.343588 2.170255 0
M  V30 38 H 0.159070 4.063257 3.196931 0
M  V30 39 H 0.487042 0.675231 0.203924 0
M  V30 40 H -1.146667 -2.776315 2.363013 0
M  V30 41 H -1.432245 -4.792997 0.890394 0
M  V30 42 H -2.326815 -5.229695 -2.443974 0
M  V30 43 H -0.536279 -3.361125 -3.070910 0
M  V30 44 H -2.788036 -3.875692 -4.972602 0
M  V30 45 H -3.091866 -3.053896 -1.935547 0
M  V30 46 H -4.364858 -2.964529 -3.265252 0
M  V30 47 H -1.647774 -1.441759 -3.257379 0
M  V30 48 H -2.952462 -1.375338 -4.564665 0
M  V30 49 H 1.469164 -3.147838 -1.761585 0
M  V30 50 H 1.747281 -1.210339 -0.352522 0
M  V30 51 H -0.282302 -2.086423 4.498136 0
M  V30 52 H 1.337059 -2.806555 3.908630 0
M  V30 END ATOM
M  V30 BEGIN BOND
M  V30 1 1 1 2
M  V30 2 2 2 3
M  V30 3 1 2 4
M  V30 4 2 4 5
M  V30 5 1 5 6
M  V30 6 1 6 7
M  V30 7 2 7 8
M  V30 8 1 8 9
M  V30 9 2 9 10
M  V30 10 1 10 11
M  V30 11 2 11 12
M  V30 12 2 6 13
M  V30 13 1 13 14
M  V30 14 1 14 15
M  V30 15 2 15 16
M  V30 16 1 16 17
M  V30 17 2 17 18
M  V30 18 1 18 19
M  V30 19 2 19 20
M  V30 20 2 19 21
M  V30 21 1 19 22
M  V30 22 1 22 23
M  V30 23 1 23 24
M  V30 24 1 24 25
M  V30 25 1 25 26
M  V30 26 1 18 27
M  V30 27 2 27 28
M  V30 28 2 14 29
M  V30 29 1 29 30
M  V30 30 1 29 4
M  V30 31 1 12 7
M  V30 32 1 28 15
M  V30 33 1 26 24
M  V30 34 1 1 31
M  V30 35 1 1 32
M  V30 36 1 5 33
M  V30 37 1 8 34
M  V30 38 1 9 35
M  V30 39 1 10 36
M  V30 40 1 11 37
M  V30 41 1 12 38
M  V30 42 1 13 39
M  V30 43 1 16 40
M  V30 44 1 17 41
M  V30 45 1 22 42
M  V30 46 1 23 43
M  V30 47 1 24 44
M  V30 48 1 25 45
M  V30 49 1 25 46
M  V30 50 1 26 47
M  V30 51 1 26 48
M  V30 52 1 27 49
M  V30 53 1 28 50
M  V30 54 1 30 51
M  V30 55 1 30 52
M  V30 END BOND
M  V30 END CTAB
M  END
>  <Dataset>  (607) 
ChEMBL_Kinases

>  <Ligand_Instance>  (607) 
nan

>  <PDB_ID>  (607) 
nan

>  <Standardized_SMILES>  (607) 
NC(=O)c1cc(-c2ccccc2)cc(-c2ccc(S(=O)(=O)NNC3CC3)cc2)c1N

>  <Name>  (607) 
nan

>  <Pocket>  (607) 
nan

>  <ATP_Site>  (607) 
nan

>  <Peripheral>  (607) 
nan

>  <Num_H_Atoms_ProtBoundConf>  (607) 
nan

>  <Num_Resolved_Atoms>  (607) 
nan

>  <Num_Not_Resolved_Atoms>  (607) 
nan

$$$$
CHEMBL388739
     RDKit          3D

  0  0  0  0  0  0  0  0  0  0999 V3000
M  V30 BEGIN CTAB
M  V30 COUNTS 51 54 0 0 0
M  V30 BEGIN ATOM
M  V30 1 C 0.138506 2.015386 0.907494 0
M  V30 2 C 0.522969 0.806718 0.146864 0
M  V30 3 C 1.731529 0.290300 0.143303 0
M  V30 4 C 2.222152 -0.882830 -0.551076 0
M  V30 5 O 1.609335 -1.671791 -1.277965 0
M  V30 6 N 3.616969 -1.079855 -0.302535 0
M  V30 7 C 3.976141 0.007273 0.568105 0
M  V30 8 C 5.207287 0.294397 1.112602 0
M  V30 9 C 5.386483 1.383434 1.932006 0
M  V30 10 C 4.311647 2.218710 2.224328 0
M  V30 11 N 4.639971 3.298663 3.078956 0
M  V30 12 C 3.829402 4.346381 3.585197 0
M  V30 13 N 4.237704 5.397359 4.443846 0
M  V30 14 O 2.620500 4.369306 3.254053 0
M  V30 15 C 3.099190 1.899910 1.663003 0
M  V30 16 C 2.894266 0.817713 0.841276 0
M  V30 17 C -0.519110 0.193054 -0.700847 0
M  V30 18 C -1.753864 -0.148361 -0.197707 0
M  V30 19 C -2.580734 -0.666382 -1.164630 0
M  V30 20 C -3.971640 -1.181040 -1.168741 0
M  V30 21 N -4.051480 -2.602237 -0.922800 0
M  V30 22 C -3.897680 -3.238222 0.332746 0
M  V30 23 O -3.673383 -2.441419 1.285065 0
M  V30 24 C -3.985150 -4.670770 0.534163 0
M  V30 25 C -4.227860 -5.595532 -0.455384 0
M  V30 26 C -4.299133 -6.964941 -0.188935 0
M  V30 27 C -4.117229 -7.401756 1.124892 0
M  V30 28 N -3.880185 -6.480420 2.081747 0
M  V30 29 C -3.815393 -5.166967 1.805471 0
M  V30 30 C -1.786278 -0.626479 -2.299908 0
M  V30 31 N -0.598011 -0.124510 -2.005056 0
M  V30 32 H 0.567642 2.952896 0.545028 0
M  V30 33 H 0.185204 1.838938 2.001427 0
M  V30 34 H -0.977141 2.156094 0.735027 0
M  V30 35 H 4.249133 -1.829649 -0.658520 0
M  V30 36 H 6.052486 -0.342103 0.896666 0
M  V30 37 H 6.380702 1.544892 2.321842 0
M  V30 38 H 5.604455 3.434516 3.451284 0
M  V30 39 H 4.652702 5.382959 5.400604 0
M  V30 40 H 4.182466 6.422858 4.236304 0
M  V30 41 H 2.347374 2.578697 1.932492 0
M  V30 42 H -2.097876 -0.045142 0.836287 0
M  V30 43 H -4.418838 -0.940743 -2.146382 0
M  V30 44 H -4.559210 -0.624194 -0.382386 0
M  V30 45 H -4.242312 -3.239182 -1.751994 0
M  V30 46 H -4.365549 -5.246519 -1.465530 0
M  V30 47 H -4.494193 -7.611689 -1.030324 0
M  V30 48 H -4.180931 -8.472834 1.285360 0
M  V30 49 H -3.620202 -4.553356 2.669061 0
M  V30 50 H -2.079585 -0.955083 -3.295898 0
M  V30 51 H 0.174455 0.026843 -2.685220 0
M  V30 END ATOM
M  V30 BEGIN BOND
M  V30 1 1 1 2
M  V30 2 2 2 3
M  V30 3 1 3 4
M  V30 4 2 4 5
M  V30 5 1 4 6
M  V30 6 1 6 7
M  V30 7 2 7 8
M  V30 8 1 8 9
M  V30 9 2 9 10
M  V30 10 1 10 11
M  V30 11 1 11 12
M  V30 12 1 12 13
M  V30 13 2 12 14
M  V30 14 1 10 15
M  V30 15 2 15 16
M  V30 16 1 2 17
M  V30 17 2 17 18
M  V30 18 1 18 19
M  V30 19 1 19 20
M  V30 20 1 20 21
M  V30 21 1 21 22
M  V30 22 2 22 23
M  V30 23 1 22 24
M  V30 24 2 24 25
M  V30 25 1 25 26
M  V30 26 2 26 27
M  V30 27 1 27 28
M  V30 28 2 28 29
M  V30 29 2 19 30
M  V30 30 1 30 31
M  V30 31 1 16 3
M  V30 32 1 31 17
M  V30 33 1 16 7
M  V30 34 1 29 24
M  V30 35 1 1 32
M  V30 36 1 1 33
M  V30 37 1 1 34
M  V30 38 1 6 35
M  V30 39 1 8 36
M  V30 40 1 9 37
M  V30 41 1 11 38
M  V30 42 1 13 39
M  V30 43 1 13 40
M  V30 44 1 15 41
M  V30 45 1 18 42
M  V30 46 1 20 43
M  V30 47 1 20 44
M  V30 48 1 21 45
M  V30 49 1 25 46
M  V30 50 1 26 47
M  V30 51 1 27 48
M  V30 52 1 29 49
M  V30 53 1 30 50
M  V30 54 1 31 51
M  V30 END BOND
M  V30 END CTAB
M  END
>  <Dataset>  (608) 
ChEMBL_Kinases

>  <Ligand_Instance>  (608) 
nan

>  <PDB_ID>  (608) 
nan

>  <Standardized_SMILES>  (608) 
C/C(=C1/C(=O)Nc2ccc(NC(N)=O)cc21)c1cc(CNC(=O)c2cccnc2)c[nH]1

>  <Name>  (608) 
nan

>  <Pocket>  (608) 
nan

>  <ATP_Site>  (608) 
nan

>  <Peripheral>  (608) 
nan

>  <Num_H_Atoms_ProtBoundConf>  (608) 
nan

>  <Num_Resolved_Atoms>  (608) 
nan

>  <Num_Not_Resolved_Atoms>  (608) 
nan

$$$$
CHEMBL3634760
     RDKit          3D

  0  0  0  0  0  0  0  0  0  0999 V3000
M  V30 BEGIN CTAB
M  V30 COUNTS 53 57 0 0 0
M  V30 BEGIN ATOM
M  V30 1 C -1.201173 -3.447238 4.350043 0
M  V30 2 C -0.060383 -2.852560 3.610357 0
M  V30 3 C 1.204681 -3.169360 4.072876 0
M  V30 4 C 2.256885 -2.611417 3.375497 0
M  V30 5 C 2.048341 -1.778904 2.271309 0
M  V30 6 C 3.220217 -1.230742 1.590064 0
M  V30 7 N 4.510839 -1.433920 1.904399 0
M  V30 8 N 5.254166 -0.759785 1.040613 0
M  V30 9 C 4.500465 -0.098834 0.140787 0
M  V30 10 C 4.925635 0.700907 -0.900477 0
M  V30 11 N 3.907623 1.232847 -1.639639 0
M  V30 12 C 2.618768 0.972747 -1.342121 0
M  V30 13 C 1.614275 1.598334 -2.205249 0
M  V30 14 C 1.904204 2.418283 -3.278952 0
M  V30 15 N 0.730883 2.802234 -3.828229 0
M  V30 16 N -0.282311 2.269464 -3.159901 0
M  V30 17 C -1.721180 2.361066 -3.332262 0
M  V30 18 C 0.243035 1.519699 -2.150059 0
M  V30 19 C 2.212851 0.167420 -0.292712 0
M  V30 20 C 3.201946 -0.401580 0.494333 0
M  V30 21 N 0.797999 -1.533438 1.903337 0
M  V30 22 C -0.299687 -2.035231 2.525185 0
M  V30 23 N -1.605250 -1.714820 2.058681 0
M  V30 24 C -2.689977 -1.038301 2.749889 0
M  V30 25 C -4.032726 -1.534769 2.195715 0
M  V30 26 C -4.182211 -1.151518 0.739399 0
M  V30 27 C -2.798507 -0.981140 0.150191 0 CFG=2
M  V30 28 N -2.819041 -0.989673 -1.295454 0
M  V30 29 C -1.941692 -2.105247 0.698250 0
M  V30 30 H -1.513753 -2.803528 5.207880 0
M  V30 31 H -2.082295 -3.563808 3.704375 0
M  V30 32 H -0.907143 -4.411698 4.842090 0
M  V30 33 H 1.348831 -3.818655 4.933373 0
M  V30 34 H 3.280626 -2.807203 3.670014 0
M  V30 35 H 6.299501 -0.797282 1.127357 0
M  V30 36 H 5.974076 0.864442 -1.079227 0
M  V30 37 H 2.851789 2.747895 -3.681074 0
M  V30 38 H -2.142370 1.479352 -3.866637 0
M  V30 39 H -2.227803 2.347352 -2.322533 0
M  V30 40 H -1.975725 3.328805 -3.814251 0
M  V30 41 H -0.210392 0.908701 -1.358375 0
M  V30 42 H 1.183601 -0.035746 -0.061237 0
M  V30 43 H -2.727494 -1.257741 3.836002 0
M  V30 44 H -2.667051 0.057945 2.579931 0
M  V30 45 H -4.829833 -1.067145 2.774996 0
M  V30 46 H -4.067090 -2.630263 2.304011 0
M  V30 47 H -4.791115 -0.211508 0.681511 0
M  V30 48 H -4.679462 -2.002628 0.229726 0
M  V30 49 H -2.403305 -0.006870 0.513961 0
M  V30 50 H -2.342932 -0.152863 -1.661727 0
M  V30 51 H -3.782534 -1.035539 -1.680690 0
M  V30 52 H -1.042468 -2.243309 0.071133 0
M  V30 53 H -2.478265 -3.077213 0.671124 0
M  V30 END ATOM
M  V30 BEGIN BOND
M  V30 1 1 1 2
M  V30 2 2 2 3
M  V30 3 1 3 4
M  V30 4 2 4 5
M  V30 5 1 5 6
M  V30 6 2 6 7
M  V30 7 1 7 8
M  V30 8 1 8 9
M  V30 9 2 9 10
M  V30 10 1 10 11
M  V30 11 2 11 12
M  V30 12 1 12 13
M  V30 13 1 13 14
M  V30 14 2 14 15
M  V30 15 1 15 16
M  V30 16 1 16 17
M  V30 17 1 16 18
M  V30 18 1 12 19
M  V30 19 2 19 20
M  V30 20 1 5 21
M  V30 21 2 21 22
M  V30 22 1 22 23
M  V30 23 1 23 24
M  V30 24 1 24 25
M  V30 25 1 25 26
M  V30 26 1 26 27
M  V30 27 1 27 28
M  V30 28 1 27 29
M  V30 29 1 22 2
M  V30 30 1 29 23
M  V30 31 1 20 6
M  V30 32 1 20 9
M  V30 33 2 18 13
M  V30 34 1 1 30
M  V30 35 1 1 31
M  V30 36 1 1 32
M  V30 37 1 3 33
M  V30 38 1 4 34
M  V30 39 1 8 35
M  V30 40 1 10 36
M  V30 41 1 14 37
M  V30 42 1 17 38
M  V30 43 1 17 39
M  V30 44 1 17 40
M  V30 45 1 18 41
M  V30 46 1 19 42
M  V30 47 1 24 43
M  V30 48 1 24 44
M  V30 49 1 25 45
M  V30 50 1 25 46
M  V30 51 1 26 47
M  V30 52 1 26 48
M  V30 53 1 27 49 CFG=3
M  V30 54 1 28 50
M  V30 55 1 28 51
M  V30 56 1 29 52
M  V30 57 1 29 53
M  V30 END BOND
M  V30 END CTAB
M  END
>  <Dataset>  (609) 
ChEMBL_Kinases

>  <Ligand_Instance>  (609) 
nan

>  <PDB_ID>  (609) 
nan

>  <Standardized_SMILES>  (609) 
Cc1ccc(-c2n[nH]c3cnc(-c4cnn(C)c4)cc23)nc1N1CCC[C@H](N)C1

>  <Name>  (609) 
nan

>  <Pocket>  (609) 
nan

>  <ATP_Site>  (609) 
nan

>  <Peripheral>  (609) 
nan

>  <Num_H_Atoms_ProtBoundConf>  (609) 
nan

>  <Num_Resolved_Atoms>  (609) 
nan

>  <Num_Not_Resolved_Atoms>  (609) 
nan

$$$$
CHEMBL3634708
     RDKit          3D

  0  0  0  0  0  0  0  0  0  0999 V3000
M  V30 BEGIN CTAB
M  V30 COUNTS 52 56 0 0 0
M  V30 BEGIN ATOM
M  V30 1 C -1.102885 -5.270832 6.330137 0
M  V30 2 C -0.909506 -5.636797 5.100690 0
M  V30 3 C -0.131709 -4.964383 4.082694 0
M  V30 4 C -0.076892 -5.590992 2.872007 0
M  V30 5 C 0.641392 -4.999606 1.858788 0
M  V30 6 C 1.270105 -3.802813 2.116138 0
M  V30 7 C 1.232366 -3.148814 3.323773 0
M  V30 8 N 1.866792 -1.911451 3.585230 0
M  V30 9 C 2.643234 -1.048409 2.753494 0
M  V30 10 C 1.913756 -0.493395 1.582541 0
M  V30 11 N 1.138045 0.621222 1.736762 0
M  V30 12 C 0.577207 0.976895 0.567671 0
M  V30 13 C -0.312706 2.071455 0.264796 0
M  V30 14 C 0.008975 3.096637 -0.634070 0
M  V30 15 C -0.838963 4.163161 -0.947554 0
M  V30 16 C -2.061554 4.130535 -0.281021 0
M  V30 17 N -3.059956 5.022608 -0.391454 0
M  V30 18 C -4.059758 4.626698 0.416234 0
M  V30 19 N -3.671132 3.495353 1.017756 0
M  V30 20 N -2.455745 3.172704 0.608419 0
M  V30 21 C -1.550514 2.205533 0.820646 0
M  V30 22 C 1.000256 0.072329 -0.364573 0
M  V30 23 C 0.675424 0.028952 -1.784524 0
M  V30 24 N -0.376917 -0.514259 -2.466738 0
M  V30 25 C -0.391057 -0.381930 -3.793702 0
M  V30 26 C -1.576303 -1.000952 -4.471401 0
M  V30 27 C 0.529781 0.244364 -4.624891 0
M  V30 28 C 1.606314 0.799222 -3.921821 0
M  V30 29 C 1.653351 0.681360 -2.548666 0
M  V30 30 F 2.759901 1.273145 -2.030098 0
M  V30 31 N 1.796426 -0.783481 0.297147 0
M  V30 32 C 0.508766 -3.773988 4.296678 0
M  V30 33 H -1.368794 -5.131004 7.355235 0
M  V30 34 H -0.645481 -4.353947 6.670830 0
M  V30 35 H -1.443670 -6.559806 4.948767 0
M  V30 36 H -0.588482 -6.529015 2.718885 0
M  V30 37 H 0.698472 -5.479167 0.889935 0
M  V30 38 H 1.815906 -3.394300 1.293642 0
M  V30 39 H 1.755801 -1.545037 4.569272 0
M  V30 40 H 3.061986 -0.203624 3.318906 0
M  V30 41 H 3.520320 -1.586843 2.298578 0
M  V30 42 H 0.967808 3.093221 -1.132027 0
M  V30 43 H -0.575532 4.933564 -1.634465 0
M  V30 44 H -5.067568 4.913979 0.740879 0
M  V30 45 H -1.861893 1.445525 1.525478 0
M  V30 46 H -2.472826 -0.963941 -3.802996 0
M  V30 47 H -1.837480 -0.491645 -5.410968 0
M  V30 48 H -1.301043 -2.051903 -4.680399 0
M  V30 49 H 0.400797 0.280754 -5.684502 0
M  V30 50 H 2.347105 1.295769 -4.523482 0
M  V30 51 H 2.288794 -1.594911 -0.130095 0
M  V30 52 H 0.423629 -3.334285 5.281129 0
M  V30 END ATOM
M  V30 BEGIN BOND
M  V30 1 2 1 2
M  V30 2 1 2 3
M  V30 3 2 3 4
M  V30 4 1 4 5
M  V30 5 2 5 6
M  V30 6 1 6 7
M  V30 7 1 7 8
M  V30 8 1 8 9
M  V30 9 1 9 10
M  V30 10 2 10 11
M  V30 11 1 11 12
M  V30 12 1 12 13
M  V30 13 1 13 14
M  V30 14 2 14 15
M  V30 15 1 15 16
M  V30 16 2 16 17
M  V30 17 1 17 18
M  V30 18 2 18 19
M  V30 19 1 19 20
M  V30 20 1 20 21
M  V30 21 2 12 22
M  V30 22 1 22 23
M  V30 23 2 23 24
M  V30 24 1 24 25
M  V30 25 1 25 26
M  V30 26 2 25 27
M  V30 27 1 27 28
M  V30 28 2 28 29
M  V30 29 1 29 30
M  V30 30 1 22 31
M  V30 31 2 7 32
M  V30 32 1 32 3
M  V30 33 1 31 10
M  V30 34 2 21 13
M  V30 35 1 29 23
M  V30 36 1 20 16
M  V30 37 1 1 33
M  V30 38 1 1 34
M  V30 39 1 2 35
M  V30 40 1 4 36
M  V30 41 1 5 37
M  V30 42 1 6 38
M  V30 43 1 8 39
M  V30 44 1 9 40
M  V30 45 1 9 41
M  V30 46 1 14 42
M  V30 47 1 15 43
M  V30 48 1 18 44
M  V30 49 1 21 45
M  V30 50 1 26 46
M  V30 51 1 26 47
M  V30 52 1 26 48
M  V30 53 1 27 49
M  V30 54 1 28 50
M  V30 55 1 31 51
M  V30 56 1 32 52
M  V30 END BOND
M  V30 END CTAB
M  END
>  <Dataset>  (610) 
ChEMBL_Kinases

>  <Ligand_Instance>  (610) 
nan

>  <PDB_ID>  (610) 
nan

>  <Standardized_SMILES>  (610) 
C=Cc1cccc(NCc2nc(-c3ccc4ncnn4c3)c(-c3nc(C)ccc3F)[nH]2)c1

>  <Name>  (610) 
nan

>  <Pocket>  (610) 
nan

>  <ATP_Site>  (610) 
nan

>  <Peripheral>  (610) 
nan

>  <Num_H_Atoms_ProtBoundConf>  (610) 
nan

>  <Num_Resolved_Atoms>  (610) 
nan

>  <Num_Not_Resolved_Atoms>  (610) 
nan

$$$$
CHEMBL3641991
     RDKit          3D

  0  0  0  0  0  0  0  0  0  0999 V3000
M  V30 BEGIN CTAB
M  V30 COUNTS 53 58 0 0 0
M  V30 BEGIN ATOM
M  V30 1 O 1.018485 -7.150394 4.350939 0
M  V30 2 C 0.966280 -6.348490 3.220014 0 CFG=2
M  V30 3 C 1.987763 -6.895683 2.230778 0
M  V30 4 C 3.023803 -5.796857 2.134085 0
M  V30 5 N 2.261622 -4.579156 2.331744 0
M  V30 6 C 2.273671 -3.371462 1.579903 0
M  V30 7 C 3.120580 -3.303092 0.492986 0
M  V30 8 C 3.150580 -2.139194 -0.254322 0
M  V30 9 C 2.301395 -1.114213 0.168173 0
M  V30 10 N 2.241711 0.134494 -0.520110 0
M  V30 11 C 1.410243 1.234134 -0.165069 0
M  V30 12 N 1.755408 2.230450 0.677354 0
M  V30 13 C 0.906678 3.236313 0.960305 0
M  V30 14 C -0.367298 3.276726 0.383895 0
M  V30 15 C -1.449399 4.130497 0.452600 0
M  V30 16 C -1.629353 5.309959 1.170884 0
M  V30 17 C -2.843540 5.980392 1.052075 0
M  V30 18 N -3.824308 5.487175 0.251098 0
M  V30 19 C -3.601609 4.328169 -0.432987 0
M  V30 20 C -2.436794 3.616915 -0.365393 0
M  V30 21 N -1.972646 2.488640 -0.914065 0
M  V30 22 C -2.759020 1.709282 -1.817845 0
M  V30 23 C -3.835015 0.838599 -1.195322 0
M  V30 24 C -3.547630 -0.146986 -2.335480 0
M  V30 25 C -2.152651 0.459820 -2.376123 0
M  V30 26 C -0.701620 2.244929 -0.477564 0
M  V30 27 N 0.177321 1.254453 -0.735708 0
M  V30 28 N 1.493922 -1.234165 1.237894 0
M  V30 29 C 1.439115 -2.351372 1.987322 0
M  V30 30 C 1.488164 -4.936938 3.504760 0
M  V30 31 H 0.144358 -7.147862 4.814559 0
M  V30 32 H -0.028859 -6.305522 2.740791 0
M  V30 33 H 2.393009 -7.869645 2.535051 0
M  V30 34 H 1.510867 -6.972153 1.233051 0
M  V30 35 H 3.472979 -5.866867 1.124878 0
M  V30 36 H 3.833893 -5.923888 2.880166 0
M  V30 37 H 3.771243 -4.089438 0.169873 0
M  V30 38 H 3.759736 -1.940221 -1.127538 0
M  V30 39 H 2.849912 0.275296 -1.356539 0
M  V30 40 H 1.169291 4.031910 1.626847 0
M  V30 41 H -0.839600 5.706154 1.815206 0
M  V30 42 H -2.955375 6.893352 1.621083 0
M  V30 43 H -4.413083 3.991381 -1.047127 0
M  V30 44 H -3.185440 2.343764 -2.606014 0
M  V30 45 H -4.867549 1.192009 -1.281372 0
M  V30 46 H -3.569085 0.426436 -0.209215 0
M  V30 47 H -3.623657 -1.195021 -2.053813 0
M  V30 48 H -4.142682 0.113026 -3.233528 0
M  V30 49 H -1.500440 -0.123826 -1.710262 0
M  V30 50 H -1.788205 0.602325 -3.398589 0
M  V30 51 H 0.781762 -2.418787 2.839722 0
M  V30 52 H 0.686988 -4.239332 3.754773 0
M  V30 53 H 2.230147 -5.090019 4.338779 0
M  V30 END ATOM
M  V30 BEGIN BOND
M  V30 1 1 1 2
M  V30 2 1 2 3
M  V30 3 1 3 4
M  V30 4 1 4 5
M  V30 5 1 5 6
M  V30 6 2 6 7
M  V30 7 1 7 8
M  V30 8 2 8 9
M  V30 9 1 9 10
M  V30 10 1 10 11
M  V30 11 2 11 12
M  V30 12 1 12 13
M  V30 13 2 13 14
M  V30 14 1 14 15
M  V30 15 2 15 16
M  V30 16 1 16 17
M  V30 17 2 17 18
M  V30 18 1 18 19
M  V30 19 2 19 20
M  V30 20 1 20 21
M  V30 21 1 21 22
M  V30 22 1 22 23
M  V30 23 1 23 24
M  V30 24 1 24 25
M  V30 25 1 21 26
M  V30 26 2 26 27
M  V30 27 1 9 28
M  V30 28 2 28 29
M  V30 29 1 5 30
M  V30 30 1 30 2
M  V30 31 1 29 6
M  V30 32 1 27 11
M  V30 33 1 26 14
M  V30 34 1 20 15
M  V30 35 1 25 22
M  V30 36 1 1 31
M  V30 37 1 2 32 CFG=3
M  V30 38 1 3 33
M  V30 39 1 3 34
M  V30 40 1 4 35
M  V30 41 1 4 36
M  V30 42 1 7 37
M  V30 43 1 8 38
M  V30 44 1 10 39
M  V30 45 1 13 40
M  V30 46 1 16 41
M  V30 47 1 17 42
M  V30 48 1 19 43
M  V30 49 1 22 44
M  V30 50 1 23 45
M  V30 51 1 23 46
M  V30 52 1 24 47
M  V30 53 1 24 48
M  V30 54 1 25 49
M  V30 55 1 25 50
M  V30 56 1 29 51
M  V30 57 1 30 52
M  V30 58 1 30 53
M  V30 END BOND
M  V30 END CTAB
M  END
>  <Dataset>  (611) 
ChEMBL_Kinases

>  <Ligand_Instance>  (611) 
nan

>  <PDB_ID>  (611) 
nan

>  <Standardized_SMILES>  (611) 
O[C@@H]1CCN(c2ccc(Nc3ncc4c5ccncc5n(C5CCC5)c4n3)nc2)C1

>  <Name>  (611) 
nan

>  <Pocket>  (611) 
nan

>  <ATP_Site>  (611) 
nan

>  <Peripheral>  (611) 
nan

>  <Num_H_Atoms_ProtBoundConf>  (611) 
nan

>  <Num_Resolved_Atoms>  (611) 
nan

>  <Num_Not_Resolved_Atoms>  (611) 
nan

$$$$
CHEMBL3654670
     RDKit          3D

  0  0  0  0  0  0  0  0  0  0999 V3000
M  V30 BEGIN CTAB
M  V30 COUNTS 48 51 0 0 0
M  V30 BEGIN ATOM
M  V30 1 C -2.437383 -4.282133 -5.553536 0
M  V30 2 C -2.161761 -5.006869 -4.302419 0
M  V30 3 C -1.901774 -4.318509 -3.145025 0
M  V30 4 C -1.636536 -4.925889 -1.955334 0
M  V30 5 C -1.351024 -4.298483 -0.682259 0
M  V30 6 N -1.877725 -4.656822 0.525401 0
M  V30 7 N -1.410274 -3.879961 1.488143 0
M  V30 8 C -0.553777 -2.966276 0.992211 0
M  V30 9 C 0.214551 -1.930061 1.502478 0
M  V30 10 C 1.001533 -1.178987 0.648996 0
M  V30 11 N 1.732692 -0.152794 1.313338 0
M  V30 12 C 1.086677 1.126581 1.432198 0
M  V30 13 O -0.066343 1.311918 0.965665 0
M  V30 14 N 1.858712 2.113217 2.104273 0
M  V30 15 C 1.209602 3.425658 2.233355 0 CFG=2
M  V30 16 C 2.077246 4.459284 1.551415 0
M  V30 17 C 1.155622 3.797434 3.685797 0
M  V30 18 C 2.256712 3.616170 4.462839 0
M  V30 19 C 2.142932 3.975246 5.786210 0
M  V30 20 C 0.970342 4.496641 6.312185 0
M  V30 21 Cl 0.785282 4.966642 7.994546 0
M  V30 22 C -0.143115 4.673871 5.500832 0
M  V30 23 C -0.023335 4.311733 4.173324 0
M  V30 24 N 1.020967 -1.454667 -0.676591 0
M  V30 25 C 0.274813 -2.465606 -1.192742 0
M  V30 26 C -0.521776 -3.233855 -0.364660 0
M  V30 27 C -1.636254 -6.326180 -1.944347 0
M  V30 28 C -1.901633 -7.007553 -3.125366 0
M  V30 29 N -2.158397 -6.368478 -4.277232 0
M  V30 30 H -3.357671 -3.679206 -5.405609 0
M  V30 31 H -2.677536 -4.993406 -6.374894 0
M  V30 32 H -1.609575 -3.605469 -5.851128 0
M  V30 33 H -1.899258 -3.247558 -3.140412 0
M  V30 34 H -1.644911 -3.931723 2.505898 0
M  V30 35 H 0.143459 -1.773136 2.574255 0
M  V30 36 H 2.702375 -0.371522 1.685198 0
M  V30 37 H 2.799311 1.985433 2.492269 0
M  V30 38 H 0.215381 3.427553 1.778313 0
M  V30 39 H 1.733793 4.679858 0.534130 0
M  V30 40 H 2.006549 5.423864 2.122978 0
M  V30 41 H 3.140890 4.131356 1.558642 0
M  V30 42 H 3.198883 3.213788 4.108178 0
M  V30 43 H 2.950241 3.882871 6.522881 0
M  V30 44 H -1.106728 5.067877 5.790576 0
M  V30 45 H -0.866085 4.428935 3.488728 0
M  V30 46 H 0.330267 -2.639807 -2.256937 0
M  V30 47 H -1.432245 -6.885739 -1.030183 0
M  V30 48 H -1.889694 -8.102456 -3.061855 0
M  V30 END ATOM
M  V30 BEGIN BOND
M  V30 1 1 1 2
M  V30 2 2 2 3
M  V30 3 1 3 4
M  V30 4 1 4 5
M  V30 5 2 5 6
M  V30 6 1 6 7
M  V30 7 1 7 8
M  V30 8 2 8 9
M  V30 9 1 9 10
M  V30 10 1 10 11
M  V30 11 1 11 12
M  V30 12 2 12 13
M  V30 13 1 12 14
M  V30 14 1 14 15
M  V30 15 1 15 16
M  V30 16 1 15 17
M  V30 17 2 17 18
M  V30 18 1 18 19
M  V30 19 2 19 20
M  V30 20 1 20 21
M  V30 21 1 20 22
M  V30 22 2 22 23
M  V30 23 2 10 24
M  V30 24 1 24 25
M  V30 25 2 25 26
M  V30 26 2 4 27
M  V30 27 1 27 28
M  V30 28 2 28 29
M  V30 29 1 29 2
M  V30 30 1 26 5
M  V30 31 1 26 8
M  V30 32 1 23 17
M  V30 33 1 1 30
M  V30 34 1 1 31
M  V30 35 1 1 32
M  V30 36 1 3 33
M  V30 37 1 7 34
M  V30 38 1 9 35
M  V30 39 1 11 36
M  V30 40 1 14 37
M  V30 41 1 15 38 CFG=3
M  V30 42 1 16 39
M  V30 43 1 16 40
M  V30 44 1 16 41
M  V30 45 1 18 42
M  V30 46 1 19 43
M  V30 47 1 22 44
M  V30 48 1 23 45
M  V30 49 1 25 46
M  V30 50 1 27 47
M  V30 51 1 28 48
M  V30 END BOND
M  V30 END CTAB
M  END
>  <Dataset>  (612) 
ChEMBL_Kinases

>  <Ligand_Instance>  (612) 
nan

>  <PDB_ID>  (612) 
nan

>  <Standardized_SMILES>  (612) 
Cc1cc(-c2n[nH]c3cc(NC(=O)N[C@H](C)c4ccc(Cl)cc4)ncc23)ccn1

>  <Name>  (612) 
nan

>  <Pocket>  (612) 
nan

>  <ATP_Site>  (612) 
nan

>  <Peripheral>  (612) 
nan

>  <Num_H_Atoms_ProtBoundConf>  (612) 
nan

>  <Num_Resolved_Atoms>  (612) 
nan

>  <Num_Not_Resolved_Atoms>  (612) 
nan

$$$$
CHEMBL3641992
     RDKit          3D

  0  0  0  0  0  0  0  0  0  0999 V3000
M  V30 BEGIN CTAB
M  V30 COUNTS 70 75 0 0 0
M  V30 BEGIN ATOM
M  V30 1 C 2.287037 -2.474032 2.634647 0
M  V30 2 C 3.368076 -3.328719 1.953252 0 CFG=2
M  V30 3 C 3.838394 -4.330844 2.981448 0
M  V30 4 O 2.776230 -5.170451 3.383646 0
M  V30 5 N 4.384672 -2.457056 1.513543 0
M  V30 6 C 4.052502 -1.461158 0.578247 0
M  V30 7 C 3.558365 -1.948707 -0.762625 0
M  V30 8 C 3.723128 -0.771362 -1.732121 0
M  V30 9 N 3.630766 0.484156 -0.968566 0
M  V30 10 C 2.508648 1.343738 -0.823059 0
M  V30 11 C 2.462388 2.595991 -0.245711 0
M  V30 12 C 1.252869 3.262395 -0.179831 0
M  V30 13 C 0.088903 2.705326 -0.677894 0
M  V30 14 N -1.169278 3.399832 -0.586626 0
M  V30 15 C -2.289166 2.716331 -1.136916 0
M  V30 16 N -3.067973 3.018479 -2.192121 0
M  V30 17 C -4.090347 2.214370 -2.571691 0
M  V30 18 C -4.328406 1.057451 -1.848294 0
M  V30 19 C -5.253151 0.022777 -1.941025 0
M  V30 20 C -6.296374 -0.173010 -2.853094 0
M  V30 21 C -7.081304 -1.310341 -2.717453 0
M  V30 22 N -6.846386 -2.214036 -1.725309 0
M  V30 23 C -5.831234 -1.988955 -0.866503 0
M  V30 24 C -5.006679 -0.884041 -0.934449 0
M  V30 25 N -3.955703 -0.436019 -0.224191 0
M  V30 26 C -3.412656 -1.121394 0.884406 0
M  V30 27 C -2.312489 -0.470487 1.625502 0
M  V30 28 C -2.408447 -0.999286 3.069170 0
M  V30 29 C -3.885416 -1.065405 3.258636 0
M  V30 30 C -4.414808 -1.518999 1.942046 0
M  V30 31 C -3.531944 0.744780 -0.766966 0
M  V30 32 N -2.532741 1.582882 -0.438983 0
M  V30 33 N 0.194323 1.483685 -1.230224 0
M  V30 34 C 1.345779 0.790564 -1.320251 0
M  V30 35 C 4.913552 0.725226 -0.324097 0
M  V30 36 C 5.248019 -0.539842 0.425601 0
M  V30 37 H 1.747031 -3.093911 3.378692 0
M  V30 38 H 1.578688 -2.088392 1.869455 0
M  V30 39 H 2.750543 -1.631339 3.191289 0
M  V30 40 H 2.831924 -3.880706 1.168157 0
M  V30 41 H 4.272234 -3.891655 3.886284 0
M  V30 42 H 4.630358 -4.939322 2.484137 0
M  V30 43 H 2.757061 -5.987513 2.852579 0
M  V30 44 H 5.090447 -2.242295 2.230047 0
M  V30 45 H 3.189333 -0.884215 1.028309 0
M  V30 46 H 4.174530 -2.764684 -1.130324 0
M  V30 47 H 2.479901 -2.128796 -0.690741 0
M  V30 48 H 2.919105 -0.722366 -2.486972 0
M  V30 49 H 4.666140 -0.833335 -2.306952 0
M  V30 50 H 3.409670 2.959583 0.117580 0
M  V30 51 H 1.258386 4.240579 0.278633 0
M  V30 52 H -1.163909 4.339614 -0.132245 0
M  V30 53 H -4.688850 2.478323 -3.408355 0
M  V30 54 H -6.480820 0.556974 -3.648068 0
M  V30 55 H -7.873236 -1.414442 -3.446039 0
M  V30 56 H -5.694780 -2.741405 -0.103192 0
M  V30 57 H -2.995342 -2.095428 0.478294 0
M  V30 58 H -2.303554 0.605231 1.716570 0
M  V30 59 H -1.318405 -0.806782 1.267598 0
M  V30 60 H -1.978660 -2.031872 3.115535 0
M  V30 61 H -1.867781 -0.344308 3.757208 0
M  V30 62 H -4.320284 -0.098655 3.589224 0
M  V30 63 H -4.108076 -1.849068 4.030567 0
M  V30 64 H -5.430292 -1.124995 1.718586 0
M  V30 65 H -4.550036 -2.638576 1.991666 0
M  V30 66 H 1.119563 -0.156006 -1.808362 0
M  V30 67 H 4.931434 1.624173 0.292323 0
M  V30 68 H 5.660093 0.867564 -1.128750 0
M  V30 69 H 6.015736 -1.120369 -0.117206 0
M  V30 70 H 5.654466 -0.279770 1.400830 0
M  V30 END ATOM
M  V30 BEGIN BOND
M  V30 1 1 1 2
M  V30 2 1 2 3
M  V30 3 1 3 4
M  V30 4 1 2 5
M  V30 5 1 5 6
M  V30 6 1 6 7
M  V30 7 1 7 8
M  V30 8 1 8 9
M  V30 9 1 9 10
M  V30 10 2 10 11
M  V30 11 1 11 12
M  V30 12 2 12 13
M  V30 13 1 13 14
M  V30 14 1 14 15
M  V30 15 2 15 16
M  V30 16 1 16 17
M  V30 17 2 17 18
M  V30 18 1 18 19
M  V30 19 2 19 20
M  V30 20 1 20 21
M  V30 21 2 21 22
M  V30 22 1 22 23
M  V30 23 2 23 24
M  V30 24 1 24 25
M  V30 25 1 25 26
M  V30 26 1 26 27
M  V30 27 1 27 28
M  V30 28 1 28 29
M  V30 29 1 29 30
M  V30 30 1 25 31
M  V30 31 2 31 32
M  V30 32 1 13 33
M  V30 33 2 33 34
M  V30 34 1 9 35
M  V30 35 1 35 36
M  V30 36 1 36 6
M  V30 37 1 34 10
M  V30 38 1 32 15
M  V30 39 1 31 18
M  V30 40 1 24 19
M  V30 41 1 30 26
M  V30 42 1 1 37
M  V30 43 1 1 38
M  V30 44 1 1 39
M  V30 45 1 2 40 CFG=3
M  V30 46 1 3 41
M  V30 47 1 3 42
M  V30 48 1 4 43
M  V30 49 1 5 44
M  V30 50 1 6 45
M  V30 51 1 7 46
M  V30 52 1 7 47
M  V30 53 1 8 48
M  V30 54 1 8 49
M  V30 55 1 11 50
M  V30 56 1 12 51
M  V30 57 1 14 52
M  V30 58 1 17 53
M  V30 59 1 20 54
M  V30 60 1 21 55
M  V30 61 1 23 56
M  V30 62 1 26 57
M  V30 63 1 27 58
M  V30 64 1 27 59
M  V30 65 1 28 60
M  V30 66 1 28 61
M  V30 67 1 29 62
M  V30 68 1 29 63
M  V30 69 1 30 64
M  V30 70 1 30 65
M  V30 71 1 34 66
M  V30 72 1 35 67
M  V30 73 1 35 68
M  V30 74 1 36 69
M  V30 75 1 36 70
M  V30 END BOND
M  V30 END CTAB
M  END
>  <Dataset>  (613) 
ChEMBL_Kinases

>  <Ligand_Instance>  (613) 
nan

>  <PDB_ID>  (613) 
nan

>  <Standardized_SMILES>  (613) 
C[C@H](CO)NC1CCN(c2ccc(Nc3ncc4c5ccncc5n(C5CCCC5)c4n3)nc2)CC1

>  <Name>  (613) 
nan

>  <Pocket>  (613) 
nan

>  <ATP_Site>  (613) 
nan

>  <Peripheral>  (613) 
nan

>  <Num_H_Atoms_ProtBoundConf>  (613) 
nan

>  <Num_Resolved_Atoms>  (613) 
nan

>  <Num_Not_Resolved_Atoms>  (613) 
nan

$$$$
CHEMBL3641993
     RDKit          3D

  0  0  0  0  0  0  0  0  0  0999 V3000
M  V30 BEGIN CTAB
M  V30 COUNTS 69 75 0 0 0
M  V30 BEGIN ATOM
M  V30 1 C -1.826250 -4.539555 6.126915 0
M  V30 2 C -1.855343 -3.572732 5.142332 0
M  V30 3 C -0.683088 -3.333683 4.444231 0
M  V30 4 C -0.515706 -2.420023 3.441887 0
M  V30 5 C -1.255535 -1.491235 2.775192 0
M  V30 6 N -0.645415 -0.783503 1.817009 0
M  V30 7 C 0.634936 -0.897376 1.442537 0
M  V30 8 N 1.247303 -0.129078 0.421854 0
M  V30 9 C 0.681092 0.879767 -0.393738 0
M  V30 10 C -0.619816 1.325458 -0.352490 0
M  V30 11 C -1.155026 2.309437 -1.154438 0
M  V30 12 C -0.319768 2.899540 -2.077220 0
M  V30 13 N -0.726595 3.923173 -2.969374 0
M  V30 14 C -2.029821 4.503010 -3.067434 0
M  V30 15 C -2.496856 4.490848 -4.494955 0
M  V30 16 C -1.626996 3.634095 -5.385835 0
M  V30 17 N -1.801333 2.239748 -5.066085 0
M  V30 18 C -0.993258 1.363499 -5.887244 0
M  V30 19 C -1.710468 0.040909 -5.717974 0
M  V30 20 C -3.164416 0.426013 -5.750137 0
M  V30 21 C -3.176609 1.883534 -5.342090 0
M  V30 22 C -0.175838 4.056232 -5.325925 0
M  V30 23 C 0.188683 4.497275 -3.904267 0
M  V30 24 N 0.947416 2.459702 -2.111579 0
M  V30 25 N 1.415875 1.513301 -1.322542 0
M  V30 26 N 1.370412 -1.810036 2.094328 0
M  V30 27 C 0.795668 -2.536427 3.057945 0
M  V30 28 N 1.421404 -3.495329 3.801884 0
M  V30 29 C 2.757803 -4.056679 3.864219 0
M  V30 30 C 3.753034 -3.375368 2.987443 0
M  V30 31 C 3.649039 -4.024337 1.660095 0
M  V30 32 C 2.719902 -5.215880 1.816800 0
M  V30 33 C 2.701262 -5.465706 3.330964 0
M  V30 34 C 0.500862 -3.999957 4.673963 0
M  V30 35 C 0.445683 -4.948513 5.672544 0
M  V30 36 N -0.679404 -5.199680 6.364917 0
M  V30 37 H -2.677570 -4.812413 6.735926 0
M  V30 38 H -2.772567 -3.040303 4.947425 0
M  V30 39 H -2.295779 -1.363822 3.043817 0
M  V30 40 H 2.274853 -0.322243 0.226124 0
M  V30 41 H -1.305845 0.890143 0.354953 0
M  V30 42 H -2.183693 2.622481 -1.081367 0
M  V30 43 H -2.793496 4.049043 -2.398994 0
M  V30 44 H -1.944586 5.579939 -2.750709 0
M  V30 45 H -3.516427 4.055131 -4.525401 0
M  V30 46 H -2.589898 5.524839 -4.907306 0
M  V30 47 H -1.974006 3.794761 -6.424447 0
M  V30 48 H -0.985051 1.667100 -6.944070 0
M  V30 49 H 0.029551 1.256034 -5.527581 0
M  V30 50 H -1.512785 -0.666045 -6.530533 0
M  V30 51 H -1.477014 -0.373293 -4.699777 0
M  V30 52 H -3.746412 -0.210461 -5.043763 0
M  V30 53 H -3.642245 0.320562 -6.724417 0
M  V30 54 H -3.591599 2.515043 -6.167201 0
M  V30 55 H -3.836784 2.041356 -4.466394 0
M  V30 56 H 0.037104 4.923245 -5.988931 0
M  V30 57 H 0.504448 3.237734 -5.631250 0
M  V30 58 H 0.132466 5.616869 -3.846653 0
M  V30 59 H 1.241077 4.227166 -3.746004 0
M  V30 60 H 3.081819 -4.076006 4.938612 0
M  V30 61 H 3.630475 -2.271058 2.961571 0
M  V30 62 H 4.769827 -3.646249 3.399740 0
M  V30 63 H 3.252451 -3.407853 0.837064 0
M  V30 64 H 4.656514 -4.368884 1.279078 0
M  V30 65 H 1.669750 -4.947155 1.556790 0
M  V30 66 H 3.067381 -6.077397 1.244551 0
M  V30 67 H 3.647484 -5.979743 3.604631 0
M  V30 68 H 1.806353 -6.026989 3.619914 0
M  V30 69 H 1.348986 -5.497978 5.894983 0
M  V30 END ATOM
M  V30 BEGIN BOND
M  V30 1 2 1 2
M  V30 2 1 2 3
M  V30 3 1 3 4
M  V30 4 2 4 5
M  V30 5 1 5 6
M  V30 6 2 6 7
M  V30 7 1 7 8
M  V30 8 1 8 9
M  V30 9 2 9 10
M  V30 10 1 10 11
M  V30 11 2 11 12
M  V30 12 1 12 13
M  V30 13 1 13 14
M  V30 14 1 14 15
M  V30 15 1 15 16
M  V30 16 1 16 17
M  V30 17 1 17 18
M  V30 18 1 18 19
M  V30 19 1 19 20
M  V30 20 1 20 21
M  V30 21 1 16 22
M  V30 22 1 22 23
M  V30 23 1 12 24
M  V30 24 2 24 25
M  V30 25 1 7 26
M  V30 26 2 26 27
M  V30 27 1 27 28
M  V30 28 1 28 29
M  V30 29 1 29 30
M  V30 30 1 30 31
M  V30 31 1 31 32
M  V30 32 1 32 33
M  V30 33 1 28 34
M  V30 34 1 34 35
M  V30 35 2 35 36
M  V30 36 1 36 1
M  V30 37 2 34 3
M  V30 38 1 27 4
M  V30 39 1 33 29
M  V30 40 1 25 9
M  V30 41 1 23 13
M  V30 42 1 21 17
M  V30 43 1 1 37
M  V30 44 1 2 38
M  V30 45 1 5 39
M  V30 46 1 8 40
M  V30 47 1 10 41
M  V30 48 1 11 42
M  V30 49 1 14 43
M  V30 50 1 14 44
M  V30 51 1 15 45
M  V30 52 1 15 46
M  V30 53 1 16 47
M  V30 54 1 18 48
M  V30 55 1 18 49
M  V30 56 1 19 50
M  V30 57 1 19 51
M  V30 58 1 20 52
M  V30 59 1 20 53
M  V30 60 1 21 54
M  V30 61 1 21 55
M  V30 62 1 22 56
M  V30 63 1 22 57
M  V30 64 1 23 58
M  V30 65 1 23 59
M  V30 66 1 29 60
M  V30 67 1 30 61
M  V30 68 1 30 62
M  V30 69 1 31 63
M  V30 70 1 31 64
M  V30 71 1 32 65
M  V30 72 1 32 66
M  V30 73 1 33 67
M  V30 74 1 33 68
M  V30 75 1 35 69
M  V30 END BOND
M  V30 END CTAB
M  END
>  <Dataset>  (614) 
ChEMBL_Kinases

>  <Ligand_Instance>  (614) 
nan

>  <PDB_ID>  (614) 
nan

>  <Standardized_SMILES>  (614) 
c1cc2c3cnc(Nc4ccc(N5CCC(N6CCCC6)CC5)nn4)nc3n(C3CCCC3)c2cn1

>  <Name>  (614) 
nan

>  <Pocket>  (614) 
nan

>  <ATP_Site>  (614) 
nan

>  <Peripheral>  (614) 
nan

>  <Num_H_Atoms_ProtBoundConf>  (614) 
nan

>  <Num_Resolved_Atoms>  (614) 
nan

>  <Num_Not_Resolved_Atoms>  (614) 
nan

$$$$
CHEMBL3641994
     RDKit          3D

  0  0  0  0  0  0  0  0  0  0999 V3000
M  V30 BEGIN CTAB
M  V30 COUNTS 66 71 0 0 0
M  V30 BEGIN ATOM
M  V30 1 O 6.245982 -0.326618 5.888082 0
M  V30 2 C 5.010143 0.078644 6.353440 0
M  V30 3 C 4.017079 0.285967 5.219556 0
M  V30 4 N 4.531300 1.305433 4.327422 0
M  V30 5 C 3.607977 1.539669 3.218917 0
M  V30 6 C 2.283455 1.993446 3.780633 0
M  V30 7 C 1.543182 2.898561 2.828885 0
M  V30 8 N 1.949068 2.693462 1.456615 0
M  V30 9 C 1.235272 2.121511 0.381764 0
M  V30 10 C -0.046300 1.636305 0.511423 0
M  V30 11 C -0.631606 1.098474 -0.634211 0
M  V30 12 C 0.051027 1.057961 -1.842300 0
M  V30 13 N -0.562723 0.505340 -3.000235 0
M  V30 14 C -1.896513 0.015782 -2.806745 0
M  V30 15 N -3.025670 0.749731 -2.963167 0
M  V30 16 C -4.229482 0.177074 -2.752447 0
M  V30 17 C -4.283838 -1.157286 -2.378519 0
M  V30 18 C -5.315743 -2.010521 -2.097164 0
M  V30 19 C -6.690794 -1.867865 -2.078595 0
M  V30 20 C -7.418594 -2.991564 -1.734902 0
M  V30 21 N -6.864591 -4.176959 -1.428326 0
M  V30 22 C -5.517488 -4.356980 -1.435263 0
M  V30 23 C -4.789801 -3.243015 -1.776281 0
M  V30 24 N -3.437888 -3.133560 -1.864131 0
M  V30 25 C -2.445214 -4.144621 -1.624695 0
M  V30 26 C -1.470298 -4.345122 -2.715500 0
M  V30 27 C -0.090774 -4.199691 -2.075085 0
M  V30 28 C -0.297283 -4.529255 -0.609921 0
M  V30 29 C -1.641784 -3.877848 -0.362374 0
M  V30 30 C -3.101986 -1.883595 -2.226465 0
M  V30 31 N -1.946740 -1.258758 -2.449608 0
M  V30 32 N 1.308732 1.557347 -1.880960 0
M  V30 33 N 1.873360 2.069694 -0.800593 0
M  V30 34 C 3.289623 3.197519 1.345496 0
M  V30 35 C 4.241411 2.569261 2.324929 0
M  V30 36 H 6.151166 -1.142854 5.319954 0
M  V30 37 H 4.615377 -0.654949 7.082452 0
M  V30 38 H 5.187043 1.037488 6.906129 0
M  V30 39 H 3.071838 0.628219 5.699501 0
M  V30 40 H 3.864893 -0.685282 4.725816 0
M  V30 41 H 5.423382 0.906157 3.909209 0
M  V30 42 H 3.456929 0.574626 2.699410 0
M  V30 43 H 1.690108 1.104684 4.080822 0
M  V30 44 H 2.494319 2.592257 4.702737 0
M  V30 45 H 1.633978 3.965069 3.129473 0
M  V30 46 H 0.464207 2.656250 2.895866 0
M  V30 47 H -0.570287 1.671291 1.454411 0
M  V30 48 H -1.646932 0.713276 -0.534063 0
M  V30 49 H -0.015884 0.493537 -3.889090 0
M  V30 50 H -5.135670 0.751915 -2.874121 0
M  V30 51 H -7.130965 -0.918100 -2.324369 0
M  V30 52 H -8.509511 -2.926504 -1.706868 0
M  V30 53 H -5.046542 -5.302140 -1.192111 0
M  V30 54 H -2.980024 -5.101224 -1.445814 0
M  V30 55 H -1.498128 -5.372110 -3.143789 0
M  V30 56 H -1.488135 -3.640940 -3.550947 0
M  V30 57 H 0.201025 -3.134811 -2.118307 0
M  V30 58 H 0.649532 -4.899043 -2.471918 0
M  V30 59 H 0.432693 -4.017244 0.051517 0
M  V30 60 H -0.352935 -5.608861 -0.425188 0
M  V30 61 H -2.152526 -4.269120 0.521995 0
M  V30 62 H -1.508710 -2.766190 -0.324990 0
M  V30 63 H 3.259928 4.293660 1.558556 0
M  V30 64 H 3.708560 3.052570 0.314220 0
M  V30 65 H 5.073174 2.040999 1.794648 0
M  V30 66 H 4.732378 3.335151 2.972420 0
M  V30 END ATOM
M  V30 BEGIN BOND
M  V30 1 1 1 2
M  V30 2 1 2 3
M  V30 3 1 3 4
M  V30 4 1 4 5
M  V30 5 1 5 6
M  V30 6 1 6 7
M  V30 7 1 7 8
M  V30 8 1 8 9
M  V30 9 2 9 10
M  V30 10 1 10 11
M  V30 11 2 11 12
M  V30 12 1 12 13
M  V30 13 1 13 14
M  V30 14 2 14 15
M  V30 15 1 15 16
M  V30 16 2 16 17
M  V30 17 1 17 18
M  V30 18 2 18 19
M  V30 19 1 19 20
M  V30 20 2 20 21
M  V30 21 1 21 22
M  V30 22 2 22 23
M  V30 23 1 23 24
M  V30 24 1 24 25
M  V30 25 1 25 26
M  V30 26 1 26 27
M  V30 27 1 27 28
M  V30 28 1 28 29
M  V30 29 1 24 30
M  V30 30 2 30 31
M  V30 31 1 12 32
M  V30 32 2 32 33
M  V30 33 1 8 34
M  V30 34 1 34 35
M  V30 35 1 35 5
M  V30 36 1 33 9
M  V30 37 1 31 14
M  V30 38 1 30 17
M  V30 39 1 23 18
M  V30 40 1 29 25
M  V30 41 1 1 36
M  V30 42 1 2 37
M  V30 43 1 2 38
M  V30 44 1 3 39
M  V30 45 1 3 40
M  V30 46 1 4 41
M  V30 47 1 5 42
M  V30 48 1 6 43
M  V30 49 1 6 44
M  V30 50 1 7 45
M  V30 51 1 7 46
M  V30 52 1 10 47
M  V30 53 1 11 48
M  V30 54 1 13 49
M  V30 55 1 16 50
M  V30 56 1 19 51
M  V30 57 1 20 52
M  V30 58 1 22 53
M  V30 59 1 25 54
M  V30 60 1 26 55
M  V30 61 1 26 56
M  V30 62 1 27 57
M  V30 63 1 27 58
M  V30 64 1 28 59
M  V30 65 1 28 60
M  V30 66 1 29 61
M  V30 67 1 29 62
M  V30 68 1 34 63
M  V30 69 1 34 64
M  V30 70 1 35 65
M  V30 71 1 35 66
M  V30 END BOND
M  V30 END CTAB
M  END
>  <Dataset>  (615) 
ChEMBL_Kinases

>  <Ligand_Instance>  (615) 
nan

>  <PDB_ID>  (615) 
nan

>  <Standardized_SMILES>  (615) 
OCCNC1CCN(c2ccc(Nc3ncc4c5ccncc5n(C5CCCC5)c4n3)nn2)CC1

>  <Name>  (615) 
nan

>  <Pocket>  (615) 
nan

>  <ATP_Site>  (615) 
nan

>  <Peripheral>  (615) 
nan

>  <Num_H_Atoms_ProtBoundConf>  (615) 
nan

>  <Num_Resolved_Atoms>  (615) 
nan

>  <Num_Not_Resolved_Atoms>  (615) 
nan

$$$$
CHEMBL3641995
     RDKit          3D

  0  0  0  0  0  0  0  0  0  0999 V3000
M  V30 BEGIN CTAB
M  V30 COUNTS 69 74 0 0 0
M  V30 BEGIN ATOM
M  V30 1 C 5.592148 -2.774220 3.790486 0
M  V30 2 C 5.817255 -3.329459 2.409393 0 CFG=2
M  V30 3 O 6.994118 -4.042273 2.399157 0
M  V30 4 C 5.793990 -2.234326 1.335215 0
M  V30 5 N 4.536284 -1.568205 1.453814 0
M  V30 6 C 4.298352 -0.516960 0.521079 0
M  V30 7 C 4.348024 -0.941017 -0.928779 0
M  V30 8 C 3.973169 0.272714 -1.750756 0
M  V30 9 N 3.509259 1.373032 -0.881936 0
M  V30 10 C 2.154667 1.796841 -0.898359 0
M  V30 11 C 1.647330 3.023605 -0.535637 0
M  V30 12 C 0.282181 3.178046 -0.616393 0
M  V30 13 C -0.641346 2.239057 -1.020838 0
M  V30 14 N -2.045469 2.459499 -1.096924 0
M  V30 15 C -2.758165 1.290240 -1.497182 0
M  V30 16 N -2.667793 0.724172 -2.739669 0
M  V30 17 C -3.387149 -0.397651 -3.019617 0
M  V30 18 C -4.174828 -0.892223 -2.005234 0
M  V30 19 C -4.986222 -1.991368 -2.021479 0
M  V30 20 C -5.279132 -2.932801 -2.994091 0
M  V30 21 C -6.160638 -3.981040 -2.742954 0
M  V30 22 N -6.725564 -4.054600 -1.515981 0
M  V30 23 C -6.444704 -3.139006 -0.559459 0
M  V30 24 C -5.580077 -2.082577 -0.754678 0
M  V30 25 N -5.154076 -1.084742 0.007419 0
M  V30 26 C -5.546512 -0.818327 1.361739 0
M  V30 27 C -5.018379 -1.839063 2.339642 0
M  V30 28 C -4.744109 -1.116666 3.640377 0
M  V30 29 C -5.239454 0.298807 3.423968 0
M  V30 30 C -5.053475 0.478957 1.916361 0
M  V30 31 C -4.294164 -0.342055 -0.727658 0
M  V30 32 N -3.544922 0.759429 -0.552844 0
M  V30 33 N -0.029157 1.058837 -1.356546 0
M  V30 34 N 1.269162 0.869032 -1.295561 0
M  V30 35 C 4.617204 1.856252 -0.072364 0
M  V30 36 C 5.221288 0.670211 0.658226 0
M  V30 37 H 6.177212 -3.367810 4.504428 0
M  V30 38 H 4.508317 -2.821314 4.082691 0
M  V30 39 H 5.830308 -1.679301 3.829647 0
M  V30 40 H 4.934742 -3.996277 2.206483 0
M  V30 41 H 6.841617 -5.029003 2.547231 0
M  V30 42 H 6.622591 -1.526339 1.580449 0
M  V30 43 H 5.911463 -2.703413 0.355946 0
M  V30 44 H 4.383818 -1.207029 2.413679 0
M  V30 45 H 3.221426 -0.211325 0.682093 0
M  V30 46 H 5.318522 -1.348809 -1.245595 0
M  V30 47 H 3.585010 -1.732740 -1.102117 0
M  V30 48 H 4.866780 0.646530 -2.293987 0
M  V30 49 H 3.182365 0.031678 -2.510060 0
M  V30 50 H 2.344455 3.756815 -0.222882 0
M  V30 51 H -0.114810 4.152420 -0.332099 0
M  V30 52 H -2.331667 3.434759 -0.849539 0
M  V30 53 H -3.347574 -0.883638 -3.982993 0
M  V30 54 H -4.815010 -2.851704 -3.967564 0
M  V30 55 H -6.404627 -4.724433 -3.484030 0
M  V30 56 H -6.928624 -3.246334 0.419281 0
M  V30 57 H -6.663722 -0.774688 1.413392 0
M  V30 58 H -5.833284 -2.600267 2.481862 0
M  V30 59 H -4.134542 -2.390155 1.975288 0
M  V30 60 H -5.346452 -1.548607 4.445450 0
M  V30 61 H -3.665039 -1.127426 3.815502 0
M  V30 62 H -4.540340 0.973581 4.001261 0
M  V30 63 H -6.272265 0.462702 3.755479 0
M  V30 64 H -3.997501 0.687641 1.773907 0
M  V30 65 H -5.692701 1.358157 1.632429 0
M  V30 66 H 4.345649 2.676230 0.586300 0
M  V30 67 H 5.387151 2.227399 -0.776510 0
M  V30 68 H 5.462251 0.922759 1.710644 0
M  V30 69 H 6.194223 0.364013 0.186322 0
M  V30 END ATOM
M  V30 BEGIN BOND
M  V30 1 1 1 2
M  V30 2 1 2 3
M  V30 3 1 2 4
M  V30 4 1 4 5
M  V30 5 1 5 6
M  V30 6 1 6 7
M  V30 7 1 7 8
M  V30 8 1 8 9
M  V30 9 1 9 10
M  V30 10 2 10 11
M  V30 11 1 11 12
M  V30 12 2 12 13
M  V30 13 1 13 14
M  V30 14 1 14 15
M  V30 15 2 15 16
M  V30 16 1 16 17
M  V30 17 2 17 18
M  V30 18 1 18 19
M  V30 19 2 19 20
M  V30 20 1 20 21
M  V30 21 2 21 22
M  V30 22 1 22 23
M  V30 23 2 23 24
M  V30 24 1 24 25
M  V30 25 1 25 26
M  V30 26 1 26 27
M  V30 27 1 27 28
M  V30 28 1 28 29
M  V30 29 1 29 30
M  V30 30 1 25 31
M  V30 31 2 31 32
M  V30 32 1 13 33
M  V30 33 2 33 34
M  V30 34 1 9 35
M  V30 35 1 35 36
M  V30 36 1 36 6
M  V30 37 1 34 10
M  V30 38 1 32 15
M  V30 39 1 31 18
M  V30 40 1 24 19
M  V30 41 1 30 26
M  V30 42 1 1 37
M  V30 43 1 1 38
M  V30 44 1 1 39
M  V30 45 1 2 40 CFG=3
M  V30 46 1 3 41
M  V30 47 1 4 42
M  V30 48 1 4 43
M  V30 49 1 5 44
M  V30 50 1 6 45
M  V30 51 1 7 46
M  V30 52 1 7 47
M  V30 53 1 8 48
M  V30 54 1 8 49
M  V30 55 1 11 50
M  V30 56 1 12 51
M  V30 57 1 14 52
M  V30 58 1 17 53
M  V30 59 1 20 54
M  V30 60 1 21 55
M  V30 61 1 23 56
M  V30 62 1 26 57
M  V30 63 1 27 58
M  V30 64 1 27 59
M  V30 65 1 28 60
M  V30 66 1 28 61
M  V30 67 1 29 62
M  V30 68 1 29 63
M  V30 69 1 30 64
M  V30 70 1 30 65
M  V30 71 1 35 66
M  V30 72 1 35 67
M  V30 73 1 36 68
M  V30 74 1 36 69
M  V30 END BOND
M  V30 END CTAB
M  END
>  <Dataset>  (616) 
ChEMBL_Kinases

>  <Ligand_Instance>  (616) 
nan

>  <PDB_ID>  (616) 
nan

>  <Standardized_SMILES>  (616) 
C[C@H](O)CNC1CCN(c2ccc(Nc3ncc4c5ccncc5n(C5CCCC5)c4n3)nn2)CC1

>  <Name>  (616) 
nan

>  <Pocket>  (616) 
nan

>  <ATP_Site>  (616) 
nan

>  <Peripheral>  (616) 
nan

>  <Num_H_Atoms_ProtBoundConf>  (616) 
nan

>  <Num_Resolved_Atoms>  (616) 
nan

>  <Num_Not_Resolved_Atoms>  (616) 
nan

$$$$
CHEMBL3641996
     RDKit          3D

  0  0  0  0  0  0  0  0  0  0999 V3000
M  V30 BEGIN CTAB
M  V30 COUNTS 69 74 0 0 0
M  V30 BEGIN ATOM
M  V30 1 C 3.514585 -4.052141 1.708495 0
M  V30 2 N 4.672903 -3.204494 1.467412 0
M  V30 3 C 5.125413 -2.567946 2.679262 0
M  V30 4 C 4.177294 -1.526858 3.223042 0
M  V30 5 O 4.647137 -0.938532 4.397595 0
M  V30 6 C 4.423359 -2.258577 0.400882 0
M  V30 7 C 4.096300 -3.032803 -0.854343 0
M  V30 8 C 4.004482 -2.069770 -2.028165 0
M  V30 9 N 4.154272 -0.684038 -1.550917 0
M  V30 10 C 3.118708 0.321190 -1.581428 0
M  V30 11 C 3.149462 1.689154 -1.612175 0
M  V30 12 C 1.977152 2.412634 -1.602019 0
M  V30 13 C 0.759627 1.765275 -1.560504 0
M  V30 14 N -0.471135 2.524399 -1.573618 0
M  V30 15 C -1.640432 1.684511 -1.465471 0
M  V30 16 N -1.844876 1.012387 -2.634837 0
M  V30 17 C -2.883210 0.149955 -2.778370 0
M  V30 18 C -3.687487 0.026581 -1.653739 0
M  V30 19 C -4.807130 -0.752589 -1.459378 0
M  V30 20 C -5.496940 -1.653420 -2.282518 0
M  V30 21 C -6.626724 -2.305730 -1.770934 0
M  V30 22 N -7.015145 -2.047440 -0.503486 0
M  V30 23 C -6.331265 -1.184383 0.245645 0
M  V30 24 C -5.222425 -0.494236 -0.144902 0
M  V30 25 N -4.405168 0.394133 0.439868 0
M  V30 26 C -4.535246 0.913341 1.801566 0
M  V30 27 C -4.413238 -0.146326 2.838113 0
M  V30 28 C -5.608739 -0.019354 3.755821 0
M  V30 29 C -6.526654 1.016710 3.188295 0
M  V30 30 C -5.854287 1.621797 1.993366 0
M  V30 31 C -3.476115 0.707067 -0.478461 0
M  V30 32 N -2.425863 1.562003 -0.373685 0
M  V30 33 N 0.787488 0.407679 -1.530495 0
M  V30 34 N 1.898589 -0.308941 -1.540233 0
M  V30 35 C 5.512607 -0.506498 -1.016306 0
M  V30 36 C 5.675544 -1.483446 0.134999 0
M  V30 37 H 3.634937 -4.983952 1.139714 0
M  V30 38 H 2.570728 -3.500161 1.508002 0
M  V30 39 H 3.555777 -4.347423 2.775970 0
M  V30 40 H 5.151904 -3.378189 3.470101 0
M  V30 41 H 6.159338 -2.203905 2.590569 0
M  V30 42 H 4.157262 -0.693274 2.471075 0
M  V30 43 H 3.167594 -1.886791 3.412794 0
M  V30 44 H 4.656530 0.060688 4.361641 0
M  V30 45 H 3.540249 -1.679414 0.662373 0
M  V30 46 H 3.048838 -3.425868 -0.702565 0
M  V30 47 H 4.763041 -3.873830 -1.013913 0
M  V30 48 H 3.076249 -2.212309 -2.600213 0
M  V30 49 H 4.854175 -2.278874 -2.691735 0
M  V30 50 H 4.166952 2.039832 -1.641440 0
M  V30 51 H 2.077334 3.468534 -1.627297 0
M  V30 52 H -0.418963 3.541838 -1.657660 0
M  V30 53 H -3.051128 -0.384350 -3.693771 0
M  V30 54 H -5.097857 -1.777883 -3.269133 0
M  V30 55 H -7.072620 -2.977662 -2.506001 0
M  V30 56 H -6.731234 -1.070085 1.222751 0
M  V30 57 H -3.743769 1.665749 2.013962 0
M  V30 58 H -3.463383 -0.111203 3.440005 0
M  V30 59 H -4.411206 -1.149556 2.350265 0
M  V30 60 H -6.116664 -0.992963 3.852036 0
M  V30 61 H -5.256471 0.227416 4.799230 0
M  V30 62 H -6.789250 1.747794 3.969041 0
M  V30 63 H -7.475610 0.542966 2.837721 0
M  V30 64 H -6.484407 1.532997 1.079211 0
M  V30 65 H -5.727933 2.708165 2.173151 0
M  V30 66 H 6.196174 -0.767086 -1.848185 0
M  V30 67 H 5.732327 0.525734 -0.741758 0
M  V30 68 H 6.052581 -0.924668 1.013650 0
M  V30 69 H 6.464496 -2.219341 -0.123645 0
M  V30 END ATOM
M  V30 BEGIN BOND
M  V30 1 1 1 2
M  V30 2 1 2 3
M  V30 3 1 3 4
M  V30 4 1 4 5
M  V30 5 1 2 6
M  V30 6 1 6 7
M  V30 7 1 7 8
M  V30 8 1 8 9
M  V30 9 1 9 10
M  V30 10 2 10 11
M  V30 11 1 11 12
M  V30 12 2 12 13
M  V30 13 1 13 14
M  V30 14 1 14 15
M  V30 15 2 15 16
M  V30 16 1 16 17
M  V30 17 2 17 18
M  V30 18 1 18 19
M  V30 19 2 19 20
M  V30 20 1 20 21
M  V30 21 2 21 22
M  V30 22 1 22 23
M  V30 23 2 23 24
M  V30 24 1 24 25
M  V30 25 1 25 26
M  V30 26 1 26 27
M  V30 27 1 27 28
M  V30 28 1 28 29
M  V30 29 1 29 30
M  V30 30 1 25 31
M  V30 31 2 31 32
M  V30 32 1 13 33
M  V30 33 2 33 34
M  V30 34 1 9 35
M  V30 35 1 35 36
M  V30 36 1 36 6
M  V30 37 1 34 10
M  V30 38 1 32 15
M  V30 39 1 31 18
M  V30 40 1 24 19
M  V30 41 1 30 26
M  V30 42 1 1 37
M  V30 43 1 1 38
M  V30 44 1 1 39
M  V30 45 1 3 40
M  V30 46 1 3 41
M  V30 47 1 4 42
M  V30 48 1 4 43
M  V30 49 1 5 44
M  V30 50 1 6 45
M  V30 51 1 7 46
M  V30 52 1 7 47
M  V30 53 1 8 48
M  V30 54 1 8 49
M  V30 55 1 11 50
M  V30 56 1 12 51
M  V30 57 1 14 52
M  V30 58 1 17 53
M  V30 59 1 20 54
M  V30 60 1 21 55
M  V30 61 1 23 56
M  V30 62 1 26 57
M  V30 63 1 27 58
M  V30 64 1 27 59
M  V30 65 1 28 60
M  V30 66 1 28 61
M  V30 67 1 29 62
M  V30 68 1 29 63
M  V30 69 1 30 64
M  V30 70 1 30 65
M  V30 71 1 35 66
M  V30 72 1 35 67
M  V30 73 1 36 68
M  V30 74 1 36 69
M  V30 END BOND
M  V30 END CTAB
M  END
>  <Dataset>  (617) 
ChEMBL_Kinases

>  <Ligand_Instance>  (617) 
nan

>  <PDB_ID>  (617) 
nan

>  <Standardized_SMILES>  (617) 
CN(CCO)C1CCN(c2ccc(Nc3ncc4c5ccncc5n(C5CCCC5)c4n3)nn2)CC1

>  <Name>  (617) 
nan

>  <Pocket>  (617) 
nan

>  <ATP_Site>  (617) 
nan

>  <Peripheral>  (617) 
nan

>  <Num_H_Atoms_ProtBoundConf>  (617) 
nan

>  <Num_Resolved_Atoms>  (617) 
nan

>  <Num_Not_Resolved_Atoms>  (617) 
nan

$$$$
CHEMBL3641997
     RDKit          3D

  0  0  0  0  0  0  0  0  0  0999 V3000
M  V30 BEGIN CTAB
M  V30 COUNTS 69 74 0 0 0
M  V30 BEGIN ATOM
M  V30 1 C 5.766879 -3.573838 3.575225 0
M  V30 2 C 6.775377 -2.616964 2.991821 0 CFG=1
M  V30 3 O 7.935017 -3.342145 2.699317 0
M  V30 4 C 6.232883 -1.976080 1.706934 0
M  V30 5 N 5.056610 -1.257206 2.082403 0
M  V30 6 C 4.380574 -0.573313 1.023750 0
M  V30 7 C 3.910385 -1.479501 -0.070887 0
M  V30 8 C 3.635625 -0.602689 -1.298107 0
M  V30 9 N 3.344763 0.775138 -0.866283 0
M  V30 10 C 2.032335 1.352221 -0.868692 0
M  V30 11 C 1.692422 2.630982 -0.478614 0
M  V30 12 C 0.372316 3.037860 -0.541122 0
M  V30 13 C -0.612111 2.169387 -0.993180 0
M  V30 14 N -1.991121 2.557975 -1.071115 0
M  V30 15 C -2.934604 1.584519 -1.553185 0
M  V30 16 N -3.256316 1.452765 -2.874247 0
M  V30 17 C -4.142296 0.530474 -3.279739 0
M  V30 18 C -4.687270 -0.254227 -2.273003 0
M  V30 19 C -5.608557 -1.274803 -2.339046 0
M  V30 20 C -6.311282 -1.883384 -3.371066 0
M  V30 21 C -7.195159 -2.920121 -3.101594 0
M  V30 22 N -7.393076 -3.360763 -1.836462 0
M  V30 23 C -6.709139 -2.771109 -0.816682 0
M  V30 24 C -5.821497 -1.736335 -1.050441 0
M  V30 25 N -5.042769 -1.012268 -0.193809 0
M  V30 26 C -4.991618 -1.199215 1.217697 0
M  V30 27 C -3.647570 -0.911237 1.848040 0
M  V30 28 C -4.000142 -1.075420 3.327127 0
M  V30 29 C -5.448410 -0.635875 3.439922 0
M  V30 30 C -5.880014 -0.284616 2.018452 0
M  V30 31 C -4.356258 -0.116425 -0.926673 0
M  V30 32 N -3.459564 0.831311 -0.598854 0
M  V30 33 N -0.210783 0.936847 -1.357810 0
M  V30 34 N 1.049748 0.525180 -1.306133 0
M  V30 35 C 4.544819 1.451654 -0.447559 0
M  V30 36 C 5.299027 0.523566 0.469127 0
M  V30 37 H 6.245826 -4.547261 3.851268 0
M  V30 38 H 4.983930 -3.806392 2.832578 0
M  V30 39 H 5.233989 -3.163034 4.465213 0
M  V30 40 H 6.990385 -1.844403 3.749161 0
M  V30 41 H 7.679523 -4.239315 2.349607 0
M  V30 42 H 6.969745 -1.264808 1.304787 0
M  V30 43 H 6.004618 -2.817353 1.038576 0
M  V30 44 H 5.216915 -0.619039 2.876782 0
M  V30 45 H 3.471388 -0.114579 1.472891 0
M  V30 46 H 4.575548 -2.305294 -0.323768 0
M  V30 47 H 2.942314 -1.932098 0.248296 0
M  V30 48 H 4.541991 -0.628005 -1.944634 0
M  V30 49 H 2.741872 -0.961124 -1.840829 0
M  V30 50 H 2.496295 3.236436 -0.145352 0
M  V30 51 H 0.119160 4.031453 -0.236346 0
M  V30 52 H -2.222786 3.529906 -0.770550 0
M  V30 53 H -4.405699 0.413420 -4.308334 0
M  V30 54 H -6.177628 -1.557145 -4.391053 0
M  V30 55 H -7.771578 -3.434044 -3.863062 0
M  V30 56 H -6.859136 -3.114279 0.195422 0
M  V30 57 H -5.247035 -2.239347 1.536875 0
M  V30 58 H -2.906073 -1.639678 1.514891 0
M  V30 59 H -3.382359 0.138745 1.677100 0
M  V30 60 H -3.819629 -2.108834 3.623739 0
M  V30 61 H -3.360187 -0.389630 3.919759 0
M  V30 62 H -5.566327 0.225881 4.125131 0
M  V30 63 H -6.072199 -1.476278 3.782820 0
M  V30 64 H -6.950260 -0.502692 1.941466 0
M  V30 65 H -5.620060 0.788170 1.880144 0
M  V30 66 H 5.173167 1.607454 -1.352247 0
M  V30 67 H 4.372128 2.446884 -0.005291 0
M  V30 68 H 5.791970 1.019718 1.303516 0
M  V30 69 H 6.089805 -0.041559 -0.089742 0
M  V30 END ATOM
M  V30 BEGIN BOND
M  V30 1 1 1 2
M  V30 2 1 2 3
M  V30 3 1 2 4
M  V30 4 1 4 5
M  V30 5 1 5 6
M  V30 6 1 6 7
M  V30 7 1 7 8
M  V30 8 1 8 9
M  V30 9 1 9 10
M  V30 10 2 10 11
M  V30 11 1 11 12
M  V30 12 2 12 13
M  V30 13 1 13 14
M  V30 14 1 14 15
M  V30 15 2 15 16
M  V30 16 1 16 17
M  V30 17 2 17 18
M  V30 18 1 18 19
M  V30 19 2 19 20
M  V30 20 1 20 21
M  V30 21 2 21 22
M  V30 22 1 22 23
M  V30 23 2 23 24
M  V30 24 1 24 25
M  V30 25 1 25 26
M  V30 26 1 26 27
M  V30 27 1 27 28
M  V30 28 1 28 29
M  V30 29 1 29 30
M  V30 30 1 25 31
M  V30 31 2 31 32
M  V30 32 1 13 33
M  V30 33 2 33 34
M  V30 34 1 9 35
M  V30 35 1 35 36
M  V30 36 1 36 6
M  V30 37 1 34 10
M  V30 38 1 32 15
M  V30 39 1 31 18
M  V30 40 1 24 19
M  V30 41 1 30 26
M  V30 42 1 1 37
M  V30 43 1 1 38
M  V30 44 1 1 39
M  V30 45 1 2 40 CFG=1
M  V30 46 1 3 41
M  V30 47 1 4 42
M  V30 48 1 4 43
M  V30 49 1 5 44
M  V30 50 1 6 45
M  V30 51 1 7 46
M  V30 52 1 7 47
M  V30 53 1 8 48
M  V30 54 1 8 49
M  V30 55 1 11 50
M  V30 56 1 12 51
M  V30 57 1 14 52
M  V30 58 1 17 53
M  V30 59 1 20 54
M  V30 60 1 21 55
M  V30 61 1 23 56
M  V30 62 1 26 57
M  V30 63 1 27 58
M  V30 64 1 27 59
M  V30 65 1 28 60
M  V30 66 1 28 61
M  V30 67 1 29 62
M  V30 68 1 29 63
M  V30 69 1 30 64
M  V30 70 1 30 65
M  V30 71 1 35 66
M  V30 72 1 35 67
M  V30 73 1 36 68
M  V30 74 1 36 69
M  V30 END BOND
M  V30 END CTAB
M  END
>  <Dataset>  (618) 
ChEMBL_Kinases

>  <Ligand_Instance>  (618) 
nan

>  <PDB_ID>  (618) 
nan

>  <Standardized_SMILES>  (618) 
C[C@@H](O)CNC1CCN(c2ccc(Nc3ncc4c5ccncc5n(C5CCCC5)c4n3)nn2)CC1

>  <Name>  (618) 
nan

>  <Pocket>  (618) 
nan

>  <ATP_Site>  (618) 
nan

>  <Peripheral>  (618) 
nan

>  <Num_H_Atoms_ProtBoundConf>  (618) 
nan

>  <Num_Resolved_Atoms>  (618) 
nan

>  <Num_Not_Resolved_Atoms>  (618) 
nan

$$$$
CHEMBL3641998
     RDKit          3D

  0  0  0  0  0  0  0  0  0  0999 V3000
M  V30 BEGIN CTAB
M  V30 COUNTS 69 74 0 0 0
M  V30 BEGIN ATOM
M  V30 1 C 2.838347 -1.869597 3.636495 0
M  V30 2 C 4.121655 -1.650401 2.838822 0 CFG=1
M  V30 3 C 5.125315 -2.627843 3.446627 0
M  V30 4 O 4.601089 -3.908488 3.401628 0
M  V30 5 N 3.879198 -2.022761 1.503029 0
M  V30 6 C 4.942877 -1.925022 0.564545 0
M  V30 7 C 4.473713 -2.394702 -0.793791 0
M  V30 8 C 3.924471 -1.297168 -1.649218 0
M  V30 9 N 3.829408 -0.014208 -0.961513 0
M  V30 10 C 2.628704 0.729943 -0.827774 0
M  V30 11 C 2.463505 1.945592 -0.193845 0
M  V30 12 C 1.231243 2.566642 -0.134855 0
M  V30 13 C 0.141840 1.934783 -0.735514 0
M  V30 14 N -1.144324 2.541712 -0.695863 0
M  V30 15 C -2.230120 1.866307 -1.319415 0
M  V30 16 N -2.596394 2.033913 -2.619318 0
M  V30 17 C -3.647139 1.349793 -3.137204 0
M  V30 18 C -4.319201 0.479935 -2.276844 0
M  V30 19 C -5.405202 -0.349776 -2.473853 0
M  V30 20 C -6.187802 -0.594153 -3.590335 0
M  V30 21 C -7.210283 -1.487909 -3.465000 0
M  V30 22 N -7.465301 -2.122012 -2.299955 0
M  V30 23 C -6.699907 -1.880972 -1.213690 0
M  V30 24 C -5.635874 -0.980074 -1.263567 0
M  V30 25 N -4.743551 -0.574060 -0.341600 0
M  V30 26 C -4.628176 -0.973705 1.024215 0
M  V30 27 C -3.217303 -1.305022 1.438139 0
M  V30 28 C -3.357876 -1.452193 2.946944 0
M  V30 29 C -4.555355 -0.599385 3.325851 0
M  V30 30 C -5.041003 0.047624 2.032595 0
M  V30 31 C -3.938071 0.315010 -0.950270 0
M  V30 32 N -2.884331 1.036281 -0.527911 0
M  V30 33 N 0.345306 0.749650 -1.343857 0
M  V30 34 N 1.537718 0.174348 -1.386748 0
M  V30 35 C 5.130335 0.375496 -0.443654 0
M  V30 36 C 5.679219 -0.628253 0.524932 0
M  V30 37 H 2.600171 -2.930709 3.741346 0
M  V30 38 H 1.970805 -1.366050 3.142952 0
M  V30 39 H 2.918894 -1.443638 4.660967 0
M  V30 40 H 4.427425 -0.630271 3.055283 0
M  V30 41 H 5.294919 -2.347799 4.526666 0
M  V30 42 H 6.111572 -2.525629 2.953205 0
M  V30 43 H 4.178492 -4.113059 4.270617 0
M  V30 44 H 2.924338 -1.938047 1.130162 0
M  V30 45 H 5.694050 -2.684949 0.880107 0
M  V30 46 H 3.669426 -3.140453 -0.624313 0
M  V30 47 H 5.270579 -2.915813 -1.366785 0
M  V30 48 H 2.906429 -1.537664 -2.012852 0
M  V30 49 H 4.546280 -1.117273 -2.549522 0
M  V30 50 H 3.355976 2.368490 0.246040 0
M  V30 51 H 1.137635 3.524379 0.372728 0
M  V30 52 H -1.270120 3.443968 -0.225687 0
M  V30 53 H -3.938459 1.482542 -4.170171 0
M  V30 54 H -5.938509 -0.055844 -4.505472 0
M  V30 55 H -7.838467 -1.696120 -4.327711 0
M  V30 56 H -6.866630 -2.363977 -0.263236 0
M  V30 57 H -5.223451 -1.897357 1.230354 0
M  V30 58 H -2.513788 -0.477498 1.276751 0
M  V30 59 H -2.834018 -2.245725 0.993825 0
M  V30 60 H -3.586626 -2.535269 3.137344 0
M  V30 61 H -2.449668 -1.152661 3.498991 0
M  V30 62 H -4.297810 0.142144 4.091641 0
M  V30 63 H -5.406476 -1.235507 3.681882 0
M  V30 64 H -6.132091 0.230676 2.055469 0
M  V30 65 H -4.456959 0.985764 1.941032 0
M  V30 66 H 5.811494 0.407418 -1.341946 0
M  V30 67 H 5.126448 1.421336 -0.077057 0
M  V30 68 H 5.655725 -0.173960 1.531482 0
M  V30 69 H 6.774520 -0.776549 0.312008 0
M  V30 END ATOM
M  V30 BEGIN BOND
M  V30 1 1 1 2
M  V30 2 1 2 3
M  V30 3 1 3 4
M  V30 4 1 2 5
M  V30 5 1 5 6
M  V30 6 1 6 7
M  V30 7 1 7 8
M  V30 8 1 8 9
M  V30 9 1 9 10
M  V30 10 2 10 11
M  V30 11 1 11 12
M  V30 12 2 12 13
M  V30 13 1 13 14
M  V30 14 1 14 15
M  V30 15 2 15 16
M  V30 16 1 16 17
M  V30 17 2 17 18
M  V30 18 1 18 19
M  V30 19 2 19 20
M  V30 20 1 20 21
M  V30 21 2 21 22
M  V30 22 1 22 23
M  V30 23 2 23 24
M  V30 24 1 24 25
M  V30 25 1 25 26
M  V30 26 1 26 27
M  V30 27 1 27 28
M  V30 28 1 28 29
M  V30 29 1 29 30
M  V30 30 1 25 31
M  V30 31 2 31 32
M  V30 32 1 13 33
M  V30 33 2 33 34
M  V30 34 1 9 35
M  V30 35 1 35 36
M  V30 36 1 36 6
M  V30 37 1 34 10
M  V30 38 1 32 15
M  V30 39 1 31 18
M  V30 40 1 24 19
M  V30 41 1 30 26
M  V30 42 1 1 37
M  V30 43 1 1 38
M  V30 44 1 1 39
M  V30 45 1 2 40 CFG=3
M  V30 46 1 3 41
M  V30 47 1 3 42
M  V30 48 1 4 43
M  V30 49 1 5 44
M  V30 50 1 6 45
M  V30 51 1 7 46
M  V30 52 1 7 47
M  V30 53 1 8 48
M  V30 54 1 8 49
M  V30 55 1 11 50
M  V30 56 1 12 51
M  V30 57 1 14 52
M  V30 58 1 17 53
M  V30 59 1 20 54
M  V30 60 1 21 55
M  V30 61 1 23 56
M  V30 62 1 26 57
M  V30 63 1 27 58
M  V30 64 1 27 59
M  V30 65 1 28 60
M  V30 66 1 28 61
M  V30 67 1 29 62
M  V30 68 1 29 63
M  V30 69 1 30 64
M  V30 70 1 30 65
M  V30 71 1 35 66
M  V30 72 1 35 67
M  V30 73 1 36 68
M  V30 74 1 36 69
M  V30 END BOND
M  V30 END CTAB
M  END
>  <Dataset>  (619) 
ChEMBL_Kinases

>  <Ligand_Instance>  (619) 
nan

>  <PDB_ID>  (619) 
nan

>  <Standardized_SMILES>  (619) 
C[C@@H](CO)NC1CCN(c2ccc(Nc3ncc4c5ccncc5n(C5CCCC5)c4n3)nn2)CC1

>  <Name>  (619) 
nan

>  <Pocket>  (619) 
nan

>  <ATP_Site>  (619) 
nan

>  <Peripheral>  (619) 
nan

>  <Num_H_Atoms_ProtBoundConf>  (619) 
nan

>  <Num_Resolved_Atoms>  (619) 
nan

>  <Num_Not_Resolved_Atoms>  (619) 
nan

$$$$
CHEMBL4066027
     RDKit          3D

  0  0  0  0  0  0  0  0  0  0999 V3000
M  V30 BEGIN CTAB
M  V30 COUNTS 57 60 0 0 0
M  V30 BEGIN ATOM
M  V30 1 C 3.780426 -4.069208 3.843524 0
M  V30 2 N 4.925244 -4.542028 3.082978 0
M  V30 3 C 5.290369 -3.808804 1.918859 0
M  V30 4 C 4.558349 -2.695303 1.571940 0
M  V30 5 C 4.878128 -1.958326 0.448406 0
M  V30 6 C 4.209216 -0.763653 -0.053428 0
M  V30 7 N 4.374931 0.522016 0.238579 0
M  V30 8 N 3.562298 1.301416 -0.443794 0
M  V30 9 C 2.809168 0.551782 -1.231899 0
M  V30 10 C 1.717452 0.808105 -2.233083 0
M  V30 11 N 0.411188 0.778797 -1.668620 0
M  V30 12 C -0.187791 1.633931 -0.736426 0
M  V30 13 C 0.400268 2.739664 -0.175861 0
M  V30 14 C -0.184860 3.598964 0.755968 0
M  V30 15 C -1.478558 3.283137 1.131439 0
M  V30 16 C -2.126772 2.197849 0.614619 0
M  V30 17 C -3.484312 1.951112 1.061549 0
M  V30 18 O -4.025895 2.749547 1.863509 0
M  V30 19 N -4.305530 0.857116 0.675366 0
M  V30 20 C -5.648100 0.692412 1.168764 0
M  V30 21 C -6.241459 -0.539519 0.604586 0
M  V30 22 C -6.691004 -0.618059 -0.697076 0
M  V30 23 F -6.596455 0.455639 -1.517831 0
M  V30 24 C -7.234213 -1.832660 -1.113814 0
M  V30 25 C -7.328488 -2.933574 -0.266134 0
M  V30 26 C -6.871126 -2.829545 1.034607 0
M  V30 27 C -6.332545 -1.635078 1.456427 0
M  V30 28 F -5.889258 -1.548714 2.731365 0
M  V30 29 C -1.476806 1.404368 -0.297810 0
M  V30 30 N 3.228135 -0.727185 -0.972846 0
M  V30 31 C 2.702483 -1.941771 -1.596234 0
M  V30 32 C 5.970278 -2.396635 -0.308856 0
M  V30 33 C 6.702161 -3.509951 0.038303 0
M  V30 34 N 6.344067 -4.197980 1.153473 0
M  V30 35 H 2.917409 -3.868088 3.175714 0
M  V30 36 H 3.978869 -3.177450 4.440510 0
M  V30 37 H 3.501415 -4.893939 4.553011 0
M  V30 38 H 5.489843 -5.381760 3.338370 0
M  V30 39 H 3.713769 -2.317209 2.117055 0
M  V30 40 H 1.942339 1.822274 -2.677847 0
M  V30 41 H 1.855511 0.068110 -3.042421 0
M  V30 42 H -0.188736 -0.027269 -2.023224 0
M  V30 43 H 1.399795 3.009241 -0.454996 0
M  V30 44 H 0.363766 4.456497 1.148088 0
M  V30 45 H -1.957862 3.939445 1.857424 0
M  V30 46 H -3.895566 0.161266 0.007337 0
M  V30 47 H -6.269753 1.530942 0.775769 0
M  V30 48 H -5.647316 0.707842 2.259557 0
M  V30 49 H -7.601405 -1.938853 -2.131618 0
M  V30 50 H -7.761285 -3.876875 -0.624027 0
M  V30 51 H -6.960849 -3.708585 1.665981 0
M  V30 52 H -2.022455 0.553084 -0.684758 0
M  V30 53 H 2.523688 -2.748182 -0.856442 0
M  V30 54 H 3.338118 -2.278441 -2.443375 0
M  V30 55 H 1.704968 -1.731607 -2.059378 0
M  V30 56 H 6.325481 -1.913654 -1.208613 0
M  V30 57 H 7.551281 -3.878403 -0.521577 0
M  V30 END ATOM
M  V30 BEGIN BOND
M  V30 1 1 1 2
M  V30 2 1 2 3
M  V30 3 2 3 4
M  V30 4 1 4 5
M  V30 5 1 5 6
M  V30 6 2 6 7
M  V30 7 1 7 8
M  V30 8 2 8 9
M  V30 9 1 9 10
M  V30 10 1 10 11
M  V30 11 1 11 12
M  V30 12 2 12 13
M  V30 13 1 13 14
M  V30 14 2 14 15
M  V30 15 1 15 16
M  V30 16 1 16 17
M  V30 17 2 17 18
M  V30 18 1 17 19
M  V30 19 1 19 20
M  V30 20 1 20 21
M  V30 21 2 21 22
M  V30 22 1 22 23
M  V30 23 1 22 24
M  V30 24 2 24 25
M  V30 25 1 25 26
M  V30 26 2 26 27
M  V30 27 1 27 28
M  V30 28 2 16 29
M  V30 29 1 9 30
M  V30 30 1 30 31
M  V30 31 2 5 32
M  V30 32 1 32 33
M  V30 33 2 33 34
M  V30 34 1 34 3
M  V30 35 1 30 6
M  V30 36 1 29 12
M  V30 37 1 27 21
M  V30 38 1 1 35
M  V30 39 1 1 36
M  V30 40 1 1 37
M  V30 41 1 2 38
M  V30 42 1 4 39
M  V30 43 1 10 40
M  V30 44 1 10 41
M  V30 45 1 11 42
M  V30 46 1 13 43
M  V30 47 1 14 44
M  V30 48 1 15 45
M  V30 49 1 19 46
M  V30 50 1 20 47
M  V30 51 1 20 48
M  V30 52 1 24 49
M  V30 53 1 25 50
M  V30 54 1 26 51
M  V30 55 1 29 52
M  V30 56 1 31 53
M  V30 57 1 31 54
M  V30 58 1 31 55
M  V30 59 1 32 56
M  V30 60 1 33 57
M  V30 END BOND
M  V30 END CTAB
M  END
>  <Dataset>  (620) 
ChEMBL_Kinases

>  <Ligand_Instance>  (620) 
nan

>  <PDB_ID>  (620) 
nan

>  <Standardized_SMILES>  (620) 
CNc1cc(-c2nnc(CNc3cccc(C(=O)NCc4c(F)cccc4F)c3)n2C)ccn1

>  <Name>  (620) 
nan

>  <Pocket>  (620) 
nan

>  <ATP_Site>  (620) 
nan

>  <Peripheral>  (620) 
nan

>  <Num_H_Atoms_ProtBoundConf>  (620) 
nan

>  <Num_Resolved_Atoms>  (620) 
nan

>  <Num_Not_Resolved_Atoms>  (620) 
nan

$$$$
CHEMBL3642000
     RDKit          3D

  0  0  0  0  0  0  0  0  0  0999 V3000
M  V30 BEGIN CTAB
M  V30 COUNTS 69 74 0 0 0
M  V30 BEGIN ATOM
M  V30 1 C 3.477200 -2.372513 2.665846 0
M  V30 2 C 4.758212 -2.729865 1.991777 0 CFG=2
M  V30 3 C 5.614730 -3.499811 3.002088 0
M  V30 4 O 6.766464 -3.855193 2.299947 0
M  V30 5 N 5.545093 -1.583276 1.575936 0
M  V30 6 C 4.801261 -0.759799 0.634760 0
M  V30 7 C 4.429960 -1.544638 -0.605010 0
M  V30 8 C 3.972784 -0.580160 -1.673340 0
M  V30 9 N 3.739484 0.757672 -1.107600 0
M  V30 10 C 2.464540 1.372070 -0.964667 0
M  V30 11 C 2.182507 2.621855 -0.448158 0
M  V30 12 C 0.877056 3.068225 -0.379944 0
M  V30 13 C -0.156286 2.261672 -0.830581 0
M  V30 14 N -1.519581 2.704849 -0.768273 0
M  V30 15 C -2.518014 1.814128 -1.251763 0
M  V30 16 N -2.946272 1.806799 -2.548556 0
M  V30 17 C -3.909598 0.918727 -2.933214 0
M  V30 18 C -4.439757 0.031738 -1.987783 0
M  V30 19 C -5.411472 -0.933251 -2.174914 0
M  V30 20 C -6.176666 -1.379977 -3.231436 0
M  V30 21 C -7.078629 -2.416134 -2.996438 0
M  V30 22 N -7.157461 -2.920942 -1.772511 0
M  V30 23 C -6.430478 -2.510163 -0.729149 0
M  V30 24 C -5.525092 -1.486974 -0.915985 0
M  V30 25 N -4.693852 -0.912304 -0.027219 0
M  V30 26 C -4.437423 -1.111780 1.341658 0
M  V30 27 C -5.215508 -2.028070 2.149153 0
M  V30 28 C -4.596013 -1.758646 3.540341 0
M  V30 29 C -4.465147 -0.262686 3.581102 0
M  V30 30 C -4.497173 0.203974 2.133239 0
M  V30 31 C -3.997006 0.047592 -0.671137 0
M  V30 32 N -3.045942 0.959510 -0.393609 0
M  V30 33 N 0.183905 1.055268 -1.322689 0
M  V30 34 N 1.433254 0.616744 -1.392896 0
M  V30 35 C 5.016329 1.331622 -0.726033 0
M  V30 36 C 5.670517 0.434509 0.306684 0
M  V30 37 H 3.092142 -3.292588 3.159225 0
M  V30 38 H 2.662153 -2.097583 1.937260 0
M  V30 39 H 3.591281 -1.636180 3.472340 0
M  V30 40 H 4.531217 -3.406596 1.142592 0
M  V30 41 H 5.084453 -4.404090 3.362478 0
M  V30 42 H 5.919201 -2.833553 3.826301 0
M  V30 43 H 6.823857 -4.840868 2.227940 0
M  V30 44 H 5.609269 -0.979095 2.449979 0
M  V30 45 H 3.860760 -0.496549 1.149015 0
M  V30 46 H 5.291149 -2.159946 -0.914216 0
M  V30 47 H 3.621763 -2.253798 -0.306678 0
M  V30 48 H 2.961720 -0.920602 -2.004654 0
M  V30 49 H 4.700577 -0.549378 -2.497507 0
M  V30 50 H 3.051614 3.176982 -0.122844 0
M  V30 51 H 0.690952 4.043022 0.026211 0
M  V30 52 H -1.710963 3.632841 -0.382373 0
M  V30 53 H -4.272874 0.883913 -3.949857 0
M  V30 54 H -6.055582 -0.915718 -4.207438 0
M  V30 55 H -7.692233 -2.787137 -3.806304 0
M  V30 56 H -6.547563 -2.968274 0.241903 0
M  V30 57 H -3.350060 -1.405086 1.438961 0
M  V30 58 H -4.968219 -3.122274 2.023759 0
M  V30 59 H -6.270588 -1.818060 2.319286 0
M  V30 60 H -5.279114 -2.175375 4.315199 0
M  V30 61 H -3.623250 -2.279118 3.648944 0
M  V30 62 H -3.508553 -0.016424 4.077837 0
M  V30 63 H -5.310903 0.131025 4.171586 0
M  V30 64 H -5.428506 0.749936 1.979691 0
M  V30 65 H -3.576469 0.799666 1.976243 0
M  V30 66 H 5.646229 1.347658 -1.639254 0
M  V30 67 H 4.938463 2.378457 -0.370563 0
M  V30 68 H 6.639781 0.020667 -0.042776 0
M  V30 69 H 5.771208 1.027577 1.232411 0
M  V30 END ATOM
M  V30 BEGIN BOND
M  V30 1 1 1 2
M  V30 2 1 2 3
M  V30 3 1 3 4
M  V30 4 1 2 5
M  V30 5 1 5 6
M  V30 6 1 6 7
M  V30 7 1 7 8
M  V30 8 1 8 9
M  V30 9 1 9 10
M  V30 10 2 10 11
M  V30 11 1 11 12
M  V30 12 2 12 13
M  V30 13 1 13 14
M  V30 14 1 14 15
M  V30 15 2 15 16
M  V30 16 1 16 17
M  V30 17 2 17 18
M  V30 18 1 18 19
M  V30 19 2 19 20
M  V30 20 1 20 21
M  V30 21 2 21 22
M  V30 22 1 22 23
M  V30 23 2 23 24
M  V30 24 1 24 25
M  V30 25 1 25 26
M  V30 26 1 26 27
M  V30 27 1 27 28
M  V30 28 1 28 29
M  V30 29 1 29 30
M  V30 30 1 25 31
M  V30 31 2 31 32
M  V30 32 1 13 33
M  V30 33 2 33 34
M  V30 34 1 9 35
M  V30 35 1 35 36
M  V30 36 1 36 6
M  V30 37 1 34 10
M  V30 38 1 32 15
M  V30 39 1 31 18
M  V30 40 1 24 19
M  V30 41 1 30 26
M  V30 42 1 1 37
M  V30 43 1 1 38
M  V30 44 1 1 39
M  V30 45 1 2 40 CFG=3
M  V30 46 1 3 41
M  V30 47 1 3 42
M  V30 48 1 4 43
M  V30 49 1 5 44
M  V30 50 1 6 45
M  V30 51 1 7 46
M  V30 52 1 7 47
M  V30 53 1 8 48
M  V30 54 1 8 49
M  V30 55 1 11 50
M  V30 56 1 12 51
M  V30 57 1 14 52
M  V30 58 1 17 53
M  V30 59 1 20 54
M  V30 60 1 21 55
M  V30 61 1 23 56
M  V30 62 1 26 57
M  V30 63 1 27 58
M  V30 64 1 27 59
M  V30 65 1 28 60
M  V30 66 1 28 61
M  V30 67 1 29 62
M  V30 68 1 29 63
M  V30 69 1 30 64
M  V30 70 1 30 65
M  V30 71 1 35 66
M  V30 72 1 35 67
M  V30 73 1 36 68
M  V30 74 1 36 69
M  V30 END BOND
M  V30 END CTAB
M  END
>  <Dataset>  (621) 
ChEMBL_Kinases

>  <Ligand_Instance>  (621) 
nan

>  <PDB_ID>  (621) 
nan

>  <Standardized_SMILES>  (621) 
C[C@H](CO)NC1CCN(c2ccc(Nc3ncc4c5ccncc5n(C5CCCC5)c4n3)nn2)CC1

>  <Name>  (621) 
nan

>  <Pocket>  (621) 
nan

>  <ATP_Site>  (621) 
nan

>  <Peripheral>  (621) 
nan

>  <Num_H_Atoms_ProtBoundConf>  (621) 
nan

>  <Num_Resolved_Atoms>  (621) 
nan

>  <Num_Not_Resolved_Atoms>  (621) 
nan

$$$$
CHEMBL3642001
     RDKit          3D

  0  0  0  0  0  0  0  0  0  0999 V3000
M  V30 BEGIN CTAB
M  V30 COUNTS 70 75 0 0 0
M  V30 BEGIN ATOM
M  V30 1 O 3.584484 -0.494733 2.002587 0
M  V30 2 C 4.420875 -1.585533 2.071313 0
M  V30 3 C 5.086001 -1.924533 0.734300 0
M  V30 4 C 6.096562 -0.853985 0.506610 0
M  V30 5 O 5.476399 0.347529 0.261008 0
M  V30 6 N 4.156587 -2.217937 -0.275504 0
M  V30 7 C 4.530185 -2.650546 -1.548198 0
M  V30 8 C 3.311998 -3.193937 -2.348735 0
M  V30 9 C 2.693586 -2.114573 -3.182883 0
M  V30 10 N 2.959371 -0.786830 -2.665975 0
M  V30 11 C 1.954514 0.040659 -2.087189 0
M  V30 12 C 2.141650 1.310504 -1.576661 0
M  V30 13 C 1.094148 2.031253 -1.035078 0
M  V30 14 C -0.158875 1.443140 -1.016878 0
M  V30 15 N -1.294991 2.110293 -0.477778 0
M  V30 16 C -2.579473 1.491072 -0.468018 0
M  V30 17 N -3.482397 1.614059 -1.478674 0
M  V30 18 C -4.683782 0.981706 -1.373624 0
M  V30 19 C -5.026177 0.213890 -0.273800 0
M  V30 20 C -6.091301 -0.535239 0.161486 0
M  V30 21 C -7.303059 -0.750702 -0.502101 0
M  V30 22 C -8.223472 -1.559243 0.167129 0
M  V30 23 N -7.954328 -2.100774 1.386696 0
M  V30 24 C -6.764855 -1.867869 1.999195 0
M  V30 25 C -5.812021 -1.077960 1.392294 0
M  V30 26 N -4.572512 -0.668496 1.727159 0
M  V30 27 C -3.972556 -1.061331 2.966172 0
M  V30 28 C -4.685911 -0.460652 4.167858 0
M  V30 29 C -3.932076 0.783077 4.557189 0
M  V30 30 C -2.595346 0.723995 3.867626 0
M  V30 31 C -2.577451 -0.601987 3.179309 0
M  V30 32 C -4.082419 0.111832 0.734312 0
M  V30 33 N -2.927773 0.746036 0.585214 0
M  V30 34 N -0.314145 0.190244 -1.527063 0
M  V30 35 N 0.710403 -0.474349 -2.039345 0
M  V30 36 C 4.344493 -0.478797 -2.842210 0
M  V30 37 C 5.169579 -1.683807 -2.497454 0
M  V30 38 H 3.443515 -0.180284 2.933852 0
M  V30 39 H 3.822197 -2.451605 2.448788 0
M  V30 40 H 5.187849 -1.384598 2.846613 0
M  V30 41 H 5.627384 -2.904146 0.968969 0
M  V30 42 H 6.597265 -0.699413 1.531240 0
M  V30 43 H 6.945537 -1.107208 -0.134161 0
M  V30 44 H 4.539109 0.193563 0.020014 0
M  V30 45 H 3.308866 -1.644166 -0.187149 0
M  V30 46 H 5.230424 -3.510983 -1.442616 0
M  V30 47 H 2.611755 -3.727003 -1.680815 0
M  V30 48 H 3.723938 -3.939439 -3.054023 0
M  V30 49 H 2.916506 -2.182158 -4.267080 0
M  V30 50 H 1.576224 -2.276697 -3.131024 0
M  V30 51 H 3.146178 1.709590 -1.622058 0
M  V30 52 H 1.248973 3.024494 -0.637416 0
M  V30 53 H -1.197146 3.064211 -0.082827 0
M  V30 54 H -5.424159 1.058975 -2.158283 0
M  V30 55 H -7.512327 -0.321534 -1.464770 0
M  V30 56 H -9.186945 -1.774106 -0.281384 0
M  V30 57 H -6.582447 -2.315745 2.972799 0
M  V30 58 H -4.084002 -2.160717 3.072700 0
M  V30 59 H -4.647807 -1.161799 5.018767 0
M  V30 60 H -5.735289 -0.267430 3.889646 0
M  V30 61 H -3.780202 0.823743 5.654217 0
M  V30 62 H -4.505585 1.653844 4.178068 0
M  V30 63 H -2.470401 1.602091 3.209010 0
M  V30 64 H -1.771198 0.781362 4.624926 0
M  V30 65 H -2.113157 -1.326229 3.912557 0
M  V30 66 H -1.932424 -0.645296 2.292669 0
M  V30 67 H 4.655335 0.457045 -2.331299 0
M  V30 68 H 4.480159 -0.296079 -3.957033 0
M  V30 69 H 5.241108 -2.277007 -3.478920 0
M  V30 70 H 6.226620 -1.445071 -2.295758 0
M  V30 END ATOM
M  V30 BEGIN BOND
M  V30 1 1 1 2
M  V30 2 1 2 3
M  V30 3 1 3 4
M  V30 4 1 4 5
M  V30 5 1 3 6
M  V30 6 1 6 7
M  V30 7 1 7 8
M  V30 8 1 8 9
M  V30 9 1 9 10
M  V30 10 1 10 11
M  V30 11 2 11 12
M  V30 12 1 12 13
M  V30 13 2 13 14
M  V30 14 1 14 15
M  V30 15 1 15 16
M  V30 16 2 16 17
M  V30 17 1 17 18
M  V30 18 2 18 19
M  V30 19 1 19 20
M  V30 20 2 20 21
M  V30 21 1 21 22
M  V30 22 2 22 23
M  V30 23 1 23 24
M  V30 24 2 24 25
M  V30 25 1 25 26
M  V30 26 1 26 27
M  V30 27 1 27 28
M  V30 28 1 28 29
M  V30 29 1 29 30
M  V30 30 1 30 31
M  V30 31 1 26 32
M  V30 32 2 32 33
M  V30 33 1 14 34
M  V30 34 2 34 35
M  V30 35 1 10 36
M  V30 36 1 36 37
M  V30 37 1 37 7
M  V30 38 1 35 11
M  V30 39 1 33 16
M  V30 40 1 32 19
M  V30 41 1 25 20
M  V30 42 1 31 27
M  V30 43 1 1 38
M  V30 44 1 2 39
M  V30 45 1 2 40
M  V30 46 1 3 41
M  V30 47 1 4 42
M  V30 48 1 4 43
M  V30 49 1 5 44
M  V30 50 1 6 45
M  V30 51 1 7 46
M  V30 52 1 8 47
M  V30 53 1 8 48
M  V30 54 1 9 49
M  V30 55 1 9 50
M  V30 56 1 12 51
M  V30 57 1 13 52
M  V30 58 1 15 53
M  V30 59 1 18 54
M  V30 60 1 21 55
M  V30 61 1 22 56
M  V30 62 1 24 57
M  V30 63 1 27 58
M  V30 64 1 28 59
M  V30 65 1 28 60
M  V30 66 1 29 61
M  V30 67 1 29 62
M  V30 68 1 30 63
M  V30 69 1 30 64
M  V30 70 1 31 65
M  V30 71 1 31 66
M  V30 72 1 36 67
M  V30 73 1 36 68
M  V30 74 1 37 69
M  V30 75 1 37 70
M  V30 END BOND
M  V30 END CTAB
M  END
>  <Dataset>  (622) 
ChEMBL_Kinases

>  <Ligand_Instance>  (622) 
nan

>  <PDB_ID>  (622) 
nan

>  <Standardized_SMILES>  (622) 
OCC(CO)NC1CCN(c2ccc(Nc3ncc4c5ccncc5n(C5CCCC5)c4n3)nn2)CC1

>  <Name>  (622) 
nan

>  <Pocket>  (622) 
nan

>  <ATP_Site>  (622) 
nan

>  <Peripheral>  (622) 
nan

>  <Num_H_Atoms_ProtBoundConf>  (622) 
nan

>  <Num_Resolved_Atoms>  (622) 
nan

>  <Num_Not_Resolved_Atoms>  (622) 
nan

$$$$
CHEMBL3642002
     RDKit          3D

  0  0  0  0  0  0  0  0  0  0999 V3000
M  V30 BEGIN CTAB
M  V30 COUNTS 70 75 0 0 0
M  V30 BEGIN ATOM
M  V30 1 O 3.062353 -2.001873 3.654333 0
M  V30 2 C 4.206233 -2.677103 3.168123 0
M  V30 3 C 4.084021 -2.952117 1.691568 0 CFG=2
M  V30 4 O 5.213115 -3.587862 1.238422 0
M  V30 5 C 3.928191 -1.626214 0.974592 0
M  V30 6 N 3.792422 -1.800435 -0.444971 0
M  V30 7 C 3.551137 -0.548688 -1.084606 0
M  V30 8 C 3.278993 -0.726647 -2.577679 0
M  V30 9 C 2.903825 0.645375 -3.086011 0
M  V30 10 N 2.691398 1.564352 -1.963469 0
M  V30 11 C 1.397187 1.989380 -1.567669 0
M  V30 12 C 0.361739 1.093504 -1.882692 0
M  V30 13 C -0.927571 1.479130 -1.480114 0
M  V30 14 C -1.206467 2.658762 -0.811960 0
M  V30 15 N -2.567263 2.914505 -0.403605 0
M  V30 16 C -3.484158 1.840276 -0.695424 0
M  V30 17 N -4.506115 1.527085 -1.514989 0
M  V30 18 C -5.109704 0.336821 -1.477409 0
M  V30 19 C -4.734232 -0.656348 -0.602755 0
M  V30 20 C -5.150462 -1.922523 -0.352362 0
M  V30 21 C -6.173024 -2.661791 -0.948409 0
M  V30 22 C -6.352533 -3.956082 -0.453898 0
M  V30 23 N -5.578823 -4.447443 0.536740 0
M  V30 24 C -4.593072 -3.694905 1.090113 0
M  V30 25 C -4.345267 -2.405584 0.664580 0
M  V30 26 N -3.468658 -1.450348 1.014802 0
M  V30 27 C -2.480931 -1.611677 2.026637 0
M  V30 28 C -3.064089 -1.671016 3.420385 0
M  V30 29 C -3.258490 -0.205938 3.741557 0
M  V30 30 C -1.990148 0.420365 3.195904 0
M  V30 31 C -1.462055 -0.507022 2.118350 0
M  V30 32 C -3.693991 -0.345228 0.234071 0
M  V30 33 N -3.124058 0.865238 0.155237 0
M  V30 34 N -0.145296 3.441489 -0.563117 0
M  V30 35 N 1.088613 3.126006 -0.920159 0
M  V30 36 C 4.018848 1.830801 -1.413745 0
M  V30 37 C 4.616659 0.486228 -0.966337 0
M  V30 38 H 3.126305 -1.042816 3.374172 0
M  V30 39 H 4.220965 -3.637990 3.743592 0
M  V30 40 H 5.074559 -2.049034 3.423160 0
M  V30 41 H 3.161050 -3.558143 1.511286 0
M  V30 42 H 5.602960 -3.215925 0.408974 0
M  V30 43 H 3.009492 -1.143460 1.350741 0
M  V30 44 H 4.828383 -1.004686 1.192034 0
M  V30 45 H 3.089065 -2.511051 -0.691636 0
M  V30 46 H 2.631272 -0.118819 -0.638202 0
M  V30 47 H 4.183338 -1.100798 -3.117029 0
M  V30 48 H 2.461475 -1.441952 -2.775360 0
M  V30 49 H 3.684751 1.043645 -3.780000 0
M  V30 50 H 1.964352 0.633553 -3.669940 0
M  V30 51 H 0.505559 0.147070 -2.402373 0
M  V30 52 H -1.692742 0.751378 -1.746440 0
M  V30 53 H -2.850133 3.791722 0.055967 0
M  V30 54 H -5.908257 0.222824 -2.188780 0
M  V30 55 H -6.756121 -2.213728 -1.735213 0
M  V30 56 H -7.138670 -4.544206 -0.896167 0
M  V30 57 H -4.007360 -4.137615 1.874768 0
M  V30 58 H -1.928980 -2.578083 1.845117 0
M  V30 59 H -2.267989 -2.047953 4.105312 0
M  V30 60 H -3.967257 -2.278661 3.459694 0
M  V30 61 H -3.338665 -0.026548 4.838502 0
M  V30 62 H -4.170637 0.163204 3.279038 0
M  V30 63 H -2.145093 1.445895 2.790661 0
M  V30 64 H -1.288491 0.493294 4.061482 0
M  V30 65 H -0.514008 -0.960798 2.533200 0
M  V30 66 H -1.197800 -0.026225 1.184163 0
M  V30 67 H 3.992238 2.532538 -0.552580 0
M  V30 68 H 4.642544 2.222009 -2.230479 0
M  V30 69 H 5.408670 0.207464 -1.720855 0
M  V30 70 H 5.088669 0.587095 0.017662 0
M  V30 END ATOM
M  V30 BEGIN BOND
M  V30 1 1 1 2
M  V30 2 1 2 3
M  V30 3 1 3 4
M  V30 4 1 3 5
M  V30 5 1 5 6
M  V30 6 1 6 7
M  V30 7 1 7 8
M  V30 8 1 8 9
M  V30 9 1 9 10
M  V30 10 1 10 11
M  V30 11 2 11 12
M  V30 12 1 12 13
M  V30 13 2 13 14
M  V30 14 1 14 15
M  V30 15 1 15 16
M  V30 16 2 16 17
M  V30 17 1 17 18
M  V30 18 2 18 19
M  V30 19 1 19 20
M  V30 20 2 20 21
M  V30 21 1 21 22
M  V30 22 2 22 23
M  V30 23 1 23 24
M  V30 24 2 24 25
M  V30 25 1 25 26
M  V30 26 1 26 27
M  V30 27 1 27 28
M  V30 28 1 28 29
M  V30 29 1 29 30
M  V30 30 1 30 31
M  V30 31 1 26 32
M  V30 32 2 32 33
M  V30 33 1 14 34
M  V30 34 2 34 35
M  V30 35 1 10 36
M  V30 36 1 36 37
M  V30 37 1 37 7
M  V30 38 1 35 11
M  V30 39 1 33 16
M  V30 40 1 32 19
M  V30 41 1 25 20
M  V30 42 1 31 27
M  V30 43 1 1 38
M  V30 44 1 2 39
M  V30 45 1 2 40
M  V30 46 1 3 41 CFG=1
M  V30 47 1 4 42
M  V30 48 1 5 43
M  V30 49 1 5 44
M  V30 50 1 6 45
M  V30 51 1 7 46
M  V30 52 1 8 47
M  V30 53 1 8 48
M  V30 54 1 9 49
M  V30 55 1 9 50
M  V30 56 1 12 51
M  V30 57 1 13 52
M  V30 58 1 15 53
M  V30 59 1 18 54
M  V30 60 1 21 55
M  V30 61 1 22 56
M  V30 62 1 24 57
M  V30 63 1 27 58
M  V30 64 1 28 59
M  V30 65 1 28 60
M  V30 66 1 29 61
M  V30 67 1 29 62
M  V30 68 1 30 63
M  V30 69 1 30 64
M  V30 70 1 31 65
M  V30 71 1 31 66
M  V30 72 1 36 67
M  V30 73 1 36 68
M  V30 74 1 37 69
M  V30 75 1 37 70
M  V30 END BOND
M  V30 END CTAB
M  END
>  <Dataset>  (623) 
ChEMBL_Kinases

>  <Ligand_Instance>  (623) 
nan

>  <PDB_ID>  (623) 
nan

>  <Standardized_SMILES>  (623) 
OC[C@H](O)CNC1CCN(c2ccc(Nc3ncc4c5ccncc5n(C5CCCC5)c4n3)nn2)CC1

>  <Name>  (623) 
nan

>  <Pocket>  (623) 
nan

>  <ATP_Site>  (623) 
nan

>  <Peripheral>  (623) 
nan

>  <Num_H_Atoms_ProtBoundConf>  (623) 
nan

>  <Num_Resolved_Atoms>  (623) 
nan

>  <Num_Not_Resolved_Atoms>  (623) 
nan

$$$$
CHEMBL3935219
     RDKit          3D

  0  0  0  0  0  0  0  0  0  0999 V3000
M  V30 BEGIN CTAB
M  V30 COUNTS 62 65 0 0 0
M  V30 BEGIN ATOM
M  V30 1 C 3.110206 4.350331 6.333647 0
M  V30 2 C 2.271525 3.376954 5.543658 0
M  V30 3 C 1.745152 2.304246 6.464293 0
M  V30 4 O 1.260253 4.040331 4.828334 0
M  V30 5 C 1.255680 3.936292 3.445322 0
M  V30 6 O 2.148664 3.254887 2.844383 0
M  V30 7 C 0.155810 4.662506 2.728210 0
M  V30 8 C 0.280028 4.452217 1.232224 0
M  V30 9 C 0.170522 2.965319 1.012395 0
M  V30 10 O -0.000582 2.065330 1.904334 0
M  V30 11 N 0.248371 2.353165 -0.280443 0
M  V30 12 C 0.099540 0.929808 -0.061840 0
M  V30 13 C 1.258286 0.211238 0.157957 0
M  V30 14 C 1.112436 -1.153416 0.367791 0
M  V30 15 C -0.141349 -1.731291 0.351256 0
M  V30 16 C -1.287047 -0.994032 0.129574 0
M  V30 17 C -2.634945 -1.562172 0.103018 0
M  V30 18 N -3.754279 -1.089839 0.686031 0
M  V30 19 N -4.794941 -1.883259 0.437912 0
M  V30 20 C -4.405920 -2.921301 -0.324996 0
M  V30 21 C -5.110757 -3.991900 -0.834841 0
M  V30 22 C -4.362942 -4.871869 -1.586142 0
M  V30 23 C -2.993512 -4.755361 -1.854349 0
M  V30 24 N -2.386656 -5.752218 -2.653669 0
M  V30 25 S -1.313050 -5.656513 -3.993812 0
M  V30 26 O -1.954014 -4.805461 -5.074492 0
M  V30 27 O -1.064886 -6.992743 -4.597407 0
M  V30 28 C 0.184315 -4.888282 -3.558145 0
M  V30 29 C 1.131108 -5.786279 -3.054106 0
M  V30 30 C 2.382657 -5.365533 -2.659521 0
M  V30 31 C 2.729465 -4.035014 -2.755350 0
M  V30 32 C 1.800294 -3.144998 -3.251446 0
M  V30 33 C 0.548671 -3.561223 -3.646824 0
M  V30 34 C -2.398169 -3.649941 -1.294687 0
M  V30 35 C -3.057841 -2.713446 -0.529233 0
M  V30 36 C -1.177315 0.383788 -0.085654 0
M  V30 37 H 3.087877 4.125959 7.430374 0
M  V30 38 H 2.736789 5.368399 6.123979 0
M  V30 39 H 4.174754 4.359204 5.957164 0
M  V30 40 H 2.922677 2.857019 4.809838 0
M  V30 41 H 2.497013 2.210625 7.298496 0
M  V30 42 H 1.766862 1.302196 5.960052 0
M  V30 43 H 0.771048 2.542394 6.899195 0
M  V30 44 H 0.086567 5.711486 3.024017 0
M  V30 45 H -0.774440 4.090669 3.018890 0
M  V30 46 H 1.281328 4.835045 0.931131 0
M  V30 47 H -0.507479 5.011256 0.723687 0
M  V30 48 H 0.391137 2.988151 -1.121506 0
M  V30 49 H 2.230431 0.667473 0.169430 0
M  V30 50 H 2.002758 -1.773859 0.547852 0
M  V30 51 H -0.236024 -2.796619 0.516849 0
M  V30 52 H -5.778988 -1.757369 0.764887 0
M  V30 53 H -6.151280 -4.137220 -0.667349 0
M  V30 54 H -4.896279 -5.738195 -2.007723 0
M  V30 55 H -2.662106 -6.723795 -2.343964 0
M  V30 56 H 1.020653 -6.871159 -2.911913 0
M  V30 57 H 3.160611 -5.999766 -2.263018 0
M  V30 58 H 3.666709 -3.564242 -2.486061 0
M  V30 59 H 1.979154 -2.071312 -3.366262 0
M  V30 60 H -0.253021 -2.943388 -4.049246 0
M  V30 61 H -1.341983 -3.532630 -1.480766 0
M  V30 62 H -2.030730 1.037117 -0.267703 0
M  V30 END ATOM
M  V30 BEGIN BOND
M  V30 1 1 1 2
M  V30 2 1 2 3
M  V30 3 1 2 4
M  V30 4 1 4 5
M  V30 5 2 5 6
M  V30 6 1 5 7
M  V30 7 1 7 8
M  V30 8 1 8 9
M  V30 9 2 9 10
M  V30 10 1 9 11
M  V30 11 1 11 12
M  V30 12 2 12 13
M  V30 13 1 13 14
M  V30 14 2 14 15
M  V30 15 1 15 16
M  V30 16 1 16 17
M  V30 17 2 17 18
M  V30 18 1 18 19
M  V30 19 1 19 20
M  V30 20 2 20 21
M  V30 21 1 21 22
M  V30 22 2 22 23
M  V30 23 1 23 24
M  V30 24 1 24 25
M  V30 25 2 25 26
M  V30 26 2 25 27
M  V30 27 1 25 28
M  V30 28 2 28 29
M  V30 29 1 29 30
M  V30 30 2 30 31
M  V30 31 1 31 32
M  V30 32 2 32 33
M  V30 33 1 23 34
M  V30 34 2 34 35
M  V30 35 2 16 36
M  V30 36 1 36 12
M  V30 37 1 35 17
M  V30 38 1 35 20
M  V30 39 1 33 28
M  V30 40 1 1 37
M  V30 41 1 1 38
M  V30 42 1 1 39
M  V30 43 1 2 40
M  V30 44 1 3 41
M  V30 45 1 3 42
M  V30 46 1 3 43
M  V30 47 1 7 44
M  V30 48 1 7 45
M  V30 49 1 8 46
M  V30 50 1 8 47
M  V30 51 1 11 48
M  V30 52 1 13 49
M  V30 53 1 14 50
M  V30 54 1 15 51
M  V30 55 1 19 52
M  V30 56 1 21 53
M  V30 57 1 22 54
M  V30 58 1 24 55
M  V30 59 1 29 56
M  V30 60 1 30 57
M  V30 61 1 31 58
M  V30 62 1 32 59
M  V30 63 1 33 60
M  V30 64 1 34 61
M  V30 65 1 36 62
M  V30 END BOND
M  V30 END CTAB
M  END
>  <Dataset>  (624) 
ChEMBL_Kinases

>  <Ligand_Instance>  (624) 
nan

>  <PDB_ID>  (624) 
nan

>  <Standardized_SMILES>  (624) 
CC(C)OC(=O)CCC(=O)Nc1cccc(-c2n[nH]c3ccc(NS(=O)(=O)c4ccccc4)cc23)c1

>  <Name>  (624) 
nan

>  <Pocket>  (624) 
nan

>  <ATP_Site>  (624) 
nan

>  <Peripheral>  (624) 
nan

>  <Num_H_Atoms_ProtBoundConf>  (624) 
nan

>  <Num_Resolved_Atoms>  (624) 
nan

>  <Num_Not_Resolved_Atoms>  (624) 
nan

$$$$
CHEMBL3642003
     RDKit          3D

  0  0  0  0  0  0  0  0  0  0999 V3000
M  V30 BEGIN CTAB
M  V30 COUNTS 70 76 0 0 0
M  V30 BEGIN ATOM
M  V30 1 C 3.011645 1.540798 7.536236 0
M  V30 2 C 3.605383 0.662234 6.658062 0
M  V30 3 C 3.318669 0.650063 5.295280 0
M  V30 4 C 3.659157 -0.028287 4.148193 0
M  V30 5 C 4.557045 -1.087828 4.037268 0
M  V30 6 N 4.753697 -1.646927 2.811801 0
M  V30 7 C 4.088660 -1.170224 1.764681 0
M  V30 8 N 4.278252 -1.792580 0.475314 0
M  V30 9 C 3.021672 -1.983596 -0.217056 0
M  V30 10 C 2.974850 -2.613983 -1.440598 0
M  V30 11 C 1.818789 -2.849448 -2.155579 0
M  V30 12 C 0.662068 -2.390553 -1.539831 0
M  V30 13 N -0.703779 -2.491085 -1.970991 0
M  V30 14 C -1.444893 -1.238163 -2.037914 0
M  V30 15 C -2.876945 -1.539050 -1.663320 0
M  V30 16 C -3.352401 -2.625046 -2.570545 0
M  V30 17 N -4.802167 -2.676199 -2.663273 0
M  V30 18 C -5.179866 -3.787953 -3.463792 0
M  V30 19 C -6.587972 -3.802912 -3.974676 0
M  V30 20 O -7.272656 -2.607921 -3.776192 0
M  V30 21 C -6.408781 -1.604817 -4.217786 0
M  V30 22 C -5.293873 -1.455184 -3.210946 0
M  V30 23 C -2.720072 -3.912830 -2.187346 0
M  V30 24 C -1.209295 -3.793193 -2.270121 0
M  V30 25 N 0.709747 -1.774432 -0.348089 0
M  V30 26 N 1.837325 -1.558384 0.327243 0
M  V30 27 N 3.231835 -0.149630 1.898461 0
M  V30 28 C 2.976354 0.466006 3.081455 0
M  V30 29 N 2.183665 1.474938 3.510195 0
M  V30 30 C 1.381312 2.161709 2.587397 0
M  V30 31 C 0.471085 3.206367 2.911945 0
M  V30 32 C 1.287316 4.479048 2.984267 0
M  V30 33 C 2.063520 4.310979 1.666247 0
M  V30 34 C 2.310931 2.796616 1.551314 0
M  V30 35 C 2.399672 1.573748 4.847040 0
M  V30 36 C 1.831207 2.431683 5.755909 0
M  V30 37 N 2.114878 2.431511 7.064346 0
M  V30 38 H 3.281686 1.486553 8.590143 0
M  V30 39 H 4.343341 -0.096249 6.954187 0
M  V30 40 H 5.076536 -1.454894 4.892015 0
M  V30 41 H 5.123556 -2.121219 -0.027179 0
M  V30 42 H 3.891106 -2.968057 -1.939093 0
M  V30 43 H 1.677760 -3.324808 -3.093128 0
M  V30 44 H -0.975292 -0.442935 -1.462312 0
M  V30 45 H -1.468343 -0.989421 -3.139616 0
M  V30 46 H -2.817729 -1.918212 -0.596294 0
M  V30 47 H -3.518132 -0.634753 -1.627892 0
M  V30 48 H -3.001493 -2.369181 -3.616777 0
M  V30 49 H -5.073927 -4.771326 -2.900532 0
M  V30 50 H -4.412507 -3.892728 -4.280624 0
M  V30 51 H -7.219215 -4.592993 -3.528747 0
M  V30 52 H -6.526471 -3.983204 -5.079193 0
M  V30 53 H -6.878231 -0.624889 -4.364919 0
M  V30 54 H -5.928261 -1.902339 -5.188282 0
M  V30 55 H -4.520079 -0.824406 -3.706179 0
M  V30 56 H -5.758256 -0.891954 -2.348012 0
M  V30 57 H -3.063302 -4.797401 -2.762846 0
M  V30 58 H -2.971744 -4.096231 -1.120138 0
M  V30 59 H -0.722510 -4.513775 -1.560480 0
M  V30 60 H -0.908474 -4.115709 -3.286356 0
M  V30 61 H 0.827395 1.378578 1.978092 0
M  V30 62 H -0.341218 3.099973 3.614561 0
M  V30 63 H -0.114023 3.398721 1.939721 0
M  V30 64 H 2.057370 4.490531 3.747946 0
M  V30 65 H 0.599910 5.336176 2.952413 0
M  V30 66 H 1.386387 4.690504 0.895182 0
M  V30 67 H 3.003014 4.862266 1.699676 0
M  V30 68 H 3.376694 2.633835 1.775449 0
M  V30 69 H 2.045263 2.549755 0.521531 0
M  V30 70 H 1.114929 3.159994 5.481589 0
M  V30 END ATOM
M  V30 BEGIN BOND
M  V30 1 2 1 2
M  V30 2 1 2 3
M  V30 3 1 3 4
M  V30 4 2 4 5
M  V30 5 1 5 6
M  V30 6 2 6 7
M  V30 7 1 7 8
M  V30 8 1 8 9
M  V30 9 2 9 10
M  V30 10 1 10 11
M  V30 11 2 11 12
M  V30 12 1 12 13
M  V30 13 1 13 14
M  V30 14 1 14 15
M  V30 15 1 15 16
M  V30 16 1 16 17
M  V30 17 1 17 18
M  V30 18 1 18 19
M  V30 19 1 19 20
M  V30 20 1 20 21
M  V30 21 1 21 22
M  V30 22 1 16 23
M  V30 23 1 23 24
M  V30 24 1 12 25
M  V30 25 2 25 26
M  V30 26 1 7 27
M  V30 27 2 27 28
M  V30 28 1 28 29
M  V30 29 1 29 30
M  V30 30 1 30 31
M  V30 31 1 31 32
M  V30 32 1 32 33
M  V30 33 1 33 34
M  V30 34 1 29 35
M  V30 35 1 35 36
M  V30 36 2 36 37
M  V30 37 1 37 1
M  V30 38 2 35 3
M  V30 39 1 28 4
M  V30 40 1 34 30
M  V30 41 1 26 9
M  V30 42 1 24 13
M  V30 43 1 22 17
M  V30 44 1 1 38
M  V30 45 1 2 39
M  V30 46 1 5 40
M  V30 47 1 8 41
M  V30 48 1 10 42
M  V30 49 1 11 43
M  V30 50 1 14 44
M  V30 51 1 14 45
M  V30 52 1 15 46
M  V30 53 1 15 47
M  V30 54 1 16 48
M  V30 55 1 18 49
M  V30 56 1 18 50
M  V30 57 1 19 51
M  V30 58 1 19 52
M  V30 59 1 21 53
M  V30 60 1 21 54
M  V30 61 1 22 55
M  V30 62 1 22 56
M  V30 63 1 23 57
M  V30 64 1 23 58
M  V30 65 1 24 59
M  V30 66 1 24 60
M  V30 67 1 30 61
M  V30 68 1 31 62
M  V30 69 1 31 63
M  V30 70 1 32 64
M  V30 71 1 32 65
M  V30 72 1 33 66
M  V30 73 1 33 67
M  V30 74 1 34 68
M  V30 75 1 34 69
M  V30 76 1 36 70
M  V30 END BOND
M  V30 END CTAB
M  END
>  <Dataset>  (625) 
ChEMBL_Kinases

>  <Ligand_Instance>  (625) 
nan

>  <PDB_ID>  (625) 
nan

>  <Standardized_SMILES>  (625) 
c1cc2c3cnc(Nc4ccc(N5CCC(N6CCOCC6)CC5)nn4)nc3n(C3CCCC3)c2cn1

>  <Name>  (625) 
nan

>  <Pocket>  (625) 
nan

>  <ATP_Site>  (625) 
nan

>  <Peripheral>  (625) 
nan

>  <Num_H_Atoms_ProtBoundConf>  (625) 
nan

>  <Num_Resolved_Atoms>  (625) 
nan

>  <Num_Not_Resolved_Atoms>  (625) 
nan

$$$$
CHEMBL3642004
     RDKit          3D

  0  0  0  0  0  0  0  0  0  0999 V3000
M  V30 BEGIN CTAB
M  V30 COUNTS 67 73 0 0 0
M  V30 BEGIN ATOM
M  V30 1 O 5.819746 -2.475962 3.695632 0
M  V30 2 C 5.325996 -1.211008 3.941431 0
M  V30 3 C 3.929315 -0.960039 3.385774 0
M  V30 4 N 4.361710 0.376183 3.106280 0
M  V30 5 C 3.751603 1.095943 2.072456 0
M  V30 6 C 3.842996 0.536243 0.680770 0
M  V30 7 C 3.324528 1.636340 -0.268882 0
M  V30 8 N 2.364542 2.404785 0.498019 0
M  V30 9 C 0.951324 2.296826 0.454560 0
M  V30 10 C 0.374822 1.416076 -0.442648 0
M  V30 11 C -1.025223 1.387790 -0.375701 0
M  V30 12 C -1.767467 2.176464 0.515085 0
M  V30 13 N -3.206162 2.060642 0.517411 0
M  V30 14 C -3.714843 1.125198 -0.441462 0
M  V30 15 N -4.341984 1.361912 -1.607928 0
M  V30 16 C -4.728388 0.331741 -2.390791 0
M  V30 17 C -4.439019 -0.927505 -1.916056 0
M  V30 18 C -4.721906 -2.149545 -2.517205 0
M  V30 19 C -5.344644 -2.481817 -3.702462 0
M  V30 20 C -5.504514 -3.802819 -4.072721 0
M  V30 21 N -5.027700 -4.734071 -3.228265 0
M  V30 22 C -4.431051 -4.405553 -2.092099 0
M  V30 23 C -4.229879 -3.098107 -1.645610 0
M  V30 24 N -3.668057 -2.549311 -0.559570 0
M  V30 25 C -3.056948 -3.237720 0.534189 0
M  V30 26 C -2.145995 -4.310425 0.010299 0
M  V30 27 C -0.807280 -4.158358 0.706295 0
M  V30 28 C -1.057950 -3.232305 1.869867 0
M  V30 29 C -2.193261 -2.330460 1.387443 0
M  V30 30 C -3.804949 -1.221632 -0.740212 0
M  V30 31 N -3.464932 -0.130130 -0.039978 0
M  V30 32 N -1.086655 3.004032 1.347272 0
M  V30 33 N 0.240317 3.052108 1.306405 0
M  V30 34 C 3.072525 3.332165 1.359069 0
M  V30 35 C 4.184942 2.544404 2.064317 0
M  V30 36 C 5.692686 -0.146044 2.904904 0
M  V30 37 H 5.101472 -3.136054 3.766631 0
M  V30 38 H 5.367576 -0.830297 4.973248 0
M  V30 39 H 3.124020 -0.982587 4.149638 0
M  V30 40 H 3.734778 -1.643480 2.561738 0
M  V30 41 H 2.644338 1.137074 2.307911 0
M  V30 42 H 3.109481 -0.294101 0.577670 0
M  V30 43 H 4.841288 0.281763 0.332869 0
M  V30 44 H 4.174050 2.247365 -0.654294 0
M  V30 45 H 2.892418 1.148492 -1.162339 0
M  V30 46 H 0.899463 0.803407 -1.131077 0
M  V30 47 H -1.487482 0.700376 -1.075520 0
M  V30 48 H -3.690786 2.668499 1.213087 0
M  V30 49 H -5.229648 0.543499 -3.321172 0
M  V30 50 H -5.716499 -1.706878 -4.356569 0
M  V30 51 H -5.994770 -4.017430 -5.002759 0
M  V30 52 H -4.097183 -5.230588 -1.506091 0
M  V30 53 H -3.864602 -3.712337 1.133814 0
M  V30 54 H -2.526565 -5.327059 0.259626 0
M  V30 55 H -1.958136 -4.250775 -1.076856 0
M  V30 56 H -0.470079 -5.133487 1.139446 0
M  V30 57 H -0.018745 -3.811663 0.030981 0
M  V30 58 H -0.139854 -2.609840 2.036442 0
M  V30 59 H -1.307855 -3.776417 2.798244 0
M  V30 60 H -1.761324 -1.481299 0.833193 0
M  V30 61 H -2.772281 -2.017377 2.259935 0
M  V30 62 H 2.390517 3.727895 2.117000 0
M  V30 63 H 3.512197 4.174634 0.779670 0
M  V30 64 H 5.162578 2.704438 1.567706 0
M  V30 65 H 4.269763 2.910038 3.107694 0
M  V30 66 H 6.537181 0.493353 3.219030 0
M  V30 67 H 5.817204 -0.655421 1.909993 0
M  V30 END ATOM
M  V30 BEGIN BOND
M  V30 1 1 1 2
M  V30 2 1 2 3
M  V30 3 1 3 4
M  V30 4 1 4 5
M  V30 5 1 5 6
M  V30 6 1 6 7
M  V30 7 1 7 8
M  V30 8 1 8 9
M  V30 9 2 9 10
M  V30 10 1 10 11
M  V30 11 2 11 12
M  V30 12 1 12 13
M  V30 13 1 13 14
M  V30 14 2 14 15
M  V30 15 1 15 16
M  V30 16 2 16 17
M  V30 17 1 17 18
M  V30 18 2 18 19
M  V30 19 1 19 20
M  V30 20 2 20 21
M  V30 21 1 21 22
M  V30 22 2 22 23
M  V30 23 1 23 24
M  V30 24 1 24 25
M  V30 25 1 25 26
M  V30 26 1 26 27
M  V30 27 1 27 28
M  V30 28 1 28 29
M  V30 29 1 24 30
M  V30 30 2 30 31
M  V30 31 1 12 32
M  V30 32 2 32 33
M  V30 33 1 8 34
M  V30 34 1 34 35
M  V30 35 1 4 36
M  V30 36 1 36 2
M  V30 37 1 35 5
M  V30 38 1 33 9
M  V30 39 1 31 14
M  V30 40 1 30 17
M  V30 41 1 23 18
M  V30 42 1 29 25
M  V30 43 1 1 37
M  V30 44 1 2 38
M  V30 45 1 3 39
M  V30 46 1 3 40
M  V30 47 1 5 41
M  V30 48 1 6 42
M  V30 49 1 6 43
M  V30 50 1 7 44
M  V30 51 1 7 45
M  V30 52 1 10 46
M  V30 53 1 11 47
M  V30 54 1 13 48
M  V30 55 1 16 49
M  V30 56 1 19 50
M  V30 57 1 20 51
M  V30 58 1 22 52
M  V30 59 1 25 53
M  V30 60 1 26 54
M  V30 61 1 26 55
M  V30 62 1 27 56
M  V30 63 1 27 57
M  V30 64 1 28 58
M  V30 65 1 28 59
M  V30 66 1 29 60
M  V30 67 1 29 61
M  V30 68 1 34 62
M  V30 69 1 34 63
M  V30 70 1 35 64
M  V30 71 1 35 65
M  V30 72 1 36 66
M  V30 73 1 36 67
M  V30 END BOND
M  V30 END CTAB
M  END
>  <Dataset>  (626) 
ChEMBL_Kinases

>  <Ligand_Instance>  (626) 
nan

>  <PDB_ID>  (626) 
nan

>  <Standardized_SMILES>  (626) 
OC1CN(C2CCN(c3ccc(Nc4ncc5c6ccncc6n(C6CCCC6)c5n4)nn3)CC2)C1

>  <Name>  (626) 
nan

>  <Pocket>  (626) 
nan

>  <ATP_Site>  (626) 
nan

>  <Peripheral>  (626) 
nan

>  <Num_H_Atoms_ProtBoundConf>  (626) 
nan

>  <Num_Resolved_Atoms>  (626) 
nan

>  <Num_Not_Resolved_Atoms>  (626) 
nan

$$$$
CHEMBL3642005
     RDKit          3D

  0  0  0  0  0  0  0  0  0  0999 V3000
M  V30 BEGIN CTAB
M  V30 COUNTS 70 76 0 0 0
M  V30 BEGIN ATOM
M  V30 1 O 2.514422 -0.746208 6.750609 0
M  V30 2 C 2.701959 -0.338172 5.447137 0 CFG=2
M  V30 3 C 3.236242 -1.509368 4.625228 0
M  V30 4 C 4.630012 -1.036969 4.287162 0
M  V30 5 N 4.574127 0.385550 4.186618 0
M  V30 6 C 4.011323 0.855484 2.934946 0
M  V30 7 C 3.996979 2.361892 2.935534 0
M  V30 8 C 3.966601 2.958718 1.541916 0
M  V30 9 N 3.432769 1.924796 0.641885 0
M  V30 10 C 2.140102 1.920668 0.041074 0
M  V30 11 C 1.445940 0.832362 -0.419105 0
M  V30 12 C 0.206652 0.979399 -1.001723 0
M  V30 13 C -0.408253 2.205158 -1.158690 0
M  V30 14 N -1.684631 2.443999 -1.724589 0
M  V30 15 C -2.640499 1.496796 -2.173274 0
M  V30 16 N -3.713486 1.975315 -2.818767 0
M  V30 17 C -4.728984 1.228040 -3.276710 0
M  V30 18 C -4.655255 -0.111785 -3.064554 0
M  V30 19 C -5.521595 -1.160925 -3.382215 0
M  V30 20 C -6.730823 -1.128098 -4.032017 0
M  V30 21 C -7.348525 -2.349175 -4.181377 0
M  V30 22 N -6.788456 -3.501307 -3.712681 0
M  V30 23 C -5.595576 -3.447201 -3.083995 0
M  V30 24 C -4.885382 -2.291208 -2.876576 0
M  V30 25 N -3.715505 -1.993760 -2.291693 0
M  V30 26 C -2.786077 -2.883095 -1.673375 0
M  V30 27 C -3.072213 -3.177748 -0.221772 0
M  V30 28 C -3.177249 -4.667223 -0.061280 0
M  V30 29 C -2.860069 -5.288184 -1.381694 0
M  V30 30 C -2.545213 -4.185732 -2.368522 0
M  V30 31 C -3.566208 -0.630525 -2.405790 0
M  V30 32 N -2.585084 0.169820 -1.974366 0
M  V30 33 N 0.331481 3.222371 -0.684586 0
M  V30 34 N 1.516410 3.103093 -0.125067 0
M  V30 35 C 4.481235 0.945598 0.481329 0
M  V30 36 C 4.867905 0.394519 1.810580 0
M  V30 37 C 3.781031 0.715787 5.340400 0
M  V30 38 H 1.992600 -0.136524 7.296028 0
M  V30 39 H 1.735639 -0.016697 5.027391 0
M  V30 40 H 3.297947 -2.418921 5.277502 0
M  V30 41 H 2.597587 -1.725659 3.772245 0
M  V30 42 H 5.231501 -1.248196 5.225556 0
M  V30 43 H 5.137698 -1.581615 3.501636 0
M  V30 44 H 2.983856 0.493434 2.762215 0
M  V30 45 H 4.745284 2.840755 3.568457 0
M  V30 46 H 3.009620 2.640066 3.410285 0
M  V30 47 H 3.257779 3.804710 1.548370 0
M  V30 48 H 4.946288 3.340570 1.217413 0
M  V30 49 H 1.917409 -0.120304 -0.303253 0
M  V30 50 H -0.318478 0.102377 -1.357324 0
M  V30 51 H -1.932683 3.476098 -1.811978 0
M  V30 52 H -5.545426 1.697528 -3.783172 0
M  V30 53 H -7.122146 -0.184231 -4.379740 0
M  V30 54 H -8.309440 -2.390362 -4.687972 0
M  V30 55 H -5.235529 -4.380994 -2.740172 0
M  V30 56 H -1.797247 -2.318778 -1.655029 0
M  V30 57 H -4.040541 -2.722113 0.027215 0
M  V30 58 H -2.334721 -2.731836 0.480808 0
M  V30 59 H -4.187026 -4.949968 0.342060 0
M  V30 60 H -2.454216 -4.963858 0.739674 0
M  V30 61 H -1.999171 -5.991269 -1.225479 0
M  V30 62 H -3.679467 -5.913897 -1.793474 0
M  V30 63 H -3.009779 -4.290501 -3.347814 0
M  V30 64 H -1.433483 -4.313275 -2.578672 0
M  V30 65 H 4.136801 0.158469 -0.228666 0
M  V30 66 H 5.342904 1.510961 0.000205 0
M  V30 67 H 4.691721 -0.723917 1.737601 0
M  V30 68 H 5.956538 0.464004 2.017117 0
M  V30 69 H 4.453396 0.550132 6.225306 0
M  V30 70 H 3.420450 1.736809 5.404166 0
M  V30 END ATOM
M  V30 BEGIN BOND
M  V30 1 1 1 2
M  V30 2 1 2 3
M  V30 3 1 3 4
M  V30 4 1 4 5
M  V30 5 1 5 6
M  V30 6 1 6 7
M  V30 7 1 7 8
M  V30 8 1 8 9
M  V30 9 1 9 10
M  V30 10 2 10 11
M  V30 11 1 11 12
M  V30 12 2 12 13
M  V30 13 1 13 14
M  V30 14 1 14 15
M  V30 15 2 15 16
M  V30 16 1 16 17
M  V30 17 2 17 18
M  V30 18 1 18 19
M  V30 19 2 19 20
M  V30 20 1 20 21
M  V30 21 2 21 22
M  V30 22 1 22 23
M  V30 23 2 23 24
M  V30 24 1 24 25
M  V30 25 1 25 26
M  V30 26 1 26 27
M  V30 27 1 27 28
M  V30 28 1 28 29
M  V30 29 1 29 30
M  V30 30 1 25 31
M  V30 31 2 31 32
M  V30 32 1 13 33
M  V30 33 2 33 34
M  V30 34 1 9 35
M  V30 35 1 35 36
M  V30 36 1 5 37
M  V30 37 1 37 2
M  V30 38 1 36 6
M  V30 39 1 34 10
M  V30 40 1 32 15
M  V30 41 1 31 18
M  V30 42 1 24 19
M  V30 43 1 30 26
M  V30 44 1 1 38
M  V30 45 1 2 39 CFG=3
M  V30 46 1 3 40
M  V30 47 1 3 41
M  V30 48 1 4 42
M  V30 49 1 4 43
M  V30 50 1 6 44
M  V30 51 1 7 45
M  V30 52 1 7 46
M  V30 53 1 8 47
M  V30 54 1 8 48
M  V30 55 1 11 49
M  V30 56 1 12 50
M  V30 57 1 14 51
M  V30 58 1 17 52
M  V30 59 1 20 53
M  V30 60 1 21 54
M  V30 61 1 23 55
M  V30 62 1 26 56
M  V30 63 1 27 57
M  V30 64 1 27 58
M  V30 65 1 28 59
M  V30 66 1 28 60
M  V30 67 1 29 61
M  V30 68 1 29 62
M  V30 69 1 30 63
M  V30 70 1 30 64
M  V30 71 1 35 65
M  V30 72 1 35 66
M  V30 73 1 36 67
M  V30 74 1 36 68
M  V30 75 1 37 69
M  V30 76 1 37 70
M  V30 END BOND
M  V30 END CTAB
M  END
>  <Dataset>  (627) 
ChEMBL_Kinases

>  <Ligand_Instance>  (627) 
nan

>  <PDB_ID>  (627) 
nan

>  <Standardized_SMILES>  (627) 
O[C@@H]1CCN(C2CCN(c3ccc(Nc4ncc5c6ccncc6n(C6CCCC6)c5n4)nn3)CC2)C1

>  <Name>  (627) 
nan

>  <Pocket>  (627) 
nan

>  <ATP_Site>  (627) 
nan

>  <Peripheral>  (627) 
nan

>  <Num_H_Atoms_ProtBoundConf>  (627) 
nan

>  <Num_Resolved_Atoms>  (627) 
nan

>  <Num_Not_Resolved_Atoms>  (627) 
nan

$$$$
CHEMBL3642006
     RDKit          3D

  0  0  0  0  0  0  0  0  0  0999 V3000
M  V30 BEGIN CTAB
M  V30 COUNTS 70 76 0 0 0
M  V30 BEGIN ATOM
M  V30 1 O 2.207551 1.990290 5.706860 0
M  V30 2 C 3.203695 1.124303 6.074104 0 CFG=1
M  V30 3 C 3.023083 -0.286072 5.554221 0
M  V30 4 C 4.432441 -0.636124 5.072274 0
M  V30 5 N 4.925999 0.604616 4.504687 0
M  V30 6 C 4.231665 0.895950 3.283047 0
M  V30 7 C 4.681710 2.130410 2.595860 0
M  V30 8 C 4.128241 2.380347 1.239917 0
M  V30 9 N 3.367001 1.228054 0.747217 0
M  V30 10 C 2.054915 1.330760 0.213305 0
M  V30 11 C 1.244235 0.306085 -0.223311 0
M  V30 12 C -0.005527 0.615616 -0.712055 0
M  V30 13 C -0.500171 1.897830 -0.792037 0
M  V30 14 N -1.776356 2.264229 -1.279850 0
M  V30 15 C -2.809501 1.428667 -1.775708 0
M  V30 16 N -3.960253 1.978608 -2.196211 0
M  V30 17 C -4.993432 1.279879 -2.675811 0
M  V30 18 C -4.906293 -0.091821 -2.758171 0
M  V30 19 C -5.739986 -1.107241 -3.183990 0
M  V30 20 C -7.019309 -1.019488 -3.695066 0
M  V30 21 C -7.649835 -2.206261 -4.050774 0
M  V30 22 N -6.979773 -3.360861 -3.876685 0
M  V30 23 C -5.752423 -3.403697 -3.382788 0
M  V30 24 C -5.033123 -2.289901 -2.997505 0
M  V30 25 N -3.816735 -2.018977 -2.480697 0
M  V30 26 C -2.841916 -3.016958 -2.171026 0
M  V30 27 C -3.203363 -3.867040 -0.980348 0
M  V30 28 C -2.725573 -5.253675 -1.278850 0
M  V30 29 C -2.320542 -5.309652 -2.736549 0
M  V30 30 C -2.445007 -3.910939 -3.294470 0
M  V30 31 C -3.730578 -0.663041 -2.329803 0
M  V30 32 N -2.737165 0.095962 -1.860906 0
M  V30 33 N 0.349039 2.833649 -0.348204 0
M  V30 34 N 1.551704 2.580677 0.126463 0
M  V30 35 C 4.162139 0.039185 0.901362 0
M  V30 36 C 4.291907 -0.281772 2.364365 0
M  V30 37 C 4.578712 1.518341 5.578681 0
M  V30 38 H 1.411170 1.502117 5.416722 0
M  V30 39 H 3.167783 1.057276 7.193663 0
M  V30 40 H 2.729907 -1.004043 6.355004 0
M  V30 41 H 2.303368 -0.372114 4.729869 0
M  V30 42 H 5.010168 -0.790091 6.019229 0
M  V30 43 H 4.455714 -1.498530 4.416805 0
M  V30 44 H 3.138303 1.038392 3.529074 0
M  V30 45 H 5.783216 2.251667 2.547616 0
M  V30 46 H 4.358851 2.984799 3.262746 0
M  V30 47 H 3.389489 3.202333 1.288374 0
M  V30 48 H 4.898710 2.698152 0.496402 0
M  V30 49 H 1.649138 -0.672815 -0.150794 0
M  V30 50 H -0.593827 -0.208910 -1.037010 0
M  V30 51 H -1.979309 3.307829 -1.270026 0
M  V30 52 H -5.901287 1.755633 -3.004753 0
M  V30 53 H -7.509537 -0.061056 -3.812002 0
M  V30 54 H -8.650147 -2.094095 -4.445985 0
M  V30 55 H -5.267929 -4.383245 -3.268378 0
M  V30 56 H -1.904578 -2.465209 -1.863840 0
M  V30 57 H -4.298940 -3.833620 -0.742329 0
M  V30 58 H -2.708783 -3.526653 -0.044542 0
M  V30 59 H -3.536484 -5.965896 -1.021556 0
M  V30 60 H -1.853815 -5.574499 -0.677392 0
M  V30 61 H -1.350701 -5.776748 -2.900612 0
M  V30 62 H -3.082151 -5.935896 -3.257863 0
M  V30 63 H -3.112438 -3.817367 -4.157862 0
M  V30 64 H -1.418931 -3.668873 -3.699453 0
M  V30 65 H 3.683144 -0.849100 0.427679 0
M  V30 66 H 5.174003 0.215228 0.495580 0
M  V30 67 H 3.568503 -1.083333 2.670848 0
M  V30 68 H 5.294189 -0.770662 2.512510 0
M  V30 69 H 5.288532 1.325056 6.408886 0
M  V30 70 H 4.659262 2.580014 5.320348 0
M  V30 END ATOM
M  V30 BEGIN BOND
M  V30 1 1 1 2
M  V30 2 1 2 3
M  V30 3 1 3 4
M  V30 4 1 4 5
M  V30 5 1 5 6
M  V30 6 1 6 7
M  V30 7 1 7 8
M  V30 8 1 8 9
M  V30 9 1 9 10
M  V30 10 2 10 11
M  V30 11 1 11 12
M  V30 12 2 12 13
M  V30 13 1 13 14
M  V30 14 1 14 15
M  V30 15 2 15 16
M  V30 16 1 16 17
M  V30 17 2 17 18
M  V30 18 1 18 19
M  V30 19 2 19 20
M  V30 20 1 20 21
M  V30 21 2 21 22
M  V30 22 1 22 23
M  V30 23 2 23 24
M  V30 24 1 24 25
M  V30 25 1 25 26
M  V30 26 1 26 27
M  V30 27 1 27 28
M  V30 28 1 28 29
M  V30 29 1 29 30
M  V30 30 1 25 31
M  V30 31 2 31 32
M  V30 32 1 13 33
M  V30 33 2 33 34
M  V30 34 1 9 35
M  V30 35 1 35 36
M  V30 36 1 5 37
M  V30 37 1 37 2
M  V30 38 1 36 6
M  V30 39 1 34 10
M  V30 40 1 32 15
M  V30 41 1 31 18
M  V30 42 1 24 19
M  V30 43 1 30 26
M  V30 44 1 1 38
M  V30 45 1 2 39 CFG=1
M  V30 46 1 3 40
M  V30 47 1 3 41
M  V30 48 1 4 42
M  V30 49 1 4 43
M  V30 50 1 6 44
M  V30 51 1 7 45
M  V30 52 1 7 46
M  V30 53 1 8 47
M  V30 54 1 8 48
M  V30 55 1 11 49
M  V30 56 1 12 50
M  V30 57 1 14 51
M  V30 58 1 17 52
M  V30 59 1 20 53
M  V30 60 1 21 54
M  V30 61 1 23 55
M  V30 62 1 26 56
M  V30 63 1 27 57
M  V30 64 1 27 58
M  V30 65 1 28 59
M  V30 66 1 28 60
M  V30 67 1 29 61
M  V30 68 1 29 62
M  V30 69 1 30 63
M  V30 70 1 30 64
M  V30 71 1 35 65
M  V30 72 1 35 66
M  V30 73 1 36 67
M  V30 74 1 36 68
M  V30 75 1 37 69
M  V30 76 1 37 70
M  V30 END BOND
M  V30 END CTAB
M  END
>  <Dataset>  (628) 
ChEMBL_Kinases

>  <Ligand_Instance>  (628) 
nan

>  <PDB_ID>  (628) 
nan

>  <Standardized_SMILES>  (628) 
O[C@H]1CCN(C2CCN(c3ccc(Nc4ncc5c6ccncc6n(C6CCCC6)c5n4)nn3)CC2)C1

>  <Name>  (628) 
nan

>  <Pocket>  (628) 
nan

>  <ATP_Site>  (628) 
nan

>  <Peripheral>  (628) 
nan

>  <Num_H_Atoms_ProtBoundConf>  (628) 
nan

>  <Num_Resolved_Atoms>  (628) 
nan

>  <Num_Not_Resolved_Atoms>  (628) 
nan

$$$$
CHEMBL3642007
     RDKit          3D

  0  0  0  0  0  0  0  0  0  0999 V3000
M  V30 BEGIN CTAB
M  V30 COUNTS 73 79 0 0 0
M  V30 BEGIN ATOM
M  V30 1 O 8.438094 0.568739 1.255892 0
M  V30 2 C 7.099841 0.630301 1.659367 0 CFG=2
M  V30 3 C 6.842846 -0.493197 2.614942 0
M  V30 4 C 5.385316 -0.614113 2.912240 0
M  V30 5 C 4.586836 0.447387 2.162080 0
M  V30 6 N 4.851002 0.245009 0.759896 0
M  V30 7 C 3.869797 0.785355 -0.106784 0
M  V30 8 C 3.630102 2.246239 -0.051186 0
M  V30 9 C 2.925813 2.706838 -1.311251 0
M  V30 10 N 2.149188 1.543455 -1.762766 0
M  V30 11 C 0.755350 1.348379 -1.550889 0
M  V30 12 C -0.053841 0.299490 -1.938685 0
M  V30 13 C -1.398957 0.323040 -1.618342 0
M  V30 14 C -1.958498 1.372430 -0.917402 0
M  V30 15 N -3.342493 1.388615 -0.592558 0
M  V30 16 C -4.138646 0.293101 -1.008495 0
M  V30 17 N -4.797835 0.201658 -2.195477 0
M  V30 18 C -5.534363 -0.885455 -2.502983 0
M  V30 19 C -5.609613 -1.919012 -1.580193 0
M  V30 20 C -6.255500 -3.122712 -1.590664 0
M  V30 21 C -7.073150 -3.771504 -2.508447 0
M  V30 22 C -7.549192 -5.018808 -2.143182 0
M  V30 23 N -7.239962 -5.584864 -0.956476 0
M  V30 24 C -6.446193 -4.967420 -0.052448 0
M  V30 25 C -5.960212 -3.731195 -0.387214 0
M  V30 26 N -5.147918 -2.923826 0.356727 0
M  V30 27 C -4.605074 -3.173960 1.669962 0
M  V30 28 C -5.073739 -2.212414 2.712642 0
M  V30 29 C -3.830739 -1.692804 3.386495 0
M  V30 30 C -2.656180 -2.090513 2.533716 0
M  V30 31 C -3.111734 -3.233854 1.689531 0
M  V30 32 C -4.924883 -1.805517 -0.366223 0
M  V30 33 N -4.199887 -0.698704 -0.101555 0
M  V30 34 N -1.113697 2.361514 -0.570318 0
M  V30 35 N 0.176957 2.361278 -0.865522 0
M  V30 36 C 3.048459 0.616499 -2.467910 0
M  V30 37 C 4.173965 0.263582 -1.519593 0
M  V30 38 C 6.222458 0.478325 0.426356 0
M  V30 39 H 8.936933 -0.091335 1.785084 0
M  V30 40 H 6.957704 1.583570 2.191063 0
M  V30 41 H 7.376358 -0.287938 3.575274 0
M  V30 42 H 7.281385 -1.449812 2.248239 0
M  V30 43 H 5.177566 -0.501950 3.994935 0
M  V30 44 H 5.042228 -1.629525 2.630878 0
M  V30 45 H 4.940522 1.437444 2.450260 0
M  V30 46 H 3.524408 0.255206 2.406911 0
M  V30 47 H 2.904914 0.252710 0.152107 0
M  V30 48 H 2.914862 2.482423 0.781737 0
M  V30 49 H 4.522207 2.856541 0.173829 0
M  V30 50 H 3.600721 3.069142 -2.096836 0
M  V30 51 H 2.233426 3.557270 -1.099709 0
M  V30 52 H 0.472540 -0.466504 -2.477659 0
M  V30 53 H -1.990537 -0.520961 -1.944049 0
M  V30 54 H -3.697095 2.212372 -0.061907 0
M  V30 55 H -6.045635 -0.949674 -3.430204 0
M  V30 56 H -7.309441 -3.301569 -3.453114 0
M  V30 57 H -8.196397 -5.565923 -2.835357 0
M  V30 58 H -6.199606 -5.426518 0.901528 0
M  V30 59 H -4.959336 -4.199394 1.978048 0
M  V30 60 H -5.723578 -1.399565 2.309499 0
M  V30 61 H -5.684898 -2.716014 3.512903 0
M  V30 62 H -3.676831 -2.107828 4.403108 0
M  V30 63 H -3.931599 -0.578235 3.403855 0
M  V30 64 H -2.342919 -1.208202 1.930142 0
M  V30 65 H -1.816315 -2.454773 3.170817 0
M  V30 66 H -2.776988 -3.132901 0.621073 0
M  V30 67 H -2.705601 -4.210537 2.022433 0
M  V30 68 H 3.495551 1.060002 -3.366259 0
M  V30 69 H 2.475200 -0.280566 -2.738945 0
M  V30 70 H 5.140394 0.663409 -1.850717 0
M  V30 71 H 4.210621 -0.841441 -1.417158 0
M  V30 72 H 6.580232 -0.444278 -0.088028 0
M  V30 73 H 6.376020 1.288366 -0.293935 0
M  V30 END ATOM
M  V30 BEGIN BOND
M  V30 1 1 1 2
M  V30 2 1 2 3
M  V30 3 1 3 4
M  V30 4 1 4 5
M  V30 5 1 5 6
M  V30 6 1 6 7
M  V30 7 1 7 8
M  V30 8 1 8 9
M  V30 9 1 9 10
M  V30 10 1 10 11
M  V30 11 2 11 12
M  V30 12 1 12 13
M  V30 13 2 13 14
M  V30 14 1 14 15
M  V30 15 1 15 16
M  V30 16 2 16 17
M  V30 17 1 17 18
M  V30 18 2 18 19
M  V30 19 1 19 20
M  V30 20 2 20 21
M  V30 21 1 21 22
M  V30 22 2 22 23
M  V30 23 1 23 24
M  V30 24 2 24 25
M  V30 25 1 25 26
M  V30 26 1 26 27
M  V30 27 1 27 28
M  V30 28 1 28 29
M  V30 29 1 29 30
M  V30 30 1 30 31
M  V30 31 1 26 32
M  V30 32 2 32 33
M  V30 33 1 14 34
M  V30 34 2 34 35
M  V30 35 1 10 36
M  V30 36 1 36 37
M  V30 37 1 6 38
M  V30 38 1 38 2
M  V30 39 1 37 7
M  V30 40 1 35 11
M  V30 41 1 33 16
M  V30 42 1 32 19
M  V30 43 1 25 20
M  V30 44 1 31 27
M  V30 45 1 1 39
M  V30 46 1 2 40 CFG=1
M  V30 47 1 3 41
M  V30 48 1 3 42
M  V30 49 1 4 43
M  V30 50 1 4 44
M  V30 51 1 5 45
M  V30 52 1 5 46
M  V30 53 1 7 47
M  V30 54 1 8 48
M  V30 55 1 8 49
M  V30 56 1 9 50
M  V30 57 1 9 51
M  V30 58 1 12 52
M  V30 59 1 13 53
M  V30 60 1 15 54
M  V30 61 1 18 55
M  V30 62 1 21 56
M  V30 63 1 22 57
M  V30 64 1 24 58
M  V30 65 1 27 59
M  V30 66 1 28 60
M  V30 67 1 28 61
M  V30 68 1 29 62
M  V30 69 1 29 63
M  V30 70 1 30 64
M  V30 71 1 30 65
M  V30 72 1 31 66
M  V30 73 1 31 67
M  V30 74 1 36 68
M  V30 75 1 36 69
M  V30 76 1 37 70
M  V30 77 1 37 71
M  V30 78 1 38 72
M  V30 79 1 38 73
M  V30 END BOND
M  V30 END CTAB
M  END
>  <Dataset>  (629) 
ChEMBL_Kinases

>  <Ligand_Instance>  (629) 
nan

>  <PDB_ID>  (629) 
nan

>  <Standardized_SMILES>  (629) 
O[C@@H]1CCCN(C2CCN(c3ccc(Nc4ncc5c6ccncc6n(C6CCCC6)c5n4)nn3)CC2)C1

>  <Name>  (629) 
nan

>  <Pocket>  (629) 
nan

>  <ATP_Site>  (629) 
nan

>  <Peripheral>  (629) 
nan

>  <Num_H_Atoms_ProtBoundConf>  (629) 
nan

>  <Num_Resolved_Atoms>  (629) 
nan

>  <Num_Not_Resolved_Atoms>  (629) 
nan

$$$$
CHEMBL3641999
     RDKit          3D

  0  0  0  0  0  0  0  0  0  0999 V3000
M  V30 BEGIN CTAB
M  V30 COUNTS 73 78 0 0 0
M  V30 BEGIN ATOM
M  V30 1 C 3.199063 -0.671775 3.116087 0
M  V30 2 N 4.415921 0.051545 2.740443 0
M  V30 3 C 5.325734 -0.941795 2.164726 0
M  V30 4 C 4.769276 -1.448272 0.822752 0
M  V30 5 N 5.709107 -2.401839 0.339671 0
M  V30 6 C 5.675236 -3.564217 1.210897 0
M  V30 7 C 5.542768 -2.799146 -1.043408 0
M  V30 8 C 4.222428 -3.434773 -1.347849 0
M  V30 9 C 3.629549 -2.751848 -2.561439 0
M  V30 10 N 3.567368 -1.336621 -2.246640 0
M  V30 11 C 2.437819 -0.587301 -1.817805 0
M  V30 12 C 2.386322 0.750004 -1.541812 0
M  V30 13 C 1.188748 1.295451 -1.125746 0
M  V30 14 C 0.069885 0.490080 -0.995488 0
M  V30 15 N -1.176667 1.017018 -0.566464 0
M  V30 16 C -2.309275 0.165756 -0.440668 0
M  V30 17 N -2.184861 -1.139315 -0.740587 0
M  V30 18 C -3.259698 -1.953585 -0.620312 0
M  V30 19 C -4.426058 -1.394808 -0.194739 0
M  V30 20 C -5.664432 -1.967727 0.019335 0
M  V30 21 C -6.109128 -3.271795 -0.128621 0
M  V30 22 C -7.409155 -3.613603 0.149037 0
M  V30 23 N -8.232580 -2.629771 0.570365 0
M  V30 24 C -7.816751 -1.351059 0.720611 0
M  V30 25 C -6.511965 -0.970076 0.449876 0
M  V30 26 N -5.843511 0.219984 0.514472 0
M  V30 27 C -6.422120 1.483036 0.925112 0
M  V30 28 C -6.326507 1.711600 2.414578 0
M  V30 29 C -4.949420 2.350511 2.546449 0
M  V30 30 C -4.832800 3.229834 1.294523 0
M  V30 31 C -5.819364 2.689254 0.326907 0
M  V30 32 C -4.589921 -0.062384 0.121579 0
M  V30 33 N -3.490061 0.682874 -0.019731 0
M  V30 34 N 0.173806 -0.831178 -1.282264 0
M  V30 35 N 1.327475 -1.338860 -1.679550 0
M  V30 36 C 4.920143 -0.783583 -2.442623 0
M  V30 37 C 5.963810 -1.759341 -2.024415 0
M  V30 38 H 2.805800 -0.315971 4.083192 0
M  V30 39 H 3.339981 -1.768848 3.092428 0
M  V30 40 H 2.432005 -0.434404 2.341522 0
M  V30 41 H 4.876559 0.321860 3.650325 0
M  V30 42 H 6.320653 -0.494061 2.000501 0
M  V30 43 H 5.376420 -1.764562 2.909464 0
M  V30 44 H 3.738375 -1.828276 0.986762 0
M  V30 45 H 4.715904 -0.556722 0.178386 0
M  V30 46 H 4.736294 -3.592746 1.815716 0
M  V30 47 H 5.666016 -4.481865 0.585520 0
M  V30 48 H 6.561913 -3.571268 1.891010 0
M  V30 49 H 6.303849 -3.640169 -1.166436 0
M  V30 50 H 4.284555 -4.536793 -1.491024 0
M  V30 51 H 3.542938 -3.215159 -0.471915 0
M  V30 52 H 4.275913 -2.963383 -3.442436 0
M  V30 53 H 2.599035 -3.155163 -2.773441 0
M  V30 54 H 3.306349 1.294898 -1.672194 0
M  V30 55 H 1.150547 2.361040 -0.906765 0
M  V30 56 H -1.244401 2.037484 -0.345280 0
M  V30 57 H -3.210065 -3.008390 -0.848990 0
M  V30 58 H -5.405049 -4.034228 -0.473031 0
M  V30 59 H -7.797926 -4.627810 0.045568 0
M  V30 60 H -8.544878 -0.605224 1.067721 0
M  V30 61 H -7.492537 1.425184 0.597596 0
M  V30 62 H -6.400318 0.777908 3.008556 0
M  V30 63 H -7.087619 2.472955 2.671565 0
M  V30 64 H -4.863935 2.961804 3.465707 0
M  V30 65 H -4.205342 1.544774 2.545760 0
M  V30 66 H -5.086250 4.279273 1.632692 0
M  V30 67 H -3.786736 3.270138 0.959221 0
M  V30 68 H -5.416941 2.547840 -0.698144 0
M  V30 69 H -6.639151 3.456590 0.184883 0
M  V30 70 H 5.035921 0.223247 -2.047782 0
M  V30 71 H 4.983219 -0.663516 -3.564730 0
M  V30 72 H 6.777093 -1.166439 -1.540134 0
M  V30 73 H 6.442361 -2.187894 -2.935928 0
M  V30 END ATOM
M  V30 BEGIN BOND
M  V30 1 1 1 2
M  V30 2 1 2 3
M  V30 3 1 3 4
M  V30 4 1 4 5
M  V30 5 1 5 6
M  V30 6 1 5 7
M  V30 7 1 7 8
M  V30 8 1 8 9
M  V30 9 1 9 10
M  V30 10 1 10 11
M  V30 11 2 11 12
M  V30 12 1 12 13
M  V30 13 2 13 14
M  V30 14 1 14 15
M  V30 15 1 15 16
M  V30 16 2 16 17
M  V30 17 1 17 18
M  V30 18 2 18 19
M  V30 19 1 19 20
M  V30 20 2 20 21
M  V30 21 1 21 22
M  V30 22 2 22 23
M  V30 23 1 23 24
M  V30 24 2 24 25
M  V30 25 1 25 26
M  V30 26 1 26 27
M  V30 27 1 27 28
M  V30 28 1 28 29
M  V30 29 1 29 30
M  V30 30 1 30 31
M  V30 31 1 26 32
M  V30 32 2 32 33
M  V30 33 1 14 34
M  V30 34 2 34 35
M  V30 35 1 10 36
M  V30 36 1 36 37
M  V30 37 1 37 7
M  V30 38 1 35 11
M  V30 39 1 33 16
M  V30 40 1 32 19
M  V30 41 1 25 20
M  V30 42 1 31 27
M  V30 43 1 1 38
M  V30 44 1 1 39
M  V30 45 1 1 40
M  V30 46 1 2 41
M  V30 47 1 3 42
M  V30 48 1 3 43
M  V30 49 1 4 44
M  V30 50 1 4 45
M  V30 51 1 6 46
M  V30 52 1 6 47
M  V30 53 1 6 48
M  V30 54 1 7 49
M  V30 55 1 8 50
M  V30 56 1 8 51
M  V30 57 1 9 52
M  V30 58 1 9 53
M  V30 59 1 12 54
M  V30 60 1 13 55
M  V30 61 1 15 56
M  V30 62 1 18 57
M  V30 63 1 21 58
M  V30 64 1 22 59
M  V30 65 1 24 60
M  V30 66 1 27 61
M  V30 67 1 28 62
M  V30 68 1 28 63
M  V30 69 1 29 64
M  V30 70 1 29 65
M  V30 71 1 30 66
M  V30 72 1 30 67
M  V30 73 1 31 68
M  V30 74 1 31 69
M  V30 75 1 36 70
M  V30 76 1 36 71
M  V30 77 1 37 72
M  V30 78 1 37 73
M  V30 END BOND
M  V30 END CTAB
M  END
>  <Dataset>  (630) 
ChEMBL_Kinases

>  <Ligand_Instance>  (630) 
nan

>  <PDB_ID>  (630) 
nan

>  <Standardized_SMILES>  (630) 
CNCCN(C)C1CCN(c2ccc(Nc3ncc4c5ccncc5n(C5CCCC5)c4n3)nn2)CC1

>  <Name>  (630) 
nan

>  <Pocket>  (630) 
nan

>  <ATP_Site>  (630) 
nan

>  <Peripheral>  (630) 
nan

>  <Num_H_Atoms_ProtBoundConf>  (630) 
nan

>  <Num_Resolved_Atoms>  (630) 
nan

>  <Num_Not_Resolved_Atoms>  (630) 
nan

$$$$
CHEMBL3654677
     RDKit          3D

  0  0  0  0  0  0  0  0  0  0999 V3000
M  V30 BEGIN CTAB
M  V30 COUNTS 45 48 0 0 0
M  V30 BEGIN ATOM
M  V30 1 C -1.597702 -6.279783 1.744882 0
M  V30 2 C -1.077218 -6.043385 0.353069 0
M  V30 3 C -0.782971 -4.749606 -0.031937 0
M  V30 4 C -0.299255 -4.489299 -1.311371 0
M  V30 5 C 0.017616 -3.123635 -1.735481 0
M  V30 6 N -0.309540 -2.531591 -2.911514 0
M  V30 7 N 0.163831 -1.276075 -2.912614 0
M  V30 8 C 0.801917 -1.009996 -1.764271 0
M  V30 9 C 1.448135 0.134914 -1.307048 0
M  V30 10 C 2.024592 0.084377 -0.035111 0
M  V30 11 N 2.711558 1.230653 0.508016 0
M  V30 12 C 1.909205 2.133223 1.252589 0
M  V30 13 O 0.695699 2.054619 1.490533 0
M  V30 14 N 2.594897 3.266591 1.788085 0
M  V30 15 C 2.092732 4.372275 2.586775 0
M  V30 16 C 0.626814 4.239663 2.850976 0
M  V30 17 C -0.403690 4.731941 2.077800 0
M  V30 18 C -1.708766 4.520122 2.466601 0
M  V30 19 C -2.062717 3.834180 3.601392 0
M  V30 20 Cl -3.742262 3.597526 4.042901 0
M  V30 21 C -1.043930 3.324675 4.403161 0
M  V30 22 C 0.260379 3.540988 4.007021 0
M  V30 23 N 1.933659 -1.055803 0.689837 0
M  V30 24 C 1.300683 -2.150917 0.220756 0
M  V30 25 C 0.712422 -2.158883 -1.029231 0
M  V30 26 C -0.133104 -5.569206 -2.155865 0
M  V30 27 C -0.435192 -6.873284 -1.752217 0
M  V30 28 N -0.903299 -7.070016 -0.494958 0
M  V30 29 H -1.525569 -7.337884 2.021198 0
M  V30 30 H -1.051326 -5.624094 2.449378 0
M  V30 31 H -2.668151 -5.973246 1.727909 0
M  V30 32 H -0.937836 -3.974213 0.675101 0
M  V30 33 H 0.024797 -0.626284 -3.733396 0
M  V30 34 H 1.505278 1.031170 -1.907516 0
M  V30 35 H 3.736199 1.300268 0.309106 0
M  V30 36 H 3.632658 3.444420 1.652664 0
M  V30 37 H 2.629466 4.415933 3.559608 0
M  V30 38 H 2.315622 5.341251 2.085851 0
M  V30 39 H -0.092864 5.267392 1.190858 0
M  V30 40 H -2.476391 4.929497 1.820771 0
M  V30 41 H -1.281455 2.784043 5.296230 0
M  V30 42 H 1.017446 3.116221 4.678410 0
M  V30 43 H 1.261919 -3.029997 0.846611 0
M  V30 44 H 0.237063 -5.420435 -3.152427 0
M  V30 45 H -0.292516 -7.701315 -2.442989 0
M  V30 END ATOM
M  V30 BEGIN BOND
M  V30 1 1 1 2
M  V30 2 2 2 3
M  V30 3 1 3 4
M  V30 4 1 4 5
M  V30 5 2 5 6
M  V30 6 1 6 7
M  V30 7 1 7 8
M  V30 8 2 8 9
M  V30 9 1 9 10
M  V30 10 1 10 11
M  V30 11 1 11 12
M  V30 12 2 12 13
M  V30 13 1 12 14
M  V30 14 1 14 15
M  V30 15 1 15 16
M  V30 16 2 16 17
M  V30 17 1 17 18
M  V30 18 2 18 19
M  V30 19 1 19 20
M  V30 20 1 19 21
M  V30 21 2 21 22
M  V30 22 2 10 23
M  V30 23 1 23 24
M  V30 24 2 24 25
M  V30 25 2 4 26
M  V30 26 1 26 27
M  V30 27 2 27 28
M  V30 28 1 28 2
M  V30 29 1 25 5
M  V30 30 1 25 8
M  V30 31 1 22 16
M  V30 32 1 1 29
M  V30 33 1 1 30
M  V30 34 1 1 31
M  V30 35 1 3 32
M  V30 36 1 7 33
M  V30 37 1 9 34
M  V30 38 1 11 35
M  V30 39 1 14 36
M  V30 40 1 15 37
M  V30 41 1 15 38
M  V30 42 1 17 39
M  V30 43 1 18 40
M  V30 44 1 21 41
M  V30 45 1 22 42
M  V30 46 1 24 43
M  V30 47 1 26 44
M  V30 48 1 27 45
M  V30 END BOND
M  V30 END CTAB
M  END
>  <Dataset>  (631) 
ChEMBL_Kinases

>  <Ligand_Instance>  (631) 
nan

>  <PDB_ID>  (631) 
nan

>  <Standardized_SMILES>  (631) 
Cc1cc(-c2n[nH]c3cc(NC(=O)NCc4ccc(Cl)cc4)ncc23)ccn1

>  <Name>  (631) 
nan

>  <Pocket>  (631) 
nan

>  <ATP_Site>  (631) 
nan

>  <Peripheral>  (631) 
nan

>  <Num_H_Atoms_ProtBoundConf>  (631) 
nan

>  <Num_Resolved_Atoms>  (631) 
nan

>  <Num_Not_Resolved_Atoms>  (631) 
nan

$$$$
CHEMBL405665
     RDKit          3D

  0  0  0  0  0  0  0  0  0  0999 V3000
M  V30 BEGIN CTAB
M  V30 COUNTS 25 27 0 0 0
M  V30 BEGIN ATOM
M  V30 1 N 0.595032 -2.332217 4.956298 0
M  V30 2 C 0.610847 -2.388932 3.527796 0
M  V30 3 N 0.746923 -3.540994 2.859178 0
M  V30 4 C 0.757921 -3.558972 1.492825 0
M  V30 5 C 0.620036 -2.320257 0.914662 0
M  V30 6 C 0.476976 -1.107222 1.516848 0
M  V30 7 C 0.342091 0.214227 0.968200 0
M  V30 8 C 0.343087 1.328258 1.809174 0
M  V30 9 N 0.197615 2.444577 1.077901 0
M  V30 10 C 0.095122 2.163643 -0.227738 0
M  V30 11 N -0.063628 2.854003 -1.369002 0
M  V30 12 C -0.143119 2.282599 -2.587109 0
M  V30 13 C -0.052536 0.903917 -2.628490 0
M  V30 14 C 0.110095 0.180349 -1.472714 0
M  V30 15 C 0.186470 0.805443 -0.255344 0
M  V30 16 N 0.484035 -1.242648 2.851811 0
M  V30 17 H 1.299596 -2.291936 5.728671 0
M  V30 18 H -0.397539 -2.331699 5.304940 0
M  V30 19 H 0.864510 -4.456454 0.905322 0
M  V30 20 H 0.641852 -2.357124 -0.151956 0
M  V30 21 H 0.436669 1.435632 2.892663 0
M  V30 22 H 0.160832 3.442312 1.420230 0
M  V30 23 H -0.272737 2.891373 -3.488492 0
M  V30 24 H -0.117389 0.450926 -3.610020 0
M  V30 25 H 0.162688 -0.873440 -1.605694 0
M  V30 END ATOM
M  V30 BEGIN BOND
M  V30 1 1 1 2
M  V30 2 2 2 3
M  V30 3 1 3 4
M  V30 4 2 4 5
M  V30 5 1 5 6
M  V30 6 1 6 7
M  V30 7 2 7 8
M  V30 8 1 8 9
M  V30 9 1 9 10
M  V30 10 2 10 11
M  V30 11 1 11 12
M  V30 12 2 12 13
M  V30 13 1 13 14
M  V30 14 2 14 15
M  V30 15 2 6 16
M  V30 16 1 16 2
M  V30 17 1 15 7
M  V30 18 1 15 10
M  V30 19 1 1 17
M  V30 20 1 1 18
M  V30 21 1 4 19
M  V30 22 1 5 20
M  V30 23 1 8 21
M  V30 24 1 9 22
M  V30 25 1 12 23
M  V30 26 1 13 24
M  V30 27 1 14 25
M  V30 END BOND
M  V30 END CTAB
M  END
>  <Dataset>  (632) 
ChEMBL_Kinases

>  <Ligand_Instance>  (632) 
nan

>  <PDB_ID>  (632) 
nan

>  <Standardized_SMILES>  (632) 
Nc1nccc(-c2c[nH]c3ncccc23)n1

>  <Name>  (632) 
MERIOLIN 1

>  <Pocket>  (632) 
nan

>  <ATP_Site>  (632) 
nan

>  <Peripheral>  (632) 
nan

>  <Num_H_Atoms_ProtBoundConf>  (632) 
nan

>  <Num_Resolved_Atoms>  (632) 
nan

>  <Num_Not_Resolved_Atoms>  (632) 
nan

$$$$
CHEMBL3654675
     RDKit          3D

  0  0  0  0  0  0  0  0  0  0999 V3000
M  V30 BEGIN CTAB
M  V30 COUNTS 36 38 0 0 0
M  V30 BEGIN ATOM
M  V30 1 C 2.424613 -3.534538 1.068156 0
M  V30 2 C 1.132314 -2.748556 1.077384 0 CFG=1
M  V30 3 N 1.077313 -1.758965 0.032100 0
M  V30 4 C 0.897336 -0.391276 0.335384 0
M  V30 5 O 0.789466 -0.088774 1.545272 0
M  V30 6 N 0.825813 0.675410 -0.583673 0
M  V30 7 C 0.649817 2.058920 -0.375943 0
M  V30 8 C 0.501181 2.719517 0.810592 0
M  V30 9 C 0.331855 4.078002 0.957681 0
M  V30 10 N 0.173457 4.891729 2.004036 0
M  V30 11 N 0.050262 6.153683 1.567254 0
M  V30 12 C 0.131523 6.151404 0.205028 0
M  V30 13 C 0.308635 4.845005 -0.176714 0
M  V30 14 C 0.458399 4.177414 -1.368369 0
M  V30 15 N 0.620319 2.848321 -1.449367 0
M  V30 16 C -0.041089 -3.658223 0.914040 0
M  V30 17 C -0.318050 -4.103283 -0.372362 0
M  V30 18 C -1.402718 -4.948662 -0.547538 0
M  V30 19 C -2.224570 -5.372617 0.493108 0
M  V30 20 F -3.273657 -6.198882 0.277142 0
M  V30 21 C -1.912623 -4.904142 1.764284 0
M  V30 22 C -0.842525 -4.062015 1.980991 0
M  V30 23 H 2.576717 -4.071190 0.112545 0
M  V30 24 H 3.225047 -2.859004 1.366138 0
M  V30 25 H 2.324771 -4.326349 1.840370 0
M  V30 26 H 1.019682 -2.305945 2.086978 0
M  V30 27 H 1.167771 -2.021264 -0.966231 0
M  V30 28 H 0.928131 0.295803 -1.547401 0
M  V30 29 H 0.513757 2.152296 1.727128 0
M  V30 30 H 0.154088 4.556072 2.996953 0
M  V30 31 H 0.080372 6.944423 -0.511038 0
M  V30 32 H 0.441717 4.774975 -2.275713 0
M  V30 33 H 0.222676 -3.862161 -1.261780 0
M  V30 34 H -1.680776 -5.335522 -1.514293 0
M  V30 35 H -2.511055 -5.194027 2.623974 0
M  V30 36 H -0.606304 -3.704451 2.958867 0
M  V30 END ATOM
M  V30 BEGIN BOND
M  V30 1 1 1 2
M  V30 2 1 2 3
M  V30 3 1 3 4
M  V30 4 2 4 5
M  V30 5 1 4 6
M  V30 6 1 6 7
M  V30 7 2 7 8
M  V30 8 1 8 9
M  V30 9 1 9 10
M  V30 10 1 10 11
M  V30 11 2 11 12
M  V30 12 1 12 13
M  V30 13 1 13 14
M  V30 14 2 14 15
M  V30 15 1 2 16
M  V30 16 2 16 17
M  V30 17 1 17 18
M  V30 18 2 18 19
M  V30 19 1 19 20
M  V30 20 1 19 21
M  V30 21 2 21 22
M  V30 22 1 15 7
M  V30 23 1 22 16
M  V30 24 2 13 9
M  V30 25 1 1 23
M  V30 26 1 1 24
M  V30 27 1 1 25
M  V30 28 1 2 26 CFG=1
M  V30 29 1 3 27
M  V30 30 1 6 28
M  V30 31 1 8 29
M  V30 32 1 10 30
M  V30 33 1 12 31
M  V30 34 1 14 32
M  V30 35 1 17 33
M  V30 36 1 18 34
M  V30 37 1 21 35
M  V30 38 1 22 36
M  V30 END BOND
M  V30 END CTAB
M  END
>  <Dataset>  (633) 
ChEMBL_Kinases

>  <Ligand_Instance>  (633) 
nan

>  <PDB_ID>  (633) 
nan

>  <Standardized_SMILES>  (633) 
C[C@@H](NC(=O)Nc1cc2[nH]ncc2cn1)c1ccc(F)cc1

>  <Name>  (633) 
nan

>  <Pocket>  (633) 
nan

>  <ATP_Site>  (633) 
nan

>  <Peripheral>  (633) 
nan

>  <Num_H_Atoms_ProtBoundConf>  (633) 
nan

>  <Num_Resolved_Atoms>  (633) 
nan

>  <Num_Not_Resolved_Atoms>  (633) 
nan

$$$$
CHEMBL405120
     RDKit          3D

  0  0  0  0  0  0  0  0  0  0999 V3000
M  V30 BEGIN CTAB
M  V30 COUNTS 78 82 0 0 0
M  V30 BEGIN ATOM
M  V30 1 C -3.732180 -2.345722 1.589871 0
M  V30 2 O -2.619917 -1.757048 2.172795 0
M  V30 3 C -1.325236 -2.231149 2.075908 0
M  V30 4 C -1.247498 -3.400040 1.303703 0
M  V30 5 C 0.004339 -3.957477 1.143213 0
M  V30 6 C 0.193581 -5.114093 0.387394 0
M  V30 7 N -1.011981 -5.663066 -0.185996 0
M  V30 8 C -1.430729 -5.046351 -1.407214 0
M  V30 9 C -0.827193 -3.992251 -2.083401 0
M  V30 10 C -1.571334 -3.695357 -3.235455 0
M  V30 11 C -1.085937 -2.571644 -4.117344 0
M  V30 12 C -1.673192 -1.325652 -3.570045 0
M  V30 13 O -2.120631 -2.285641 -2.830698 0
M  V30 14 N -1.919998 0.054555 -3.481250 0
M  V30 15 C -2.780218 0.501913 -2.440028 0
M  V30 16 C -2.089437 0.767415 -1.251511 0
M  V30 17 C -2.820366 1.211562 -0.174929 0
M  V30 18 C -4.178563 1.369013 -0.326237 0
M  V30 19 C -4.843532 1.099071 -1.516335 0
M  V30 20 C -6.307270 1.263428 -1.704657 0
M  V30 21 F -6.589423 1.947636 -2.866126 0
M  V30 22 F -6.834798 2.015655 -0.663248 0
M  V30 23 F -6.962346 0.039069 -1.681243 0
M  V30 24 C -4.138376 0.651582 -2.615701 0
M  V30 25 N -2.585222 -4.571831 -3.211548 0
M  V30 26 N -2.500705 -5.340336 -2.167523 0
M  V30 27 N 1.407630 -5.688717 0.200480 0
M  V30 28 C 2.504158 -5.115024 0.775790 0
M  V30 29 N 2.370764 -3.985534 1.522806 0
M  V30 30 C 1.158274 -3.437800 1.691286 0
M  V30 31 C 0.985225 -2.290944 2.432948 0
M  V30 32 C -0.204436 -1.634910 2.668732 0
M  V30 33 O -0.538437 -0.547876 3.338066 0
M  V30 34 C -0.065899 0.460215 4.076964 0
M  V30 35 C 0.880315 1.466145 3.545842 0
M  V30 36 C 2.189701 1.022542 3.018005 0
M  V30 37 N 2.964821 2.200661 2.582599 0
M  V30 38 C 2.325395 2.733085 1.434106 0
M  V30 39 C 3.362733 3.079027 0.375200 0
M  V30 40 C 4.076639 1.761344 0.058137 0
M  V30 41 C 4.891194 1.874444 -1.182226 0
M  V30 42 O 5.877072 2.842644 -1.116267 0
M  V30 43 C 4.849429 1.315629 1.278070 0
M  V30 44 C 4.360454 1.991298 2.536420 0
M  V30 45 H -3.586048 -2.418103 0.489332 0
M  V30 46 H -4.598960 -1.650907 1.711806 0
M  V30 47 H -4.018228 -3.324498 2.018252 0
M  V30 48 H -2.095842 -3.874284 0.838171 0
M  V30 49 H -1.610872 -6.445258 0.173438 0
M  V30 50 H 0.077964 -3.509345 -1.730195 0
M  V30 51 H 0.009193 -2.567209 -4.164603 0
M  V30 52 H -1.445464 -2.807835 -5.149359 0
M  V30 53 H -1.305886 0.283549 -4.319016 0
M  V30 54 H -1.031542 0.649207 -1.123608 0
M  V30 55 H -2.394099 1.445998 0.791252 0
M  V30 56 H -4.835853 1.710139 0.457202 0
M  V30 57 H -4.604799 0.431328 -3.550483 0
M  V30 58 H -3.268861 -4.507456 -4.008221 0
M  V30 59 H 3.461951 -5.580911 0.618370 0
M  V30 60 H 1.841030 -1.836399 2.903147 0
M  V30 61 H 0.455351 -0.003609 4.985227 0
M  V30 62 H -0.869764 1.067890 4.615470 0
M  V30 63 H 0.375756 2.105466 2.756475 0
M  V30 64 H 1.113134 2.241526 4.341402 0
M  V30 65 H 2.840187 0.472074 3.714849 0
M  V30 66 H 2.038244 0.359072 2.126053 0
M  V30 67 H 1.719417 3.619511 1.707548 0
M  V30 68 H 1.710746 1.937073 0.970117 0
M  V30 69 H 2.797224 3.438171 -0.501987 0
M  V30 70 H 4.057151 3.825737 0.795391 0
M  V30 71 H 3.277969 1.007956 -0.113481 0
M  V30 72 H 4.157717 2.068848 -2.018590 0
M  V30 73 H 5.354606 0.895028 -1.425192 0
M  V30 74 H 6.225025 2.976593 -2.052582 0
M  V30 75 H 5.908102 1.602615 1.129342 0
M  V30 76 H 4.809468 0.226044 1.448177 0
M  V30 77 H 4.671431 1.375530 3.397108 0
M  V30 78 H 4.902533 2.966518 2.611754 0
M  V30 END ATOM
M  V30 BEGIN BOND
M  V30 1 1 1 2
M  V30 2 1 2 3
M  V30 3 2 3 4
M  V30 4 1 4 5
M  V30 5 2 5 6
M  V30 6 1 6 7
M  V30 7 1 7 8
M  V30 8 1 8 9
M  V30 9 2 9 10
M  V30 10 1 10 11
M  V30 11 1 11 12
M  V30 12 2 12 13
M  V30 13 1 12 14
M  V30 14 1 14 15
M  V30 15 2 15 16
M  V30 16 1 16 17
M  V30 17 2 17 18
M  V30 18 1 18 19
M  V30 19 1 19 20
M  V30 20 1 20 21
M  V30 21 1 20 22
M  V30 22 1 20 23
M  V30 23 2 19 24
M  V30 24 1 10 25
M  V30 25 1 25 26
M  V30 26 1 6 27
M  V30 27 2 27 28
M  V30 28 1 28 29
M  V30 29 2 29 30
M  V30 30 1 30 31
M  V30 31 2 31 32
M  V30 32 1 32 33
M  V30 33 1 33 34
M  V30 34 1 34 35
M  V30 35 1 35 36
M  V30 36 1 36 37
M  V30 37 1 37 38
M  V30 38 1 38 39
M  V30 39 1 39 40
M  V30 40 1 40 41
M  V30 41 1 41 42
M  V30 42 1 40 43
M  V30 43 1 43 44
M  V30 44 1 32 3
M  V30 45 1 44 37
M  V30 46 1 30 5
M  V30 47 2 26 8
M  V30 48 1 24 15
M  V30 49 1 1 45
M  V30 50 1 1 46
M  V30 51 1 1 47
M  V30 52 1 4 48
M  V30 53 1 7 49
M  V30 54 1 9 50
M  V30 55 1 11 51
M  V30 56 1 11 52
M  V30 57 1 14 53
M  V30 58 1 16 54
M  V30 59 1 17 55
M  V30 60 1 18 56
M  V30 61 1 24 57
M  V30 62 1 25 58
M  V30 63 1 28 59
M  V30 64 1 31 60
M  V30 65 1 34 61
M  V30 66 1 34 62
M  V30 67 1 35 63
M  V30 68 1 35 64
M  V30 69 1 36 65
M  V30 70 1 36 66
M  V30 71 1 38 67
M  V30 72 1 38 68
M  V30 73 1 39 69
M  V30 74 1 39 70
M  V30 75 1 40 71
M  V30 76 1 41 72
M  V30 77 1 41 73
M  V30 78 1 42 74
M  V30 79 1 43 75
M  V30 80 1 43 76
M  V30 81 1 44 77
M  V30 82 1 44 78
M  V30 END BOND
M  V30 END CTAB
M  END
>  <Dataset>  (634) 
ChEMBL_Kinases

>  <Ligand_Instance>  (634) 
nan

>  <PDB_ID>  (634) 
nan

>  <Standardized_SMILES>  (634) 
COc1cc2c(Nc3cc(CC(=O)Nc4cccc(C(F)(F)F)c4)[nH]n3)ncnc2cc1OCCCN1CCC(CO)CC1

>  <Name>  (634) 
nan

>  <Pocket>  (634) 
nan

>  <ATP_Site>  (634) 
nan

>  <Peripheral>  (634) 
nan

>  <Num_H_Atoms_ProtBoundConf>  (634) 
nan

>  <Num_Resolved_Atoms>  (634) 
nan

>  <Num_Not_Resolved_Atoms>  (634) 
nan

$$$$
CHEMBL404556
     RDKit          3D

  0  0  0  0  0  0  0  0  0  0999 V3000
M  V30 BEGIN CTAB
M  V30 COUNTS 72 78 0 0 0
M  V30 BEGIN ATOM
M  V30 1 N 6.410512 -2.904663 5.892306 0
M  V30 2 C 5.267356 -3.093847 5.032369 0
M  V30 3 O 4.489933 -4.036044 5.319523 0
M  V30 4 C 5.153157 -2.149232 3.913806 0
M  V30 5 N 6.039776 -1.162125 3.677622 0
M  V30 6 C 5.799940 -0.372912 2.610546 0
M  V30 7 C 4.695531 -0.542724 1.770082 0
M  V30 8 C 4.484001 0.285442 0.688827 0
M  V30 9 C 3.376916 0.077646 -0.112066 0
M  V30 10 C 3.059300 0.887347 -1.273237 0
M  V30 11 C 3.084977 0.117432 -2.434744 0
M  V30 12 C 2.808788 0.690708 -3.678364 0
M  V30 13 C 2.506533 2.032092 -3.767067 0
M  V30 14 C 2.485428 2.781330 -2.605211 0
M  V30 15 C 2.755659 2.231072 -1.369137 0
M  V30 16 C 2.492366 -0.961666 0.182025 0
M  V30 17 C 1.293178 -1.271497 -0.589008 0
M  V30 18 C 1.136623 -2.474308 -1.255147 0
M  V30 19 C -0.000652 -2.758629 -1.979463 0
M  V30 20 C -1.028327 -1.846686 -2.064634 0
M  V30 21 C -2.331702 -1.926879 -2.766947 0
M  V30 22 N -3.318630 -2.427495 -1.896511 0
M  V30 23 C -3.175199 -3.726268 -1.358930 0
M  V30 24 C -3.510483 -3.594542 0.128476 0
M  V30 25 C -4.841238 -2.902933 0.225333 0
M  V30 26 C -4.753204 -1.680459 1.100145 0
M  V30 27 N -5.391000 -1.542820 2.299741 0
M  V30 28 N -5.103488 -0.341709 2.822451 0
M  V30 29 C -4.284811 0.286931 1.960648 0
M  V30 30 C -3.756151 1.627946 2.194258 0
M  V30 31 C -2.919496 2.160150 1.226609 0
M  V30 32 C -2.373327 3.429146 1.372415 0
M  V30 33 C -2.721935 4.109681 2.536821 0
M  V30 34 C -3.556305 3.576054 3.499411 0
M  V30 35 N -4.059099 2.341307 3.309032 0
M  V30 36 N -4.071900 -0.537774 0.904471 0
M  V30 37 C -5.536226 -2.662116 -1.064933 0
M  V30 38 C -4.682528 -2.174815 -2.198623 0
M  V30 39 C -0.862431 -0.632071 -1.388014 0
M  V30 40 C 0.268177 -0.333581 -0.660453 0
M  V30 41 N 2.721436 -1.772400 1.260685 0
M  V30 42 C 3.803600 -1.580474 2.055577 0
M  V30 43 N 4.078251 -2.346303 3.129744 0
M  V30 44 H 7.253510 -2.782294 6.492385 0
M  V30 45 H 6.117643 -2.399188 6.772556 0
M  V30 46 H 6.482620 0.427329 2.385820 0
M  V30 47 H 5.152676 1.081635 0.455192 0
M  V30 48 H 3.306721 -0.949255 -2.516785 0
M  V30 49 H 2.814779 0.140126 -4.610231 0
M  V30 50 H 2.277200 2.575202 -4.678896 0
M  V30 51 H 2.260390 3.841613 -2.562699 0
M  V30 52 H 2.765458 2.720115 -0.416688 0
M  V30 53 H 1.911282 -3.229112 -1.223527 0
M  V30 54 H -0.192870 -3.668000 -2.527606 0
M  V30 55 H -2.621169 -0.956256 -3.197089 0
M  V30 56 H -2.266396 -2.631195 -3.646197 0
M  V30 57 H -3.994010 -4.403828 -1.748994 0
M  V30 58 H -2.255702 -4.268012 -1.530993 0
M  V30 59 H -3.453601 -4.555593 0.663284 0
M  V30 60 H -2.714247 -2.917105 0.541857 0
M  V30 61 H -5.505768 -3.594381 0.825817 0
M  V30 62 H -2.635045 1.642413 0.308126 0
M  V30 63 H -1.718852 3.857352 0.625816 0
M  V30 64 H -2.298037 5.103717 2.657744 0
M  V30 65 H -3.804827 4.133120 4.390376 0
M  V30 66 H -3.481585 -0.328927 0.077268 0
M  V30 67 H -6.092436 -3.601004 -1.342441 0
M  V30 68 H -6.327571 -1.912334 -0.888510 0
M  V30 69 H -4.963152 -2.763094 -3.104427 0
M  V30 70 H -4.896962 -1.120296 -2.476022 0
M  V30 71 H -1.588826 0.166851 -1.373243 0
M  V30 72 H 0.417742 0.594956 -0.131697 0
M  V30 END ATOM
M  V30 BEGIN BOND
M  V30 1 1 1 2
M  V30 2 2 2 3
M  V30 3 1 2 4
M  V30 4 2 4 5
M  V30 5 1 5 6
M  V30 6 2 6 7
M  V30 7 1 7 8
M  V30 8 2 8 9
M  V30 9 1 9 10
M  V30 10 2 10 11
M  V30 11 1 11 12
M  V30 12 2 12 13
M  V30 13 1 13 14
M  V30 14 2 14 15
M  V30 15 1 9 16
M  V30 16 1 16 17
M  V30 17 2 17 18
M  V30 18 1 18 19
M  V30 19 2 19 20
M  V30 20 1 20 21
M  V30 21 1 21 22
M  V30 22 1 22 23
M  V30 23 1 23 24
M  V30 24 1 24 25
M  V30 25 1 25 26
M  V30 26 2 26 27
M  V30 27 1 27 28
M  V30 28 2 28 29
M  V30 29 1 29 30
M  V30 30 2 30 31
M  V30 31 1 31 32
M  V30 32 2 32 33
M  V30 33 1 33 34
M  V30 34 2 34 35
M  V30 35 1 29 36
M  V30 36 1 25 37
M  V30 37 1 37 38
M  V30 38 1 20 39
M  V30 39 2 39 40
M  V30 40 2 16 41
M  V30 41 1 41 42
M  V30 42 2 42 43
M  V30 43 1 43 4
M  V30 44 1 42 7
M  V30 45 1 15 10
M  V30 46 1 40 17
M  V30 47 1 38 22
M  V30 48 1 36 26
M  V30 49 1 35 30
M  V30 50 1 1 44
M  V30 51 1 1 45
M  V30 52 1 6 46
M  V30 53 1 8 47
M  V30 54 1 11 48
M  V30 55 1 12 49
M  V30 56 1 13 50
M  V30 57 1 14 51
M  V30 58 1 15 52
M  V30 59 1 18 53
M  V30 60 1 19 54
M  V30 61 1 21 55
M  V30 62 1 21 56
M  V30 63 1 23 57
M  V30 64 1 23 58
M  V30 65 1 24 59
M  V30 66 1 24 60
M  V30 67 1 25 61
M  V30 68 1 31 62
M  V30 69 1 32 63
M  V30 70 1 33 64
M  V30 71 1 34 65
M  V30 72 1 36 66
M  V30 73 1 37 67
M  V30 74 1 37 68
M  V30 75 1 38 69
M  V30 76 1 38 70
M  V30 77 1 39 71
M  V30 78 1 40 72
M  V30 END BOND
M  V30 END CTAB
M  END
>  <Dataset>  (635) 
ChEMBL_Kinases

>  <Ligand_Instance>  (635) 
nan

>  <PDB_ID>  (635) 
nan

>  <Standardized_SMILES>  (635) 
NC(=O)c1ncc2cc(-c3ccccc3)c(-c3ccc(CN4CCC(c5nnc(-c6ccccn6)[nH]5)CC4)cc3)nc2n1

>  <Name>  (635) 
nan

>  <Pocket>  (635) 
nan

>  <ATP_Site>  (635) 
nan

>  <Peripheral>  (635) 
nan

>  <Num_H_Atoms_ProtBoundConf>  (635) 
nan

>  <Num_Resolved_Atoms>  (635) 
nan

>  <Num_Not_Resolved_Atoms>  (635) 
nan

$$$$
CHEMBL404555
     RDKit          3D

  0  0  0  0  0  0  0  0  0  0999 V3000
M  V30 BEGIN CTAB
M  V30 COUNTS 69 75 0 0 0
M  V30 BEGIN ATOM
M  V30 1 N 3.368830 5.046999 7.690413 0
M  V30 2 C 3.458257 4.680753 6.597365 0
M  V30 3 C 3.550569 4.206166 5.228852 0
M  V30 4 N 4.718260 4.384138 4.560098 0
M  V30 5 C 4.784081 3.936076 3.287105 0
M  V30 6 C 3.701059 3.313922 2.674863 0
M  V30 7 C 3.697406 2.835913 1.391319 0
M  V30 8 C 2.595405 2.235774 0.858907 0
M  V30 9 C 2.759346 1.782254 -0.511322 0
M  V30 10 C 2.715606 0.458535 -0.961157 0
M  V30 11 C 2.890394 0.186979 -2.308381 0
M  V30 12 C 3.108781 1.193083 -3.231530 0
M  V30 13 C 3.155246 2.521098 -2.797753 0
M  V30 14 C 2.981156 2.775966 -1.464352 0
M  V30 15 C 1.421445 2.076774 1.584612 0
M  V30 16 C 0.301688 1.424352 0.921679 0
M  V30 17 C -0.175230 0.224621 1.413876 0
M  V30 18 C -1.233682 -0.409301 0.799628 0
M  V30 19 C -1.870488 0.093937 -0.314167 0
M  V30 20 C -3.015684 -0.525182 -1.038411 0
M  V30 21 N -2.628066 -1.401547 -2.070905 0
M  V30 22 C -3.604017 -2.036560 -2.854785 0
M  V30 23 C -3.596960 -3.533421 -2.692174 0
M  V30 24 C -2.257046 -4.168699 -2.665110 0
M  V30 25 C -1.973651 -4.713269 -1.290681 0
M  V30 26 N -1.317040 -5.869451 -0.981802 0
M  V30 27 N -1.273208 -6.021508 0.330571 0
M  V30 28 C -1.894848 -4.978142 0.901774 0
M  V30 29 C -2.098466 -4.730316 2.323321 0
M  V30 30 C -2.782596 -3.616205 2.743324 0
M  V30 31 C -3.052071 -3.263609 4.052423 0
M  V30 32 C -2.578216 -4.131963 5.040496 0
M  V30 33 C -1.891515 -5.250094 4.616095 0
M  V30 34 N -1.666562 -5.527476 3.301604 0
M  V30 35 N -2.308311 -4.202485 -0.111859 0
M  V30 36 C -1.205633 -3.134482 -2.985324 0
M  V30 37 C -1.329108 -1.934266 -2.079083 0
M  V30 38 C -1.370286 1.307144 -0.792364 0
M  V30 39 C -0.307048 1.973884 -0.200463 0
M  V30 40 N 1.429775 2.554129 2.861901 0
M  V30 41 C 2.527081 3.148814 3.384487 0
M  V30 42 N 2.481088 3.603570 4.655873 0
M  V30 43 H 5.683698 4.040541 2.683725 0
M  V30 44 H 4.642586 2.980728 0.851772 0
M  V30 45 H 2.544103 -0.264019 -0.196984 0
M  V30 46 H 2.846562 -0.871765 -2.608698 0
M  V30 47 H 3.241611 0.945165 -4.280762 0
M  V30 48 H 3.325601 3.305495 -3.520247 0
M  V30 49 H 3.022902 3.829021 -1.159297 0
M  V30 50 H 0.243674 -0.282938 2.295170 0
M  V30 51 H -1.602354 -1.338682 1.179731 0
M  V30 52 H -3.672071 0.311866 -1.364568 0
M  V30 53 H -3.589942 -1.079724 -0.267668 0
M  V30 54 H -4.611060 -1.669894 -2.533797 0
M  V30 55 H -3.460130 -1.854177 -3.954797 0
M  V30 56 H -4.179054 -3.857008 -1.803221 0
M  V30 57 H -4.138548 -3.973119 -3.585324 0
M  V30 58 H -2.104936 -4.997215 -3.396843 0
M  V30 59 H -3.178991 -2.906598 2.033098 0
M  V30 60 H -3.590599 -2.383189 4.343795 0
M  V30 61 H -2.762970 -3.901080 6.073250 0
M  V30 62 H -1.529231 -5.914281 5.375928 0
M  V30 63 H -2.821758 -3.326557 0.035898 0
M  V30 64 H -0.186422 -3.562133 -2.918348 0
M  V30 65 H -1.354905 -2.803810 -4.049131 0
M  V30 66 H -0.635290 -1.174647 -2.501093 0
M  V30 67 H -0.992284 -2.252954 -1.053425 0
M  V30 68 H -1.813687 1.768684 -1.660325 0
M  V30 69 H 0.066592 2.909610 -0.582478 0
M  V30 END ATOM
M  V30 BEGIN BOND
M  V30 1 3 1 2
M  V30 2 1 2 3
M  V30 3 2 3 4
M  V30 4 1 4 5
M  V30 5 2 5 6
M  V30 6 1 6 7
M  V30 7 2 7 8
M  V30 8 1 8 9
M  V30 9 2 9 10
M  V30 10 1 10 11
M  V30 11 2 11 12
M  V30 12 1 12 13
M  V30 13 2 13 14
M  V30 14 1 8 15
M  V30 15 1 15 16
M  V30 16 2 16 17
M  V30 17 1 17 18
M  V30 18 2 18 19
M  V30 19 1 19 20
M  V30 20 1 20 21
M  V30 21 1 21 22
M  V30 22 1 22 23
M  V30 23 1 23 24
M  V30 24 1 24 25
M  V30 25 2 25 26
M  V30 26 1 26 27
M  V30 27 2 27 28
M  V30 28 1 28 29
M  V30 29 2 29 30
M  V30 30 1 30 31
M  V30 31 2 31 32
M  V30 32 1 32 33
M  V30 33 2 33 34
M  V30 34 1 28 35
M  V30 35 1 24 36
M  V30 36 1 36 37
M  V30 37 1 19 38
M  V30 38 2 38 39
M  V30 39 2 15 40
M  V30 40 1 40 41
M  V30 41 2 41 42
M  V30 42 1 42 3
M  V30 43 1 41 6
M  V30 44 1 14 9
M  V30 45 1 39 16
M  V30 46 1 37 21
M  V30 47 1 35 25
M  V30 48 1 34 29
M  V30 49 1 5 43
M  V30 50 1 7 44
M  V30 51 1 10 45
M  V30 52 1 11 46
M  V30 53 1 12 47
M  V30 54 1 13 48
M  V30 55 1 14 49
M  V30 56 1 17 50
M  V30 57 1 18 51
M  V30 58 1 20 52
M  V30 59 1 20 53
M  V30 60 1 22 54
M  V30 61 1 22 55
M  V30 62 1 23 56
M  V30 63 1 23 57
M  V30 64 1 24 58
M  V30 65 1 30 59
M  V30 66 1 31 60
M  V30 67 1 32 61
M  V30 68 1 33 62
M  V30 69 1 35 63
M  V30 70 1 36 64
M  V30 71 1 36 65
M  V30 72 1 37 66
M  V30 73 1 37 67
M  V30 74 1 38 68
M  V30 75 1 39 69
M  V30 END BOND
M  V30 END CTAB
M  END
>  <Dataset>  (636) 
ChEMBL_Kinases

>  <Ligand_Instance>  (636) 
nan

>  <PDB_ID>  (636) 
nan

>  <Standardized_SMILES>  (636) 
N#Cc1ncc2cc(-c3ccccc3)c(-c3ccc(CN4CCC(c5nnc(-c6ccccn6)[nH]5)CC4)cc3)nc2n1

>  <Name>  (636) 
nan

>  <Pocket>  (636) 
nan

>  <ATP_Site>  (636) 
nan

>  <Peripheral>  (636) 
nan

>  <Num_H_Atoms_ProtBoundConf>  (636) 
nan

>  <Num_Resolved_Atoms>  (636) 
nan

>  <Num_Not_Resolved_Atoms>  (636) 
nan

$$$$
CHEMBL404554
     RDKit          3D

  0  0  0  0  0  0  0  0  0  0999 V3000
M  V30 BEGIN CTAB
M  V30 COUNTS 73 79 0 0 0
M  V30 BEGIN ATOM
M  V30 1 C 3.605565 -0.156933 7.530936 0
M  V30 2 S 4.832109 -0.866863 6.386091 0
M  V30 3 C 4.720595 -0.051815 4.797677 0
M  V30 4 N 5.483339 1.038781 4.625138 0
M  V30 5 C 5.451523 1.709576 3.449433 0
M  V30 6 C 4.625260 1.235770 2.468650 0
M  V30 7 C 4.559424 1.884495 1.258751 0
M  V30 8 C 3.738373 1.437447 0.244593 0
M  V30 9 C 3.616110 2.056521 -1.045962 0
M  V30 10 C 3.931116 1.531888 -2.279899 0
M  V30 11 C 3.758474 2.252344 -3.446983 0
M  V30 12 C 3.251482 3.550987 -3.392152 0
M  V30 13 C 2.932372 4.088205 -2.163011 0
M  V30 14 C 3.113409 3.347218 -1.002351 0
M  V30 15 C 2.970929 0.329032 0.435742 0
M  V30 16 C 2.034537 -0.314415 -0.478559 0
M  V30 17 C 0.888618 0.391119 -0.865049 0
M  V30 18 C 0.015408 -0.238389 -1.730474 0
M  V30 19 C 0.187133 -1.523416 -2.249857 0
M  V30 20 C -0.913641 -1.969154 -3.162864 0
M  V30 21 N -1.937177 -2.620677 -2.386388 0
M  V30 22 C -1.436423 -3.771544 -1.769794 0
M  V30 23 C -2.405713 -4.803276 -1.352725 0
M  V30 24 C -3.860043 -4.509747 -1.610642 0
M  V30 25 C -4.386268 -3.742150 -0.462129 0
M  V30 26 C -4.246183 -2.471611 0.004131 0
M  V30 27 C -4.968467 -2.243056 1.161827 0
M  V30 28 C -5.057954 -1.018556 1.931883 0
M  V30 29 C -4.371497 0.121559 1.539803 0
M  V30 30 C -4.508939 1.241192 2.326574 0
M  V30 31 N -5.276955 1.272166 3.452531 0
M  V30 32 C -5.946601 0.157919 3.834381 0
M  V30 33 C -5.839572 -0.997441 3.071785 0
M  V30 34 N -5.553714 -3.432975 1.377035 0
M  V30 35 N -5.234716 -4.314073 0.456070 0
M  V30 36 C -3.996663 -3.871212 -2.939924 0
M  V30 37 C -3.135145 -2.689709 -3.101509 0
M  V30 38 C 1.317769 -2.180197 -1.850113 0
M  V30 39 C 2.205593 -1.576832 -0.987886 0
M  V30 40 N 3.009790 -0.340843 1.623064 0
M  V30 41 C 3.828691 0.117912 2.612602 0
M  V30 42 N 3.911456 -0.503546 3.816005 0
M  V30 43 H 4.085024 0.112147 8.475394 0
M  V30 44 H 3.135339 0.769514 7.092865 0
M  V30 45 H 2.801885 -0.897095 7.746497 0
M  V30 46 H 6.073869 2.591834 3.319203 0
M  V30 47 H 5.164353 2.772703 1.085627 0
M  V30 48 H 4.320392 0.520003 -2.259376 0
M  V30 49 H 4.022950 1.792377 -4.394685 0
M  V30 50 H 3.153501 4.032215 -4.360827 0
M  V30 51 H 2.550039 5.094889 -2.223792 0
M  V30 52 H 2.804651 3.939627 -0.133869 0
M  V30 53 H 0.716014 1.384492 -0.490125 0
M  V30 54 H -0.859398 0.378639 -1.987114 0
M  V30 55 H -1.307092 -1.114035 -3.725176 0
M  V30 56 H -0.494219 -2.677628 -3.931024 0
M  V30 57 H -0.841271 -3.461289 -0.865990 0
M  V30 58 H -0.661606 -4.265713 -2.433241 0
M  V30 59 H -2.341388 -5.029993 -0.243634 0
M  V30 60 H -2.163863 -5.807492 -1.819655 0
M  V30 61 H -4.379514 -5.524293 -1.636972 0
M  V30 62 H -3.653543 -1.722411 -0.456420 0
M  V30 63 H -3.764237 0.087262 0.647092 0
M  V30 64 H -3.958507 2.127692 1.997368 0
M  V30 65 H -6.545472 0.256485 4.750008 0
M  V30 66 H -6.410746 -1.859484 3.445139 0
M  V30 67 H -6.192947 -3.677571 2.167882 0
M  V30 68 H -5.052123 -3.603317 -3.196410 0
M  V30 69 H -3.661054 -4.638652 -3.701078 0
M  V30 70 H -2.977541 -2.548419 -4.217347 0
M  V30 71 H -3.752853 -1.776997 -2.841763 0
M  V30 72 H 1.429057 -3.168631 -2.267200 0
M  V30 73 H 3.087631 -2.148187 -0.704678 0
M  V30 END ATOM
M  V30 BEGIN BOND
M  V30 1 1 1 2
M  V30 2 1 2 3
M  V30 3 2 3 4
M  V30 4 1 4 5
M  V30 5 2 5 6
M  V30 6 1 6 7
M  V30 7 2 7 8
M  V30 8 1 8 9
M  V30 9 2 9 10
M  V30 10 1 10 11
M  V30 11 2 11 12
M  V30 12 1 12 13
M  V30 13 2 13 14
M  V30 14 1 8 15
M  V30 15 1 15 16
M  V30 16 2 16 17
M  V30 17 1 17 18
M  V30 18 2 18 19
M  V30 19 1 19 20
M  V30 20 1 20 21
M  V30 21 1 21 22
M  V30 22 1 22 23
M  V30 23 1 23 24
M  V30 24 1 24 25
M  V30 25 1 25 26
M  V30 26 2 26 27
M  V30 27 1 27 28
M  V30 28 2 28 29
M  V30 29 1 29 30
M  V30 30 2 30 31
M  V30 31 1 31 32
M  V30 32 2 32 33
M  V30 33 1 27 34
M  V30 34 1 34 35
M  V30 35 1 24 36
M  V30 36 1 36 37
M  V30 37 1 19 38
M  V30 38 2 38 39
M  V30 39 2 15 40
M  V30 40 1 40 41
M  V30 41 2 41 42
M  V30 42 1 42 3
M  V30 43 1 41 6
M  V30 44 1 14 9
M  V30 45 1 39 16
M  V30 46 1 37 21
M  V30 47 2 35 25
M  V30 48 1 33 28
M  V30 49 1 1 43
M  V30 50 1 1 44
M  V30 51 1 1 45
M  V30 52 1 5 46
M  V30 53 1 7 47
M  V30 54 1 10 48
M  V30 55 1 11 49
M  V30 56 1 12 50
M  V30 57 1 13 51
M  V30 58 1 14 52
M  V30 59 1 17 53
M  V30 60 1 18 54
M  V30 61 1 20 55
M  V30 62 1 20 56
M  V30 63 1 22 57
M  V30 64 1 22 58
M  V30 65 1 23 59
M  V30 66 1 23 60
M  V30 67 1 24 61
M  V30 68 1 26 62
M  V30 69 1 29 63
M  V30 70 1 30 64
M  V30 71 1 32 65
M  V30 72 1 33 66
M  V30 73 1 34 67
M  V30 74 1 36 68
M  V30 75 1 36 69
M  V30 76 1 37 70
M  V30 77 1 37 71
M  V30 78 1 38 72
M  V30 79 1 39 73
M  V30 END BOND
M  V30 END CTAB
M  END
>  <Dataset>  (637) 
ChEMBL_Kinases

>  <Ligand_Instance>  (637) 
nan

>  <PDB_ID>  (637) 
nan

>  <Standardized_SMILES>  (637) 
CSc1ncc2cc(-c3ccccc3)c(-c3ccc(CN4CCC(c5cc(-c6ccncc6)[nH]n5)CC4)cc3)nc2n1

>  <Name>  (637) 
nan

>  <Pocket>  (637) 
nan

>  <ATP_Site>  (637) 
nan

>  <Peripheral>  (637) 
nan

>  <Num_H_Atoms_ProtBoundConf>  (637) 
nan

>  <Num_Resolved_Atoms>  (637) 
nan

>  <Num_Not_Resolved_Atoms>  (637) 
nan

$$$$
CHEMBL40439
     RDKit          3D

  0  0  0  0  0  0  0  0  0  0999 V3000
M  V30 BEGIN CTAB
M  V30 COUNTS 30 32 0 0 0
M  V30 BEGIN ATOM
M  V30 1 C -1.641421 -2.447198 2.721007 0
M  V30 2 C -0.683795 -2.737137 3.664029 0
M  V30 3 C 0.605758 -3.094681 3.318194 0
M  V30 4 C 0.956203 -3.166363 1.976395 0
M  V30 5 C 2.324146 -3.541505 1.473645 0
M  V30 6 S 3.346234 -2.029849 1.300722 0
M  V30 7 C 2.620832 -1.038561 -0.002592 0
M  V30 8 N 2.720370 -0.896473 -1.337236 0
M  V30 9 N 1.869279 0.055659 -1.719988 0
M  V30 10 C 1.253164 0.494327 -0.634074 0
M  V30 11 C 0.225917 1.556291 -0.622682 0
M  V30 12 C -0.169956 2.183647 -1.785137 0
M  V30 13 C -1.132904 3.171138 -1.741938 0
M  V30 14 N -1.699175 3.533741 -0.553561 0
M  V30 15 C -1.291693 2.901342 0.572230 0
M  V30 16 C -0.332140 1.902194 0.609644 0
M  V30 17 O 1.717696 -0.177329 0.402360 0
M  V30 18 C -0.044713 -2.864694 1.056602 0
M  V30 19 C -1.340751 -2.504476 1.358646 0
M  V30 20 H -2.670439 -2.160824 2.959663 0
M  V30 21 H -0.957641 -2.680792 4.703726 0
M  V30 22 H 1.368579 -3.325371 4.036255 0
M  V30 23 H 2.192417 -3.938048 0.443386 0
M  V30 24 H 2.808693 -4.273825 2.149251 0
M  V30 25 H 0.257803 1.918287 -2.728519 0
M  V30 26 H -1.476239 3.693940 -2.637520 0
M  V30 27 H -1.774406 3.225356 1.505933 0
M  V30 28 H -0.052932 1.438971 1.540251 0
M  V30 29 H 0.230812 -2.921014 0.005182 0
M  V30 30 H -2.026823 -2.293892 0.549028 0
M  V30 END ATOM
M  V30 BEGIN BOND
M  V30 1 2 1 2
M  V30 2 1 2 3
M  V30 3 2 3 4
M  V30 4 1 4 5
M  V30 5 1 5 6
M  V30 6 1 6 7
M  V30 7 2 7 8
M  V30 8 1 8 9
M  V30 9 2 9 10
M  V30 10 1 10 11
M  V30 11 2 11 12
M  V30 12 1 12 13
M  V30 13 2 13 14
M  V30 14 1 14 15
M  V30 15 2 15 16
M  V30 16 1 10 17
M  V30 17 1 4 18
M  V30 18 2 18 19
M  V30 19 1 19 1
M  V30 20 1 17 7
M  V30 21 1 16 11
M  V30 22 1 1 20
M  V30 23 1 2 21
M  V30 24 1 3 22
M  V30 25 1 5 23
M  V30 26 1 5 24
M  V30 27 1 12 25
M  V30 28 1 13 26
M  V30 29 1 15 27
M  V30 30 1 16 28
M  V30 31 1 18 29
M  V30 32 1 19 30
M  V30 END BOND
M  V30 END CTAB
M  END
>  <Dataset>  (638) 
ChEMBL_Kinases

>  <Ligand_Instance>  (638) 
nan

>  <PDB_ID>  (638) 
nan

>  <Standardized_SMILES>  (638) 
c1ccc(CSc2nnc(-c3ccncc3)o2)cc1

>  <Name>  (638) 
nan

>  <Pocket>  (638) 
nan

>  <ATP_Site>  (638) 
nan

>  <Peripheral>  (638) 
nan

>  <Num_H_Atoms_ProtBoundConf>  (638) 
nan

>  <Num_Resolved_Atoms>  (638) 
nan

>  <Num_Not_Resolved_Atoms>  (638) 
nan

$$$$
CHEMBL404377
     RDKit          3D

  0  0  0  0  0  0  0  0  0  0999 V3000
M  V30 BEGIN CTAB
M  V30 COUNTS 58 61 0 0 0
M  V30 BEGIN ATOM
M  V30 1 C 5.627909 -2.121911 2.211815 0
M  V30 2 C 4.296645 -1.615587 2.645806 0
M  V30 3 C 3.238335 -2.709557 2.552763 0
M  V30 4 S 3.687172 -0.236190 1.741150 0
M  V30 5 O 2.457284 0.354887 2.381279 0
M  V30 6 O 4.741886 0.862270 1.876581 0
M  V30 7 N 3.479205 -0.514091 0.076768 0
M  V30 8 C 4.343175 -0.832957 -0.894351 0
M  V30 9 N 5.740910 -1.006789 -0.743857 0
M  V30 10 N 3.753457 -0.975349 -2.095017 0
M  V30 11 C 2.432096 -0.743694 -1.936781 0
M  V30 12 C 1.369579 -0.751358 -2.813051 0
M  V30 13 C 0.095554 -0.471021 -2.365200 0
M  V30 14 C -0.079614 -0.185119 -1.023432 0
M  V30 15 C -1.455394 0.100700 -0.626627 0
M  V30 16 N -2.319448 1.040242 -0.980939 0
M  V30 17 C -3.473805 0.871477 -0.324371 0
M  V30 18 C -4.724673 1.699919 -0.415405 0
M  V30 19 C -5.773735 1.136556 0.502022 0
M  V30 20 C -5.247527 1.582523 -1.848080 0
M  V30 21 C -4.480516 3.153198 -0.166251 0
M  V30 22 N -3.319650 -0.218246 0.470533 0
M  V30 23 C -2.079176 -0.715107 0.303168 0
M  V30 24 C -1.699695 -1.898679 1.070680 0
M  V30 25 C -1.675946 -1.906304 2.454601 0
M  V30 26 C -1.318531 -3.020916 3.185278 0
M  V30 27 C -0.968872 -4.179421 2.531596 0
M  V30 28 F -0.618422 -5.270972 3.267243 0
M  V30 29 C -0.983305 -4.201804 1.148494 0
M  V30 30 C -1.346683 -3.067497 0.427504 0
M  V30 31 F -1.346011 -3.137852 -0.943534 0
M  V30 32 C 1.005533 -0.185617 -0.171672 0
M  V30 33 C 2.290284 -0.462175 -0.591601 0
M  V30 34 H 6.101713 -2.644864 3.090922 0
M  V30 35 H 6.346757 -1.325301 1.944576 0
M  V30 36 H 5.541080 -2.817806 1.352081 0
M  V30 37 H 4.394330 -1.369683 3.745609 0
M  V30 38 H 3.562956 -3.648648 3.036038 0
M  V30 39 H 2.341470 -2.305087 3.084424 0
M  V30 40 H 2.942508 -2.851172 1.478330 0
M  V30 41 H 6.494659 -1.697848 -0.540533 0
M  V30 42 H 6.492381 -1.699755 -0.540326 0
M  V30 43 H 1.549220 -0.976959 -3.839080 0
M  V30 44 H -0.695101 -0.493993 -3.106640 0
M  V30 45 H -2.097005 1.787378 -1.674341 0
M  V30 46 H -6.760101 1.247653 0.017087 0
M  V30 47 H -5.766449 1.771054 1.431927 0
M  V30 48 H -5.544339 0.094786 0.800922 0
M  V30 49 H -5.805711 0.658179 -2.025343 0
M  V30 50 H -5.927190 2.449936 -1.981070 0
M  V30 51 H -4.400988 1.716760 -2.582025 0
M  V30 52 H -4.612349 3.451374 0.901447 0
M  V30 53 H -5.283849 3.718688 -0.710490 0
M  V30 54 H -3.527188 3.484748 -0.586798 0
M  V30 55 H -1.960606 -0.966121 2.922650 0
M  V30 56 H -1.336057 -2.910706 4.260454 0
M  V30 57 H -0.702224 -5.130950 0.669435 0
M  V30 58 H 0.748666 0.046926 0.830903 0
M  V30 END ATOM
M  V30 BEGIN BOND
M  V30 1 1 1 2
M  V30 2 1 2 3
M  V30 3 1 2 4
M  V30 4 2 4 5
M  V30 5 2 4 6
M  V30 6 1 4 7
M  V30 7 1 7 8
M  V30 8 1 8 9
M  V30 9 2 8 10
M  V30 10 1 10 11
M  V30 11 2 11 12
M  V30 12 1 12 13
M  V30 13 2 13 14
M  V30 14 1 14 15
M  V30 15 1 15 16
M  V30 16 1 16 17
M  V30 17 1 17 18
M  V30 18 1 18 19
M  V30 19 1 18 20
M  V30 20 1 18 21
M  V30 21 2 17 22
M  V30 22 1 22 23
M  V30 23 1 23 24
M  V30 24 2 24 25
M  V30 25 1 25 26
M  V30 26 2 26 27
M  V30 27 1 27 28
M  V30 28 1 27 29
M  V30 29 2 29 30
M  V30 30 1 30 31
M  V30 31 1 14 32
M  V30 32 2 32 33
M  V30 33 1 33 7
M  V30 34 1 33 11
M  V30 35 2 23 15
M  V30 36 1 30 24
M  V30 37 1 1 34
M  V30 38 1 1 35
M  V30 39 1 1 36
M  V30 40 1 2 37
M  V30 41 1 3 38
M  V30 42 1 3 39
M  V30 43 1 3 40
M  V30 44 1 9 41
M  V30 45 1 9 42
M  V30 46 1 12 43
M  V30 47 1 13 44
M  V30 48 1 16 45
M  V30 49 1 19 46
M  V30 50 1 19 47
M  V30 51 1 19 48
M  V30 52 1 20 49
M  V30 53 1 20 50
M  V30 54 1 20 51
M  V30 55 1 21 52
M  V30 56 1 21 53
M  V30 57 1 21 54
M  V30 58 1 25 55
M  V30 59 1 26 56
M  V30 60 1 29 57
M  V30 61 1 32 58
M  V30 END BOND
M  V30 END CTAB
M  END
>  <Dataset>  (639) 
ChEMBL_Kinases

>  <Ligand_Instance>  (639) 
nan

>  <PDB_ID>  (639) 
nan

>  <Standardized_SMILES>  (639) 
CC(C)S(=O)(=O)n1c(N)nc2ccc(-c3[nH]c(C(C)(C)C)nc3-c3ccc(F)cc3F)cc21

>  <Name>  (639) 
nan

>  <Pocket>  (639) 
nan

>  <ATP_Site>  (639) 
nan

>  <Peripheral>  (639) 
nan

>  <Num_H_Atoms_ProtBoundConf>  (639) 
nan

>  <Num_Resolved_Atoms>  (639) 
nan

>  <Num_Not_Resolved_Atoms>  (639) 
nan

$$$$
CHEMBL3641990
     RDKit          3D

  0  0  0  0  0  0  0  0  0  0999 V3000
M  V30 BEGIN CTAB
M  V30 COUNTS 59 64 0 0 0
M  V30 BEGIN ATOM
M  V30 1 C 2.982631 -1.046489 5.097112 0
M  V30 2 N 3.910848 -2.100454 5.033592 0
M  V30 3 C 4.513338 -2.377112 3.743123 0
M  V30 4 C 5.310523 -1.265990 3.200061 0
M  V30 5 C 5.490559 -1.261429 1.679109 0
M  V30 6 N 4.201841 -1.335530 1.029623 0
M  V30 7 C 3.467119 -0.394796 0.244958 0
M  V30 8 C 3.970393 0.619854 -0.538128 0
M  V30 9 C 3.017303 1.398999 -1.132201 0
M  V30 10 C 1.654850 1.207303 -0.976650 0
M  V30 11 N 0.702927 2.079945 -1.612752 0
M  V30 12 C -0.674814 1.792832 -1.379204 0
M  V30 13 N -1.326560 2.933761 -1.012399 0
M  V30 14 C -2.663844 2.865984 -0.742559 0
M  V30 15 C -3.311982 1.676679 -0.843832 0
M  V30 16 C -4.612819 1.261250 -0.651835 0
M  V30 17 C -5.774535 1.931737 -0.269870 0
M  V30 18 C -6.976484 1.265795 -0.148393 0
M  V30 19 N -7.020182 -0.077330 -0.409708 0
M  V30 20 C -5.905460 -0.709703 -0.774214 0
M  V30 21 C -4.657952 -0.094329 -0.915490 0
M  V30 22 N -3.450253 -0.563281 -1.266342 0
M  V30 23 C -3.079396 -1.892913 -1.621239 0
M  V30 24 C -3.340360 -3.008768 -0.672211 0
M  V30 25 C -3.905571 -3.790773 -1.840328 0
M  V30 26 C -3.849230 -2.549849 -2.737666 0
M  V30 27 C -2.633647 0.534638 -1.217559 0
M  V30 28 N -1.315878 0.613203 -1.480655 0
M  V30 29 N 1.207989 0.169445 -0.176068 0
M  V30 30 N 2.156496 -0.591890 0.402578 0
M  V30 31 C 3.709443 -2.666304 1.336170 0
M  V30 32 C 3.529347 -2.949836 2.777907 0
M  V30 33 H 3.378664 -0.022417 4.995688 0
M  V30 34 H 2.521146 -1.066925 6.117700 0
M  V30 35 H 2.123775 -1.142063 4.411378 0
M  V30 36 H 3.439376 -2.976026 5.345328 0
M  V30 37 H 5.246519 -3.206362 3.985948 0
M  V30 38 H 6.355242 -1.286926 3.612538 0
M  V30 39 H 4.946634 -0.250777 3.535799 0
M  V30 40 H 6.070109 -0.346931 1.450796 0
M  V30 41 H 6.110565 -2.094935 1.317147 0
M  V30 42 H 5.023652 0.681768 -0.596143 0
M  V30 43 H 3.373283 2.213724 -1.762089 0
M  V30 44 H 1.064999 2.851084 -2.194277 0
M  V30 45 H -3.285806 3.716057 -0.438675 0
M  V30 46 H -5.681141 3.013649 -0.070646 0
M  V30 47 H -7.821994 1.902596 0.158578 0
M  V30 48 H -5.996019 -1.757995 -0.962740 0
M  V30 49 H -1.985455 -1.922252 -1.907365 0
M  V30 50 H -2.426052 -3.562612 -0.300818 0
M  V30 51 H -4.006736 -2.840151 0.185537 0
M  V30 52 H -3.286695 -4.638408 -2.183751 0
M  V30 53 H -4.957225 -4.129647 -1.730072 0
M  V30 54 H -3.253858 -2.780489 -3.663438 0
M  V30 55 H -4.818331 -2.114365 -3.013118 0
M  V30 56 H 4.418239 -3.401682 0.876872 0
M  V30 57 H 2.759297 -2.834029 0.756427 0
M  V30 58 H 3.555321 -4.079754 2.901553 0
M  V30 59 H 2.474720 -2.613718 3.056459 0
M  V30 END ATOM
M  V30 BEGIN BOND
M  V30 1 1 1 2
M  V30 2 1 2 3
M  V30 3 1 3 4
M  V30 4 1 4 5
M  V30 5 1 5 6
M  V30 6 1 6 7
M  V30 7 2 7 8
M  V30 8 1 8 9
M  V30 9 2 9 10
M  V30 10 1 10 11
M  V30 11 1 11 12
M  V30 12 2 12 13
M  V30 13 1 13 14
M  V30 14 2 14 15
M  V30 15 1 15 16
M  V30 16 2 16 17
M  V30 17 1 17 18
M  V30 18 2 18 19
M  V30 19 1 19 20
M  V30 20 2 20 21
M  V30 21 1 21 22
M  V30 22 1 22 23
M  V30 23 1 23 24
M  V30 24 1 24 25
M  V30 25 1 25 26
M  V30 26 1 22 27
M  V30 27 2 27 28
M  V30 28 1 10 29
M  V30 29 2 29 30
M  V30 30 1 6 31
M  V30 31 1 31 32
M  V30 32 1 32 3
M  V30 33 1 30 7
M  V30 34 1 28 12
M  V30 35 1 27 15
M  V30 36 1 21 16
M  V30 37 1 26 23
M  V30 38 1 1 33
M  V30 39 1 1 34
M  V30 40 1 1 35
M  V30 41 1 2 36
M  V30 42 1 3 37
M  V30 43 1 4 38
M  V30 44 1 4 39
M  V30 45 1 5 40
M  V30 46 1 5 41
M  V30 47 1 8 42
M  V30 48 1 9 43
M  V30 49 1 11 44
M  V30 50 1 14 45
M  V30 51 1 17 46
M  V30 52 1 18 47
M  V30 53 1 20 48
M  V30 54 1 23 49
M  V30 55 1 24 50
M  V30 56 1 24 51
M  V30 57 1 25 52
M  V30 58 1 25 53
M  V30 59 1 26 54
M  V30 60 1 26 55
M  V30 61 1 31 56
M  V30 62 1 31 57
M  V30 63 1 32 58
M  V30 64 1 32 59
M  V30 END BOND
M  V30 END CTAB
M  END
>  <Dataset>  (640) 
ChEMBL_Kinases

>  <Ligand_Instance>  (640) 
nan

>  <PDB_ID>  (640) 
nan

>  <Standardized_SMILES>  (640) 
CNC1CCN(c2ccc(Nc3ncc4c5ccncc5n(C5CCC5)c4n3)nn2)CC1

>  <Name>  (640) 
nan

>  <Pocket>  (640) 
nan

>  <ATP_Site>  (640) 
nan

>  <Peripheral>  (640) 
nan

>  <Num_H_Atoms_ProtBoundConf>  (640) 
nan

>  <Num_Resolved_Atoms>  (640) 
nan

>  <Num_Not_Resolved_Atoms>  (640) 
nan

$$$$
CHEMBL403989
     RDKit          3D

  0  0  0  0  0  0  0  0  0  0999 V3000
M  V30 BEGIN CTAB
M  V30 COUNTS 72 77 0 0 0
M  V30 BEGIN ATOM
M  V30 1 C 0.853682 0.522613 1.960721 0
M  V30 2 C 1.112766 -0.259872 0.702014 0
M  V30 3 C 1.519436 0.470727 -0.395549 0
M  V30 4 C 1.777311 -0.189464 -1.578908 0
M  V30 5 C 2.222968 0.339323 -2.865590 0
M  V30 6 C 3.282460 1.243142 -2.761753 0
M  V30 7 C 3.790843 1.774820 -3.929595 0
M  V30 8 O 4.815019 2.679615 -4.148455 0
M  V30 9 C 6.103109 2.486457 -3.673276 0
M  V30 10 O 5.860939 1.384040 -3.120588 0
M  V30 11 C 7.372690 3.195150 -3.710677 0
M  V30 12 C 8.380359 2.576616 -3.049180 0
M  V30 13 C 9.603361 3.259722 -3.081038 0
M  V30 14 C 9.750600 4.480246 -3.747258 0
M  V30 15 C 8.646121 5.003614 -4.382610 0
M  V30 16 C 7.405125 4.388420 -4.396327 0
M  V30 17 C 3.253295 1.411890 -5.171435 0
M  V30 18 C 2.188972 0.504316 -5.253056 0
M  V30 19 C 1.676904 -0.030607 -4.074992 0
M  V30 20 Cl 0.351999 -1.138632 -4.147557 0
M  V30 21 C 1.614444 -1.579598 -1.617423 0
M  V30 22 C 1.205650 -2.271455 -0.499520 0
M  V30 23 N 1.013826 -3.613287 -0.437364 0
M  V30 24 N 0.617114 -4.221538 0.662334 0
M  V30 25 C 0.356693 -3.617077 1.835441 0
M  V30 26 N -0.068359 -4.396591 2.913837 0
M  V30 27 C -1.456780 -4.491925 3.242501 0
M  V30 28 C -2.289399 -3.654584 2.494297 0
M  V30 29 C -3.631685 -3.722456 2.793762 0
M  V30 30 C -4.200165 -4.530074 3.748310 0
M  V30 31 O -5.497262 -4.683178 4.138621 0
M  V30 32 C -6.630766 -4.019605 3.682435 0
M  V30 33 C -6.571791 -2.544210 3.990553 0
M  V30 34 N -7.745682 -1.822458 3.523744 0
M  V30 35 C -7.567493 -0.435843 3.913152 0
M  V30 36 C -7.008872 0.281538 2.724220 0
M  V30 37 C -7.443140 -0.533691 1.545220 0
M  V30 38 C -7.927830 -1.848128 2.113553 0
M  V30 39 C -3.325744 -5.331224 4.448902 0
M  V30 40 C -1.954675 -5.331254 4.216817 0
M  V30 41 N 0.534768 -2.258800 1.826486 0
M  V30 42 C 0.938494 -1.627693 0.711535 0
M  V30 43 H 1.758829 1.055462 2.273845 0
M  V30 44 H 0.600425 -0.164045 2.794472 0
M  V30 45 H 0.036776 1.259570 1.791137 0
M  V30 46 H 1.667865 1.528966 -0.453280 0
M  V30 47 H 3.788020 1.608788 -1.903786 0
M  V30 48 H 8.310217 1.652429 -2.531037 0
M  V30 49 H 10.464072 2.854357 -2.586427 0
M  V30 50 H 10.719351 4.940635 -3.724906 0
M  V30 51 H 8.799232 5.958113 -4.892524 0
M  V30 52 H 6.583239 4.856334 -4.914976 0
M  V30 53 H 3.553710 1.748824 -6.158576 0
M  V30 54 H 1.732189 0.188075 -6.176964 0
M  V30 55 H 1.770741 -2.283020 -2.438587 0
M  V30 56 H 0.642694 -4.903803 3.470766 0
M  V30 57 H -1.947954 -2.980554 1.720516 0
M  V30 58 H -4.292779 -3.099973 2.218211 0
M  V30 59 H -6.701917 -4.218093 2.579017 0
M  V30 60 H -7.556630 -4.392852 4.178224 0
M  V30 61 H -5.665284 -2.024607 3.698030 0
M  V30 62 H -6.605947 -2.461625 5.114111 0
M  V30 63 H -6.848147 -0.351090 4.743764 0
M  V30 64 H -8.519270 -0.000708 4.261545 0
M  V30 65 H -7.381336 1.314288 2.616107 0
M  V30 66 H -5.886733 0.358858 2.795423 0
M  V30 67 H -6.546716 -0.688679 0.884227 0
M  V30 68 H -8.203952 -0.025427 0.915831 0
M  V30 69 H -7.473492 -2.663774 1.563033 0
M  V30 70 H -9.035378 -1.878558 1.932676 0
M  V30 71 H -3.612296 -6.035248 5.242797 0
M  V30 72 H -1.196560 -5.919782 4.711660 0
M  V30 END ATOM
M  V30 BEGIN BOND
M  V30 1 1 1 2
M  V30 2 2 2 3
M  V30 3 1 3 4
M  V30 4 1 4 5
M  V30 5 2 5 6
M  V30 6 1 6 7
M  V30 7 1 7 8
M  V30 8 1 8 9
M  V30 9 2 9 10
M  V30 10 1 9 11
M  V30 11 2 11 12
M  V30 12 1 12 13
M  V30 13 2 13 14
M  V30 14 1 14 15
M  V30 15 2 15 16
M  V30 16 2 7 17
M  V30 17 1 17 18
M  V30 18 2 18 19
M  V30 19 1 19 20
M  V30 20 2 4 21
M  V30 21 1 21 22
M  V30 22 2 22 23
M  V30 23 1 23 24
M  V30 24 2 24 25
M  V30 25 1 25 26
M  V30 26 1 26 27
M  V30 27 2 27 28
M  V30 28 1 28 29
M  V30 29 2 29 30
M  V30 30 1 30 31
M  V30 31 1 31 32
M  V30 32 1 32 33
M  V30 33 1 33 34
M  V30 34 1 34 35
M  V30 35 1 35 36
M  V30 36 1 36 37
M  V30 37 1 37 38
M  V30 38 1 30 39
M  V30 39 2 39 40
M  V30 40 1 25 41
M  V30 41 2 41 42
M  V30 42 1 42 2
M  V30 43 1 19 5
M  V30 44 1 42 22
M  V30 45 1 16 11
M  V30 46 1 40 27
M  V30 47 1 38 34
M  V30 48 1 1 43
M  V30 49 1 1 44
M  V30 50 1 1 45
M  V30 51 1 3 46
M  V30 52 1 6 47
M  V30 53 1 12 48
M  V30 54 1 13 49
M  V30 55 1 14 50
M  V30 56 1 15 51
M  V30 57 1 16 52
M  V30 58 1 17 53
M  V30 59 1 18 54
M  V30 60 1 21 55
M  V30 61 1 26 56
M  V30 62 1 28 57
M  V30 63 1 29 58
M  V30 64 1 32 59
M  V30 65 1 32 60
M  V30 66 1 33 61
M  V30 67 1 33 62
M  V30 68 1 35 63
M  V30 69 1 35 64
M  V30 70 1 36 65
M  V30 71 1 36 66
M  V30 72 1 37 67
M  V30 73 1 37 68
M  V30 74 1 38 69
M  V30 75 1 38 70
M  V30 76 1 39 71
M  V30 77 1 40 72
M  V30 END BOND
M  V30 END CTAB
M  END
>  <Dataset>  (641) 
ChEMBL_Kinases

>  <Ligand_Instance>  (641) 
nan

>  <PDB_ID>  (641) 
nan

>  <Standardized_SMILES>  (641) 
Cc1cc(-c2cc(OC(=O)c3ccccc3)ccc2Cl)cc2nnc(Nc3ccc(OCCN4CCCC4)cc3)nc12

>  <Name>  (641) 
TG100-801

>  <Pocket>  (641) 
nan

>  <ATP_Site>  (641) 
nan

>  <Peripheral>  (641) 
nan

>  <Num_H_Atoms_ProtBoundConf>  (641) 
nan

>  <Num_Resolved_Atoms>  (641) 
nan

>  <Num_Not_Resolved_Atoms>  (641) 
nan

$$$$
CHEMBL364197
     RDKit          3D

  0  0  0  0  0  0  0  0  0  0999 V3000
M  V30 BEGIN CTAB
M  V30 COUNTS 47 51 0 0 0
M  V30 BEGIN ATOM
M  V30 1 C 1.581020 -4.727235 -2.890780 0
M  V30 2 C 1.267300 -3.896462 -1.690074 0
M  V30 3 C 2.073124 -2.781340 -1.514388 0
M  V30 4 C 1.803977 -1.995987 -0.411360 0
M  V30 5 C 0.771009 -2.313872 0.478723 0
M  V30 6 C 0.279377 -1.723678 1.646362 0
M  V30 7 C 0.894428 -0.501755 2.152189 0
M  V30 8 C 1.529225 -0.367059 3.342061 0
M  V30 9 C 2.042773 0.876267 3.633858 0
M  V30 10 N 1.903539 1.881887 2.760614 0
M  V30 11 C 1.281007 1.773863 1.579351 0
M  V30 12 N 1.177470 2.890541 0.712788 0
M  V30 13 C 0.567198 2.969118 -0.557187 0
M  V30 14 C -0.059324 1.942377 -1.218208 0
M  V30 15 C -0.655550 2.019907 -2.458592 0
M  V30 16 C -0.623987 3.235438 -3.099763 0
M  V30 17 F -1.196714 3.356199 -4.317503 0
M  V30 18 C -0.011110 4.299284 -2.487452 0
M  V30 19 F 0.021803 5.498197 -3.115916 0
M  V30 20 C 0.561140 4.147472 -1.252134 0
M  V30 21 N 0.797131 0.550200 1.335383 0
M  V30 22 C -0.774204 -2.539503 2.060994 0
M  V30 23 C -1.499452 -2.173751 3.276972 0
M  V30 24 C -2.158086 -0.938005 3.207626 0
M  V30 25 C -2.889381 -0.459591 4.289951 0
M  V30 26 C -2.960558 -1.223123 5.446424 0
M  V30 27 C -2.303259 -2.456811 5.516302 0
M  V30 28 C -1.580173 -2.921991 4.435842 0
M  V30 29 N -0.898633 -3.558996 1.183725 0
M  V30 30 N 0.025926 -3.431788 0.229180 0
M  V30 31 N 0.283086 -4.190575 -0.833133 0
M  V30 32 H 2.564280 -5.212197 -2.813640 0
M  V30 33 H 0.822265 -5.517249 -3.057481 0
M  V30 34 H 1.572057 -4.100792 -3.827567 0
M  V30 35 H 2.891895 -2.465725 -2.155745 0
M  V30 36 H 2.404806 -1.114951 -0.230406 0
M  V30 37 H 1.595369 -1.231782 3.985745 0
M  V30 38 H 2.556107 1.024246 4.572191 0
M  V30 39 H 1.619627 3.786654 1.070396 0
M  V30 40 H -0.112603 0.967053 -0.759861 0
M  V30 41 H -1.133538 1.169375 -2.923975 0
M  V30 42 H 1.033473 5.041814 -0.823044 0
M  V30 43 H -2.117772 -0.316812 2.307659 0
M  V30 44 H -3.375778 0.495641 4.183390 0
M  V30 45 H -3.540055 -0.837037 6.295325 0
M  V30 46 H -2.377845 -3.019282 6.420200 0
M  V30 47 H -1.062303 -3.852454 4.436557 0
M  V30 END ATOM
M  V30 BEGIN BOND
M  V30 1 1 1 2
M  V30 2 1 2 3
M  V30 3 2 3 4
M  V30 4 1 4 5
M  V30 5 2 5 6
M  V30 6 1 6 7
M  V30 7 2 7 8
M  V30 8 1 8 9
M  V30 9 2 9 10
M  V30 10 1 10 11
M  V30 11 1 11 12
M  V30 12 1 12 13
M  V30 13 2 13 14
M  V30 14 1 14 15
M  V30 15 2 15 16
M  V30 16 1 16 17
M  V30 17 1 16 18
M  V30 18 1 18 19
M  V30 19 2 18 20
M  V30 20 2 11 21
M  V30 21 1 6 22
M  V30 22 1 22 23
M  V30 23 2 23 24
M  V30 24 1 24 25
M  V30 25 2 25 26
M  V30 26 1 26 27
M  V30 27 2 27 28
M  V30 28 2 22 29
M  V30 29 1 29 30
M  V30 30 1 30 31
M  V30 31 2 31 2
M  V30 32 1 30 5
M  V30 33 1 21 7
M  V30 34 1 28 23
M  V30 35 1 20 13
M  V30 36 1 1 32
M  V30 37 1 1 33
M  V30 38 1 1 34
M  V30 39 1 3 35
M  V30 40 1 4 36
M  V30 41 1 8 37
M  V30 42 1 9 38
M  V30 43 1 12 39
M  V30 44 1 14 40
M  V30 45 1 15 41
M  V30 46 1 20 42
M  V30 47 1 24 43
M  V30 48 1 25 44
M  V30 49 1 26 45
M  V30 50 1 27 46
M  V30 51 1 28 47
M  V30 END BOND
M  V30 END CTAB
M  END
>  <Dataset>  (642) 
ChEMBL_Kinases

>  <Ligand_Instance>  (642) 
nan

>  <PDB_ID>  (642) 
nan

>  <Standardized_SMILES>  (642) 
Cc1ccc2c(-c3ccnc(Nc4ccc(F)c(F)c4)n3)c(-c3ccccc3)nn2n1

>  <Name>  (642) 
nan

>  <Pocket>  (642) 
nan

>  <ATP_Site>  (642) 
nan

>  <Peripheral>  (642) 
nan

>  <Num_H_Atoms_ProtBoundConf>  (642) 
nan

>  <Num_Resolved_Atoms>  (642) 
nan

>  <Num_Not_Resolved_Atoms>  (642) 
nan

$$$$
CHEMBL403737
     RDKit          3D

  0  0  0  0  0  0  0  0  0  0999 V3000
M  V30 BEGIN CTAB
M  V30 COUNTS 56 60 0 0 0
M  V30 BEGIN ATOM
M  V30 1 C 4.788695 -0.681508 3.914691 0
M  V30 2 C 4.026429 0.353542 3.118799 0
M  V30 3 C 2.727065 0.652129 3.804770 0
M  V30 4 S 3.735801 -0.219858 1.445538 0
M  V30 5 O 5.049691 -0.492116 0.777038 0
M  V30 6 O 2.923868 -1.461217 1.523325 0
M  V30 7 N 2.867312 1.031360 0.635466 0
M  V30 8 C 3.400509 2.255060 0.469880 0
M  V30 9 N 4.676645 2.770179 0.875509 0
M  V30 10 N 2.482943 2.994077 -0.191153 0
M  V30 11 C 1.370675 2.246327 -0.445860 0
M  V30 12 C 0.169913 2.555755 -1.091635 0
M  V30 13 C -0.755143 1.535440 -1.170066 0
M  V30 14 C -0.515325 0.286898 -0.646068 0
M  V30 15 C -1.412968 -0.861214 -0.670649 0
M  V30 16 N -1.074875 -2.007584 -1.291402 0
M  V30 17 C -2.038404 -2.928244 -1.187115 0
M  V30 18 C -2.020544 -4.287378 -1.732144 0
M  V30 19 C -3.119052 -5.110876 -1.529055 0
M  V30 20 C -3.116626 -6.409831 -2.039516 0
M  V30 21 C -2.007550 -6.853252 -2.744414 0
M  V30 22 Cl -1.938171 -8.474590 -3.413060 0
M  V30 23 C -0.937047 -5.996246 -2.920949 0
M  V30 24 C -0.912629 -4.712606 -2.429334 0
M  V30 25 N -3.018136 -2.353478 -0.480570 0
M  V30 26 C -2.660375 -1.082387 -0.149932 0
M  V30 27 C -3.395165 -0.086445 0.603681 0
M  V30 28 C -3.064603 0.523793 1.804887 0
M  V30 29 C -3.924667 1.453282 2.348614 0
M  V30 30 C -5.107452 1.792552 1.727542 0
M  V30 31 C -5.454548 1.193165 0.526408 0
M  V30 32 C -4.582447 0.252190 -0.022667 0
M  V30 33 C 0.697253 0.007050 -0.005014 0
M  V30 34 C 1.640016 1.008251 0.087858 0
M  V30 35 H 4.405924 -1.668438 3.572594 0
M  V30 36 H 5.857865 -0.552930 3.729852 0
M  V30 37 H 4.529524 -0.518919 4.983627 0
M  V30 38 H 4.620365 1.287884 3.024525 0
M  V30 39 H 2.584903 1.760755 3.868020 0
M  V30 40 H 1.865917 0.149668 3.338848 0
M  V30 41 H 2.822601 0.340330 4.883545 0
M  V30 42 H 5.439153 2.354710 0.313681 0
M  V30 43 H 4.845653 3.458039 1.618649 0
M  V30 44 H -0.028023 3.529128 -1.505057 0
M  V30 45 H -1.707311 1.653405 -1.639778 0
M  V30 46 H -0.186704 -2.208701 -1.804957 0
M  V30 47 H -3.968508 -4.754727 -0.982856 0
M  V30 48 H -3.951215 -7.095242 -1.908795 0
M  V30 49 H -0.056871 -6.335191 -3.474929 0
M  V30 50 H -0.048733 -4.083825 -2.596020 0
M  V30 51 H -2.118310 0.177001 2.191920 0
M  V30 52 H -3.607071 1.889659 3.284735 0
M  V30 53 H -5.758414 2.538643 2.201657 0
M  V30 54 H -6.392074 1.482939 0.064784 0
M  V30 55 H -4.966384 -0.148838 -0.969475 0
M  V30 56 H 0.940136 -0.953434 0.424870 0
M  V30 END ATOM
M  V30 BEGIN BOND
M  V30 1 1 1 2
M  V30 2 1 2 3
M  V30 3 1 2 4
M  V30 4 2 4 5
M  V30 5 2 4 6
M  V30 6 1 4 7
M  V30 7 1 7 8
M  V30 8 1 8 9
M  V30 9 2 8 10
M  V30 10 1 10 11
M  V30 11 2 11 12
M  V30 12 1 12 13
M  V30 13 2 13 14
M  V30 14 1 14 15
M  V30 15 1 15 16
M  V30 16 1 16 17
M  V30 17 1 17 18
M  V30 18 2 18 19
M  V30 19 1 19 20
M  V30 20 2 20 21
M  V30 21 1 21 22
M  V30 22 1 21 23
M  V30 23 2 23 24
M  V30 24 2 17 25
M  V30 25 1 25 26
M  V30 26 1 26 27
M  V30 27 2 27 28
M  V30 28 1 28 29
M  V30 29 2 29 30
M  V30 30 1 30 31
M  V30 31 2 31 32
M  V30 32 1 14 33
M  V30 33 2 33 34
M  V30 34 1 34 7
M  V30 35 1 34 11
M  V30 36 2 26 15
M  V30 37 1 32 27
M  V30 38 1 24 18
M  V30 39 1 1 35
M  V30 40 1 1 36
M  V30 41 1 1 37
M  V30 42 1 2 38
M  V30 43 1 3 39
M  V30 44 1 3 40
M  V30 45 1 3 41
M  V30 46 1 9 42
M  V30 47 1 9 43
M  V30 48 1 12 44
M  V30 49 1 13 45
M  V30 50 1 16 46
M  V30 51 1 19 47
M  V30 52 1 20 48
M  V30 53 1 23 49
M  V30 54 1 24 50
M  V30 55 1 28 51
M  V30 56 1 29 52
M  V30 57 1 30 53
M  V30 58 1 31 54
M  V30 59 1 32 55
M  V30 60 1 33 56
M  V30 END BOND
M  V30 END CTAB
M  END
>  <Dataset>  (643) 
ChEMBL_Kinases

>  <Ligand_Instance>  (643) 
nan

>  <PDB_ID>  (643) 
nan

>  <Standardized_SMILES>  (643) 
CC(C)S(=O)(=O)n1c(N)nc2ccc(-c3[nH]c(-c4ccc(Cl)cc4)nc3-c3ccccc3)cc21

>  <Name>  (643) 
nan

>  <Pocket>  (643) 
nan

>  <ATP_Site>  (643) 
nan

>  <Peripheral>  (643) 
nan

>  <Num_H_Atoms_ProtBoundConf>  (643) 
nan

>  <Num_Resolved_Atoms>  (643) 
nan

>  <Num_Not_Resolved_Atoms>  (643) 
nan

$$$$
CHEMBL403679
     RDKit          3D

  0  0  0  0  0  0  0  0  0  0999 V3000
M  V30 BEGIN CTAB
M  V30 COUNTS 62 67 0 0 0
M  V30 BEGIN ATOM
M  V30 1 O 3.173884 3.295180 4.403124 0
M  V30 2 C 2.163253 2.623522 4.083915 0
M  V30 3 N 1.233657 1.908971 4.916164 0
M  V30 4 C 0.255538 1.303212 4.096281 0
M  V30 5 O -0.602541 0.656886 4.710259 0
M  V30 6 C 0.505144 1.593807 2.727219 0
M  V30 7 C 1.634528 2.374660 2.726411 0
M  V30 8 C 2.159421 2.841912 1.517290 0
M  V30 9 C 3.362738 3.674673 1.508525 0
M  V30 10 C 3.162115 5.037844 1.589124 0
M  V30 11 C 4.198218 5.958220 1.592650 0
M  V30 12 C 5.465621 5.401544 1.508481 0
M  V30 13 C 5.680780 4.040098 1.427505 0
M  V30 14 C 4.626508 3.147741 1.426038 0
M  V30 15 Cl 4.769457 1.422787 1.328841 0
M  V30 16 C 1.541926 2.517837 0.327660 0
M  V30 17 C 0.416420 1.737183 0.361572 0
M  V30 18 N -0.372109 1.278799 -0.640502 0
M  V30 19 C -1.359060 0.546500 -0.057854 0
M  V30 20 C -2.381152 -0.103153 -0.716165 0
M  V30 21 C -3.327314 -0.818200 -0.005996 0
M  V30 22 C -4.459483 -1.543835 -0.646547 0
M  V30 23 C -4.176114 -3.020049 -0.649010 0
M  V30 24 C -2.883421 -3.265851 -1.439649 0
M  V30 25 C -2.645298 -4.728877 -1.412986 0
M  V30 26 N -1.506415 -5.232737 -2.076206 0
M  V30 27 C -1.348729 -6.664273 -2.000399 0
M  V30 28 C -0.084899 -7.102703 -1.314933 0
M  V30 29 O 0.165023 -6.233608 -0.279843 0
M  V30 30 C 0.543799 -4.981323 -0.741740 0
M  V30 31 C -0.284141 -4.511730 -1.907380 0
M  V30 32 C -3.205953 -0.853857 1.381470 0
M  V30 33 O -4.155911 -1.573812 2.112992 0
M  V30 34 C -2.159768 -0.181618 1.968903 0
M  V30 35 C -1.211147 0.530803 1.309189 0
M  V30 36 C -0.099189 1.277956 1.550671 0
M  V30 37 H 1.405665 1.937578 5.957652 0
M  V30 38 H 2.150654 5.449963 1.654530 0
M  V30 39 H 3.993131 6.998887 1.656108 0
M  V30 40 H 6.305378 6.085997 1.507340 0
M  V30 41 H 6.671470 3.599283 1.362287 0
M  V30 42 H 1.967046 2.891006 -0.580864 0
M  V30 43 H -0.198354 1.484962 -1.644516 0
M  V30 44 H -2.483183 -0.083317 -1.778451 0
M  V30 45 H -4.565507 -1.159209 -1.665067 0
M  V30 46 H -5.413772 -1.360096 -0.119809 0
M  V30 47 H -4.095686 -3.457849 0.343412 0
M  V30 48 H -5.005337 -3.512659 -1.214885 0
M  V30 49 H -2.101516 -2.747008 -0.862006 0
M  V30 50 H -3.094427 -2.843676 -2.433547 0
M  V30 51 H -2.618642 -5.037594 -0.341666 0
M  V30 52 H -3.556260 -5.226514 -1.831971 0
M  V30 53 H -2.222030 -7.069823 -1.458538 0
M  V30 54 H -1.364637 -7.067002 -3.031098 0
M  V30 55 H 0.768861 -7.226222 -2.008586 0
M  V30 56 H -0.285716 -8.105259 -0.850998 0
M  V30 57 H 1.624237 -5.021876 -0.993710 0
M  V30 58 H 0.455241 -4.275958 0.119172 0
M  V30 59 H -0.438543 -3.440559 -1.806172 0
M  V30 60 H 0.329530 -4.675869 -2.832095 0
M  V30 61 H -4.684126 -1.055451 2.825866 0
M  V30 62 H -2.140044 -0.258483 3.026245 0
M  V30 END ATOM
M  V30 BEGIN BOND
M  V30 1 2 1 2
M  V30 2 1 2 3
M  V30 3 1 3 4
M  V30 4 2 4 5
M  V30 5 1 4 6
M  V30 6 2 6 7
M  V30 7 1 7 8
M  V30 8 1 8 9
M  V30 9 2 9 10
M  V30 10 1 10 11
M  V30 11 2 11 12
M  V30 12 1 12 13
M  V30 13 2 13 14
M  V30 14 1 14 15
M  V30 15 2 8 16
M  V30 16 1 16 17
M  V30 17 1 17 18
M  V30 18 1 18 19
M  V30 19 2 19 20
M  V30 20 1 20 21
M  V30 21 1 21 22
M  V30 22 1 22 23
M  V30 23 1 23 24
M  V30 24 1 24 25
M  V30 25 1 25 26
M  V30 26 1 26 27
M  V30 27 1 27 28
M  V30 28 1 28 29
M  V30 29 1 29 30
M  V30 30 1 30 31
M  V30 31 2 21 32
M  V30 32 1 32 33
M  V30 33 1 32 34
M  V30 34 2 34 35
M  V30 35 1 35 36
M  V30 36 1 7 2
M  V30 37 1 14 9
M  V30 38 2 36 17
M  V30 39 1 36 6
M  V30 40 1 35 19
M  V30 41 1 31 26
M  V30 42 1 3 37
M  V30 43 1 10 38
M  V30 44 1 11 39
M  V30 45 1 12 40
M  V30 46 1 13 41
M  V30 47 1 16 42
M  V30 48 1 18 43
M  V30 49 1 20 44
M  V30 50 1 22 45
M  V30 51 1 22 46
M  V30 52 1 23 47
M  V30 53 1 23 48
M  V30 54 1 24 49
M  V30 55 1 24 50
M  V30 56 1 25 51
M  V30 57 1 25 52
M  V30 58 1 27 53
M  V30 59 1 27 54
M  V30 60 1 28 55
M  V30 61 1 28 56
M  V30 62 1 30 57
M  V30 63 1 30 58
M  V30 64 1 31 59
M  V30 65 1 31 60
M  V30 66 1 33 61
M  V30 67 1 34 62
M  V30 END BOND
M  V30 END CTAB
M  END
>  <Dataset>  (644) 
ChEMBL_Kinases

>  <Ligand_Instance>  (644) 
nan

>  <PDB_ID>  (644) 
nan

>  <Standardized_SMILES>  (644) 
O=C1NC(=O)c2c1c(-c1ccccc1Cl)cc1[nH]c3cc(CCCCN4CCOCC4)c(O)cc3c21

>  <Name>  (644) 
nan

>  <Pocket>  (644) 
nan

>  <ATP_Site>  (644) 
nan

>  <Peripheral>  (644) 
nan

>  <Num_H_Atoms_ProtBoundConf>  (644) 
nan

>  <Num_Resolved_Atoms>  (644) 
nan

>  <Num_Not_Resolved_Atoms>  (644) 
nan

$$$$
CHEMBL403356
     RDKit          3D

  0  0  0  0  0  0  0  0  0  0999 V3000
M  V30 BEGIN CTAB
M  V30 COUNTS 64 69 0 0 0
M  V30 BEGIN ATOM
M  V30 1 C 6.907799 -1.674544 5.768987 0
M  V30 2 S 7.370532 -0.546281 4.399593 0
M  V30 3 C 5.923801 0.445981 3.993823 0
M  V30 4 N 5.609233 1.635917 4.558268 0
M  V30 5 C 4.483843 2.267915 4.150910 0
M  V30 6 C 3.635683 1.763850 3.187772 0
M  V30 7 C 2.502588 2.443387 2.806207 0
M  V30 8 C 1.719796 1.857471 1.836079 0
M  V30 9 C 0.494340 2.521571 1.374069 0
M  V30 10 C 0.784251 3.759134 0.796842 0
M  V30 11 C -0.227105 4.555117 0.293247 0
M  V30 12 C -1.536202 4.092037 0.376666 0
M  V30 13 C -1.824925 2.853181 0.954583 0
M  V30 14 C -0.808499 2.066542 1.454073 0
M  V30 15 C 2.059379 0.644329 1.274374 0
M  V30 16 C 1.267492 -0.025649 0.241908 0
M  V30 17 C 0.737663 -1.288309 0.519429 0
M  V30 18 C -0.018068 -1.985339 -0.401832 0
M  V30 19 C -0.273797 -1.442490 -1.642145 0
M  V30 20 C -1.052381 -2.016903 -2.773462 0
M  V30 21 N -2.405328 -1.658042 -2.692928 0
M  V30 22 C -3.304389 -2.064236 -3.698276 0
M  V30 23 C -4.524029 -2.689776 -3.066831 0
M  V30 24 C -4.557281 -2.607071 -1.568730 0
M  V30 25 C -3.973891 -3.822135 -0.944066 0
M  V30 26 N -2.817786 -4.260561 -0.939545 0
M  V30 27 N -2.367487 -5.300633 -0.395019 0
M  V30 28 C -3.295315 -6.068285 0.300250 0
M  V30 29 N -2.747668 -7.283956 0.931114 0
M  V30 30 S -4.881541 -5.076254 0.050282 0
M  V30 31 C -4.063302 -1.325081 -0.990293 0
M  V30 32 C -2.842519 -0.777849 -1.691056 0
M  V30 33 C 0.249463 -0.178304 -1.935740 0
M  V30 34 C 1.006432 0.518072 -1.011235 0
M  V30 35 N 3.197563 0.011146 1.690579 0
M  V30 36 C 3.998049 0.531023 2.629638 0
M  V30 37 N 5.129743 -0.088200 3.050135 0
M  V30 38 H 7.782334 -2.211040 6.141513 0
M  V30 39 H 6.358296 -1.116883 6.560431 0
M  V30 40 H 6.146521 -2.386021 5.337826 0
M  V30 41 H 4.239654 3.222382 4.608799 0
M  V30 42 H 2.224326 3.391801 3.236550 0
M  V30 43 H 1.769826 4.199853 0.690415 0
M  V30 44 H -0.128943 5.520429 -0.171331 0
M  V30 45 H -2.390075 4.667937 -0.000751 0
M  V30 46 H -2.824896 2.452012 1.041588 0
M  V30 47 H -0.890005 1.095812 1.923602 0
M  V30 48 H 0.917339 -1.744667 1.478455 0
M  V30 49 H -0.451696 -2.952614 -0.255487 0
M  V30 50 H -0.936518 -3.138541 -2.710552 0
M  V30 51 H -0.591782 -1.757646 -3.748664 0
M  V30 52 H -2.794261 -2.813032 -4.349178 0
M  V30 53 H -3.603578 -1.219167 -4.387404 0
M  V30 54 H -5.460023 -2.325128 -3.538590 0
M  V30 55 H -4.499813 -3.790015 -3.316793 0
M  V30 56 H -5.655495 -2.659275 -1.296730 0
M  V30 57 H -2.664109 -8.025846 0.207086 0
M  V30 58 H -2.569801 -7.118804 1.960588 0
M  V30 59 H -3.778275 -1.535642 0.065365 0
M  V30 60 H -4.880709 -0.584038 -0.953535 0
M  V30 61 H -3.164266 0.179557 -2.190752 0
M  V30 62 H -2.025991 -0.564918 -0.975116 0
M  V30 63 H 0.109259 0.345538 -2.885547 0
M  V30 64 H 1.417012 1.495804 -1.225742 0
M  V30 END ATOM
M  V30 BEGIN BOND
M  V30 1 1 1 2
M  V30 2 1 2 3
M  V30 3 2 3 4
M  V30 4 1 4 5
M  V30 5 2 5 6
M  V30 6 1 6 7
M  V30 7 2 7 8
M  V30 8 1 8 9
M  V30 9 2 9 10
M  V30 10 1 10 11
M  V30 11 2 11 12
M  V30 12 1 12 13
M  V30 13 2 13 14
M  V30 14 1 8 15
M  V30 15 1 15 16
M  V30 16 2 16 17
M  V30 17 1 17 18
M  V30 18 2 18 19
M  V30 19 1 19 20
M  V30 20 1 20 21
M  V30 21 1 21 22
M  V30 22 1 22 23
M  V30 23 1 23 24
M  V30 24 1 24 25
M  V30 25 2 25 26
M  V30 26 1 26 27
M  V30 27 2 27 28
M  V30 28 1 28 29
M  V30 29 1 28 30
M  V30 30 1 24 31
M  V30 31 1 31 32
M  V30 32 1 19 33
M  V30 33 2 33 34
M  V30 34 2 15 35
M  V30 35 1 35 36
M  V30 36 2 36 37
M  V30 37 1 37 3
M  V30 38 1 36 6
M  V30 39 1 14 9
M  V30 40 1 34 16
M  V30 41 1 32 21
M  V30 42 1 30 25
M  V30 43 1 1 38
M  V30 44 1 1 39
M  V30 45 1 1 40
M  V30 46 1 5 41
M  V30 47 1 7 42
M  V30 48 1 10 43
M  V30 49 1 11 44
M  V30 50 1 12 45
M  V30 51 1 13 46
M  V30 52 1 14 47
M  V30 53 1 17 48
M  V30 54 1 18 49
M  V30 55 1 20 50
M  V30 56 1 20 51
M  V30 57 1 22 52
M  V30 58 1 22 53
M  V30 59 1 23 54
M  V30 60 1 23 55
M  V30 61 1 24 56
M  V30 62 1 29 57
M  V30 63 1 29 58
M  V30 64 1 31 59
M  V30 65 1 31 60
M  V30 66 1 32 61
M  V30 67 1 32 62
M  V30 68 1 33 63
M  V30 69 1 34 64
M  V30 END BOND
M  V30 END CTAB
M  END
>  <Dataset>  (645) 
ChEMBL_Kinases

>  <Ligand_Instance>  (645) 
nan

>  <PDB_ID>  (645) 
nan

>  <Standardized_SMILES>  (645) 
CSc1ncc2cc(-c3ccccc3)c(-c3ccc(CN4CCC(c5nnc(N)s5)CC4)cc3)nc2n1

>  <Name>  (645) 
nan

>  <Pocket>  (645) 
nan

>  <ATP_Site>  (645) 
nan

>  <Peripheral>  (645) 
nan

>  <Num_H_Atoms_ProtBoundConf>  (645) 
nan

>  <Num_Resolved_Atoms>  (645) 
nan

>  <Num_Not_Resolved_Atoms>  (645) 
nan

$$$$
CHEMBL3654674
     RDKit          3D

  0  0  0  0  0  0  0  0  0  0999 V3000
M  V30 BEGIN CTAB
M  V30 COUNTS 32 34 0 0 0
M  V30 BEGIN ATOM
M  V30 1 C -2.442861 -5.303291 2.788386 0
M  V30 2 C -1.387820 -4.723217 1.892535 0
M  V30 3 C -1.066264 -3.393894 2.059134 0
M  V30 4 C -0.089063 -2.803351 1.249708 0
M  V30 5 C 0.156484 -1.389020 1.529160 0
M  V30 6 N 0.288280 -0.912290 2.791278 0
M  V30 7 N 0.501595 0.379102 2.787222 0
M  V30 8 C 0.519471 0.809012 1.520037 0
M  V30 9 C 0.692839 2.024294 0.863817 0
M  V30 10 C 0.646018 2.091101 -0.514571 0
M  V30 11 N 0.840421 3.393561 -1.012562 0
M  V30 12 C 1.972569 4.137093 -1.401690 0
M  V30 13 N 1.808966 5.469175 -1.873814 0
M  V30 14 O 3.003909 3.433553 -1.249347 0
M  V30 15 N 0.430515 0.971802 -1.240166 0
M  V30 16 C 0.255295 -0.234043 -0.665273 0
M  V30 17 C 0.304159 -0.288241 0.712152 0
M  V30 18 C 0.549469 -3.557074 0.286107 0
M  V30 19 C 0.192298 -4.899754 0.152125 0
M  V30 20 N -0.759208 -5.430568 0.957125 0
M  V30 21 H -2.141153 -5.143353 3.853640 0
M  V30 22 H -2.639207 -6.359712 2.538117 0
M  V30 23 H -3.390379 -4.723520 2.650964 0
M  V30 24 H -1.593228 -2.818460 2.836604 0
M  V30 25 H 0.640959 1.022713 3.572562 0
M  V30 26 H 0.860789 2.872215 1.525188 0
M  V30 27 H -0.086369 3.836320 -1.079920 0
M  V30 28 H 2.068418 6.152954 -1.118508 0
M  V30 29 H 1.483131 5.690115 -2.819824 0
M  V30 30 H 0.084828 -1.112486 -1.266375 0
M  V30 31 H 1.294756 -3.052268 -0.310457 0
M  V30 32 H 0.698269 -5.482763 -0.605980 0
M  V30 END ATOM
M  V30 BEGIN BOND
M  V30 1 1 1 2
M  V30 2 2 2 3
M  V30 3 1 3 4
M  V30 4 1 4 5
M  V30 5 2 5 6
M  V30 6 1 6 7
M  V30 7 1 7 8
M  V30 8 2 8 9
M  V30 9 1 9 10
M  V30 10 1 10 11
M  V30 11 1 11 12
M  V30 12 1 12 13
M  V30 13 2 12 14
M  V30 14 2 10 15
M  V30 15 1 15 16
M  V30 16 2 16 17
M  V30 17 2 4 18
M  V30 18 1 18 19
M  V30 19 2 19 20
M  V30 20 1 20 2
M  V30 21 1 17 5
M  V30 22 1 17 8
M  V30 23 1 1 21
M  V30 24 1 1 22
M  V30 25 1 1 23
M  V30 26 1 3 24
M  V30 27 1 7 25
M  V30 28 1 9 26
M  V30 29 1 11 27
M  V30 30 1 13 28
M  V30 31 1 13 29
M  V30 32 1 16 30
M  V30 33 1 18 31
M  V30 34 1 19 32
M  V30 END BOND
M  V30 END CTAB
M  END
>  <Dataset>  (646) 
ChEMBL_Kinases

>  <Ligand_Instance>  (646) 
nan

>  <PDB_ID>  (646) 
nan

>  <Standardized_SMILES>  (646) 
Cc1cc(-c2n[nH]c3cc(NC(N)=O)ncc23)ccn1

>  <Name>  (646) 
nan

>  <Pocket>  (646) 
nan

>  <ATP_Site>  (646) 
nan

>  <Peripheral>  (646) 
nan

>  <Num_H_Atoms_ProtBoundConf>  (646) 
nan

>  <Num_Resolved_Atoms>  (646) 
nan

>  <Num_Not_Resolved_Atoms>  (646) 
nan

$$$$
CHEMBL3654673
     RDKit          3D

  0  0  0  0  0  0  0  0  0  0999 V3000
M  V30 BEGIN CTAB
M  V30 COUNTS 45 47 0 0 0
M  V30 BEGIN ATOM
M  V30 1 C -0.375973 -5.998143 -4.435707 0
M  V30 2 C -0.402798 -5.283706 -3.121731 0
M  V30 3 C 0.759441 -5.667187 -2.232302 0
M  V30 4 C 0.733409 -4.963254 -0.935702 0
M  V30 5 N 0.359858 -5.482151 0.266222 0
M  V30 6 N 0.457018 -4.571738 1.221655 0
M  V30 7 C 0.895762 -3.404422 0.722356 0
M  V30 8 C 1.163928 -2.168906 1.275258 0
M  V30 9 C 1.616747 -1.170669 0.426379 0
M  V30 10 N 1.875024 0.079864 1.060105 0
M  V30 11 C 0.792183 1.007547 1.128181 0
M  V30 12 O -0.324408 0.701749 0.640874 0
M  V30 13 N 0.984297 2.251962 1.738396 0
M  V30 14 C -0.169125 3.162875 1.776769 0 CFG=2
M  V30 15 C 0.232419 4.400313 1.000565 0
M  V30 16 C -0.467482 3.550387 3.185441 0
M  V30 17 C 0.526110 3.921464 4.063922 0
M  V30 18 C 0.214499 4.279573 5.378503 0
M  V30 19 C -1.103564 4.267856 5.823850 0
M  V30 20 C -2.101855 3.898028 4.951403 0
M  V30 21 C -1.775803 3.545323 3.649454 0
M  V30 22 N 1.792281 -1.397362 -0.908123 0
M  V30 23 C 1.521698 -2.623974 -1.432801 0
M  V30 24 C 1.066413 -3.655916 -0.625626 0
M  V30 25 H -1.034229 -6.905080 -4.339803 0
M  V30 26 H -0.706112 -5.404563 -5.297920 0
M  V30 27 H 0.654125 -6.335942 -4.672562 0
M  V30 28 H -1.369132 -5.485948 -2.628850 0
M  V30 29 H -0.376984 -4.189113 -3.353365 0
M  V30 30 H 0.661065 -6.752243 -2.034079 0
M  V30 31 H 1.718901 -5.516544 -2.741543 0
M  V30 32 H 0.237033 -4.691862 2.236142 0
M  V30 33 H 1.009684 -2.048282 2.319366 0
M  V30 34 H 2.781145 0.372625 1.475194 0
M  V30 35 H 1.874193 2.582286 2.165226 0
M  V30 36 H -1.046519 2.729232 1.305526 0
M  V30 37 H 1.283388 4.704914 1.201575 0
M  V30 38 H -0.382729 5.297299 1.276363 0
M  V30 39 H 0.152947 4.228837 -0.095712 0
M  V30 40 H 1.546717 3.925802 3.704193 0
M  V30 41 H 0.998999 4.570310 6.064318 0
M  V30 42 H -1.399147 4.535695 6.829774 0
M  V30 43 H -3.159613 3.864893 5.229390 0
M  V30 44 H -2.551585 3.252661 2.955085 0
M  V30 45 H 1.666607 -2.787496 -2.495513 0
M  V30 END ATOM
M  V30 BEGIN BOND
M  V30 1 1 1 2
M  V30 2 1 2 3
M  V30 3 1 3 4
M  V30 4 2 4 5
M  V30 5 1 5 6
M  V30 6 1 6 7
M  V30 7 2 7 8
M  V30 8 1 8 9
M  V30 9 1 9 10
M  V30 10 1 10 11
M  V30 11 2 11 12
M  V30 12 1 11 13
M  V30 13 1 13 14
M  V30 14 1 14 15
M  V30 15 1 14 16
M  V30 16 2 16 17
M  V30 17 1 17 18
M  V30 18 2 18 19
M  V30 19 1 19 20
M  V30 20 2 20 21
M  V30 21 2 9 22
M  V30 22 1 22 23
M  V30 23 2 23 24
M  V30 24 1 24 4
M  V30 25 1 24 7
M  V30 26 1 21 16
M  V30 27 1 1 25
M  V30 28 1 1 26
M  V30 29 1 1 27
M  V30 30 1 2 28
M  V30 31 1 2 29
M  V30 32 1 3 30
M  V30 33 1 3 31
M  V30 34 1 6 32
M  V30 35 1 8 33
M  V30 36 1 10 34
M  V30 37 1 13 35
M  V30 38 1 14 36 CFG=3
M  V30 39 1 15 37
M  V30 40 1 15 38
M  V30 41 1 15 39
M  V30 42 1 17 40
M  V30 43 1 18 41
M  V30 44 1 19 42
M  V30 45 1 20 43
M  V30 46 1 21 44
M  V30 47 1 23 45
M  V30 END BOND
M  V30 END CTAB
M  END
>  <Dataset>  (647) 
ChEMBL_Kinases

>  <Ligand_Instance>  (647) 
nan

>  <PDB_ID>  (647) 
nan

>  <Standardized_SMILES>  (647) 
CCCc1n[nH]c2cc(NC(=O)N[C@H](C)c3ccccc3)ncc12

>  <Name>  (647) 
nan

>  <Pocket>  (647) 
nan

>  <ATP_Site>  (647) 
nan

>  <Peripheral>  (647) 
nan

>  <Num_H_Atoms_ProtBoundConf>  (647) 
nan

>  <Num_Resolved_Atoms>  (647) 
nan

>  <Num_Not_Resolved_Atoms>  (647) 
nan

$$$$
CHEMBL402579
     RDKit          3D

  0  0  0  0  0  0  0  0  0  0999 V3000
M  V30 BEGIN CTAB
M  V30 COUNTS 71 77 0 0 0
M  V30 BEGIN ATOM
M  V30 1 C 5.981844 -0.447387 -2.864831 0
M  V30 2 C 5.886770 -0.045811 -1.437185 0
M  V30 3 N 6.958162 -0.337012 -0.656107 0
M  V30 4 C 6.649136 0.113644 0.579183 0
M  V30 5 C 7.324734 0.108153 1.782035 0
M  V30 6 C 6.754354 0.649459 2.905348 0
M  V30 7 C 5.495185 1.201742 2.824062 0
M  V30 8 C 4.846623 1.191802 1.608730 0
M  V30 9 C 5.388335 0.659678 0.469818 0
M  V30 10 N 4.874212 0.584127 -0.762477 0
M  V30 11 C 3.639753 0.994925 -1.364377 0
M  V30 12 C 3.314794 2.393454 -1.024963 0
M  V30 13 C 2.043737 2.690625 -0.341478 0
M  V30 14 N 1.065905 1.663073 -0.230818 0
M  V30 15 C 0.770361 1.267853 1.088507 0
M  V30 16 C -0.300531 0.239336 1.152285 0
M  V30 17 C -0.223196 -1.136106 1.133462 0
M  V30 18 C -1.386394 -1.874659 1.206304 0
M  V30 19 C -2.645543 -1.316594 1.298457 0
M  V30 20 C -3.733421 -2.257042 1.365202 0
M  V30 21 N -3.687814 -3.090471 2.445301 0
M  V30 22 C -4.624469 -4.034873 2.670006 0
M  V30 23 N -4.511339 -4.827633 3.768134 0
M  V30 24 C -5.448143 -5.781052 4.004063 0
M  V30 25 N -6.496131 -5.963676 3.171139 0
M  V30 26 C -6.598016 -5.164744 2.076737 0
M  V30 27 N -7.698130 -5.347461 1.191586 0
M  V30 28 C -5.684750 -4.187702 1.787619 0
M  V30 29 C -5.741703 -3.363228 0.707110 0
M  V30 30 C -4.786351 -2.407598 0.487408 0
M  V30 31 C -4.793642 -1.499689 -0.644928 0
M  V30 32 C -5.948637 -0.708762 -0.619864 0
M  V30 33 C -6.206934 0.248415 -1.593792 0
M  V30 34 C -5.274625 0.408812 -2.616913 0
M  V30 35 C -4.138941 -0.373464 -2.635805 0
M  V30 36 C -3.890129 -1.320860 -1.665716 0
M  V30 37 C -2.717008 0.060846 1.316887 0
M  V30 38 C -1.568263 0.827001 1.245326 0
M  V30 39 C 1.202708 0.698439 -1.230598 0
M  V30 40 C 2.560324 0.006317 -1.006083 0
M  V30 41 H 5.247193 0.016352 -3.520651 0
M  V30 42 H 5.925612 -1.551882 -2.959891 0
M  V30 43 H 6.986531 -0.162184 -3.295043 0
M  V30 44 H 8.320259 -0.327152 1.851259 0
M  V30 45 H 7.259109 0.661702 3.868767 0
M  V30 46 H 5.046194 1.628950 3.712825 0
M  V30 47 H 3.882259 1.624509 1.587241 0
M  V30 48 H 3.732277 0.903854 -2.489674 0
M  V30 49 H 4.161101 2.855350 -0.426975 0
M  V30 50 H 3.357556 3.020591 -1.973403 0
M  V30 51 H 2.269218 3.148010 0.667337 0
M  V30 52 H 1.517326 3.537597 -0.901773 0
M  V30 53 H 0.569231 2.102432 1.782033 0
M  V30 54 H 1.676090 0.756834 1.521574 0
M  V30 55 H 0.774872 -1.491395 1.062035 0
M  V30 56 H -1.218102 -2.951002 1.184116 0
M  V30 57 H -5.224651 -6.334043 4.916070 0
M  V30 58 H -7.689372 -5.212501 0.150911 0
M  V30 59 H -8.691911 -5.633645 1.343460 0
M  V30 60 H -6.565538 -3.469399 0.005916 0
M  V30 61 H -6.754865 -0.736694 0.125772 0
M  V30 62 H -7.068751 0.876218 -1.622301 0
M  V30 63 H -5.457391 1.145614 -3.380894 0
M  V30 64 H -3.385508 -0.286627 -3.408890 0
M  V30 65 H -3.048693 -1.983787 -1.575000 0
M  V30 66 H -3.715773 0.467637 1.389661 0
M  V30 67 H -1.783911 1.887525 1.270528 0
M  V30 68 H 1.266930 1.163483 -2.235790 0
M  V30 69 H 0.409595 -0.064586 -1.297754 0
M  V30 70 H 2.570304 -0.860130 -1.693219 0
M  V30 71 H 2.617257 -0.382939 0.022582 0
M  V30 END ATOM
M  V30 BEGIN BOND
M  V30 1 1 1 2
M  V30 2 2 2 3
M  V30 3 1 3 4
M  V30 4 2 4 5
M  V30 5 1 5 6
M  V30 6 2 6 7
M  V30 7 1 7 8
M  V30 8 2 8 9
M  V30 9 1 9 10
M  V30 10 1 10 11
M  V30 11 1 11 12
M  V30 12 1 12 13
M  V30 13 1 13 14
M  V30 14 1 14 15
M  V30 15 1 15 16
M  V30 16 2 16 17
M  V30 17 1 17 18
M  V30 18 2 18 19
M  V30 19 1 19 20
M  V30 20 2 20 21
M  V30 21 1 21 22
M  V30 22 2 22 23
M  V30 23 1 23 24
M  V30 24 2 24 25
M  V30 25 1 25 26
M  V30 26 1 26 27
M  V30 27 2 26 28
M  V30 28 1 28 29
M  V30 29 2 29 30
M  V30 30 1 30 31
M  V30 31 2 31 32
M  V30 32 1 32 33
M  V30 33 2 33 34
M  V30 34 1 34 35
M  V30 35 2 35 36
M  V30 36 1 19 37
M  V30 37 2 37 38
M  V30 38 1 14 39
M  V30 39 1 39 40
M  V30 40 1 10 2
M  V30 41 1 40 11
M  V30 42 1 9 4
M  V30 43 1 38 16
M  V30 44 1 30 20
M  V30 45 1 36 31
M  V30 46 1 28 22
M  V30 47 1 1 41
M  V30 48 1 1 42
M  V30 49 1 1 43
M  V30 50 1 5 44
M  V30 51 1 6 45
M  V30 52 1 7 46
M  V30 53 1 8 47
M  V30 54 1 11 48
M  V30 55 1 12 49
M  V30 56 1 12 50
M  V30 57 1 13 51
M  V30 58 1 13 52
M  V30 59 1 15 53
M  V30 60 1 15 54
M  V30 61 1 17 55
M  V30 62 1 18 56
M  V30 63 1 24 57
M  V30 64 1 27 58
M  V30 65 1 27 59
M  V30 66 1 29 60
M  V30 67 1 32 61
M  V30 68 1 33 62
M  V30 69 1 34 63
M  V30 70 1 35 64
M  V30 71 1 36 65
M  V30 72 1 37 66
M  V30 73 1 38 67
M  V30 74 1 39 68
M  V30 75 1 39 69
M  V30 76 1 40 70
M  V30 77 1 40 71
M  V30 END BOND
M  V30 END CTAB
M  END
>  <Dataset>  (648) 
ChEMBL_Kinases

>  <Ligand_Instance>  (648) 
nan

>  <PDB_ID>  (648) 
nan

>  <Standardized_SMILES>  (648) 
Cc1nc2ccccc2n1C1CCN(Cc2ccc(-c3nc4ncnc(N)c4cc3-c3ccccc3)cc2)CC1

>  <Name>  (648) 
nan

>  <Pocket>  (648) 
nan

>  <ATP_Site>  (648) 
nan

>  <Peripheral>  (648) 
nan

>  <Num_H_Atoms_ProtBoundConf>  (648) 
nan

>  <Num_Resolved_Atoms>  (648) 
nan

>  <Num_Not_Resolved_Atoms>  (648) 
nan

$$$$
CHEMBL3654672
     RDKit          3D

  0  0  0  0  0  0  0  0  0  0999 V3000
M  V30 BEGIN CTAB
M  V30 COUNTS 49 51 0 0 0
M  V30 BEGIN ATOM
M  V30 1 C 6.686301 -2.920531 2.672061 0
M  V30 2 O 6.053595 -3.790179 1.774871 0
M  V30 3 C 4.697848 -3.698045 2.027592 0
M  V30 4 C 3.858471 -4.572617 1.152738 0
M  V30 5 C 3.978420 -4.289019 -0.311174 0
M  V30 6 C 3.573725 -2.898008 -0.647140 0
M  V30 7 N 4.270174 -1.779891 -0.955946 0
M  V30 8 N 3.436315 -0.767387 -1.178648 0
M  V30 9 C 2.173734 -1.203501 -1.019752 0
M  V30 10 C 0.976176 -0.525338 -1.143338 0
M  V30 11 C -0.193703 -1.260055 -0.912036 0
M  V30 12 N -1.526868 -0.727733 -0.992557 0
M  V30 13 C -2.127804 -0.164958 0.176490 0
M  V30 14 O -1.420586 -0.173189 1.239293 0
M  V30 15 N -3.410938 0.385969 0.246790 0
M  V30 16 C -3.867673 0.915564 1.516721 0 CFG=2
M  V30 17 C -5.077933 0.095306 1.972346 0
M  V30 18 C -4.238095 2.334603 1.319416 0
M  V30 19 C -3.343305 3.100850 0.592493 0
M  V30 20 C -3.515727 4.435532 0.305834 0
M  V30 21 C -4.666416 5.067640 0.775175 0
M  V30 22 C -5.588313 4.321367 1.511774 0
M  V30 23 C -5.346263 2.993898 1.756847 0
M  V30 24 N -0.141371 -2.569782 -0.584009 0
M  V30 25 C 1.036636 -3.218197 -0.467152 0
M  V30 26 C 2.220626 -2.539890 -0.684993 0
M  V30 27 H 7.783080 -2.924866 2.547121 0
M  V30 28 H 6.228465 -1.924095 2.508195 0
M  V30 29 H 6.416954 -3.209898 3.718371 0
M  V30 30 H 4.412054 -2.644450 1.981847 0
M  V30 31 H 4.521454 -4.027978 3.073626 0
M  V30 32 H 4.062946 -5.643817 1.319388 0
M  V30 33 H 2.805920 -4.425622 1.503878 0
M  V30 34 H 5.022131 -4.439158 -0.645720 0
M  V30 35 H 3.295615 -4.970178 -0.850055 0
M  V30 36 H 3.739942 0.211107 -1.437710 0
M  V30 37 H 0.855011 0.498118 -1.396291 0
M  V30 38 H -2.155453 -0.697352 -1.850883 0
M  V30 39 H -3.995820 0.401252 -0.599091 0
M  V30 40 H -3.103338 0.804117 2.304156 0
M  V30 41 H -4.770658 -0.938601 2.194883 0
M  V30 42 H -5.883343 0.083937 1.225073 0
M  V30 43 H -5.491910 0.505665 2.916600 0
M  V30 44 H -2.421097 2.693084 0.188407 0
M  V30 45 H -2.853516 5.056445 -0.246844 0
M  V30 46 H -4.904745 6.102080 0.612063 0
M  V30 47 H -6.489652 4.735167 1.902475 0
M  V30 48 H -6.051533 2.375773 2.333790 0
M  V30 49 H 1.073364 -4.280592 -0.201377 0
M  V30 END ATOM
M  V30 BEGIN BOND
M  V30 1 1 1 2
M  V30 2 1 2 3
M  V30 3 1 3 4
M  V30 4 1 4 5
M  V30 5 1 5 6
M  V30 6 2 6 7
M  V30 7 1 7 8
M  V30 8 1 8 9
M  V30 9 2 9 10
M  V30 10 1 10 11
M  V30 11 1 11 12
M  V30 12 1 12 13
M  V30 13 2 13 14
M  V30 14 1 13 15
M  V30 15 1 15 16
M  V30 16 1 16 17
M  V30 17 1 16 18
M  V30 18 2 18 19
M  V30 19 1 19 20
M  V30 20 2 20 21
M  V30 21 1 21 22
M  V30 22 2 22 23
M  V30 23 2 11 24
M  V30 24 1 24 25
M  V30 25 2 25 26
M  V30 26 1 26 6
M  V30 27 1 26 9
M  V30 28 1 23 18
M  V30 29 1 1 27
M  V30 30 1 1 28
M  V30 31 1 1 29
M  V30 32 1 3 30
M  V30 33 1 3 31
M  V30 34 1 4 32
M  V30 35 1 4 33
M  V30 36 1 5 34
M  V30 37 1 5 35
M  V30 38 1 8 36
M  V30 39 1 10 37
M  V30 40 1 12 38
M  V30 41 1 15 39
M  V30 42 1 16 40 CFG=1
M  V30 43 1 17 41
M  V30 44 1 17 42
M  V30 45 1 17 43
M  V30 46 1 19 44
M  V30 47 1 20 45
M  V30 48 1 21 46
M  V30 49 1 22 47
M  V30 50 1 23 48
M  V30 51 1 25 49
M  V30 END BOND
M  V30 END CTAB
M  END
>  <Dataset>  (649) 
ChEMBL_Kinases

>  <Ligand_Instance>  (649) 
nan

>  <PDB_ID>  (649) 
nan

>  <Standardized_SMILES>  (649) 
COCCCc1n[nH]c2cc(NC(=O)N[C@H](C)c3ccccc3)ncc12

>  <Name>  (649) 
nan

>  <Pocket>  (649) 
nan

>  <ATP_Site>  (649) 
nan

>  <Peripheral>  (649) 
nan

>  <Num_H_Atoms_ProtBoundConf>  (649) 
nan

>  <Num_Resolved_Atoms>  (649) 
nan

>  <Num_Not_Resolved_Atoms>  (649) 
nan

$$$$
CHEMBL404347
     RDKit          3D

  0  0  0  0  0  0  0  0  0  0999 V3000
M  V30 BEGIN CTAB
M  V30 COUNTS 72 78 0 0 0
M  V30 BEGIN ATOM
M  V30 1 C 2.989237 -0.802445 6.259151 0
M  V30 2 O 3.512574 0.465128 5.923065 0
M  V30 3 C 3.361641 1.031551 4.677912 0
M  V30 4 N 3.887297 2.243865 4.428010 0
M  V30 5 C 3.734385 2.783304 3.216001 0
M  V30 6 C 3.050534 2.123510 2.220023 0
M  V30 7 C 2.882199 2.666804 0.958689 0
M  V30 8 C 2.175362 1.915007 0.029852 0
M  V30 9 C 2.005745 2.497106 -1.289934 0
M  V30 10 C 2.618198 1.725431 -2.280472 0
M  V30 11 C 2.544356 2.152816 -3.606422 0
M  V30 12 C 1.888612 3.306492 -3.961007 0
M  V30 13 C 1.305487 4.025498 -2.949525 0
M  V30 14 C 1.353129 3.643291 -1.634079 0
M  V30 15 C 1.652732 0.678703 0.322966 0
M  V30 16 C 0.917788 -0.093592 -0.672906 0
M  V30 17 C 1.457670 -1.328717 -0.972074 0
M  V30 18 C 0.808242 -2.103553 -1.912313 0
M  V30 19 C -0.362444 -1.741099 -2.595311 0
M  V30 20 C -0.896974 -2.698488 -3.560092 0
M  V30 21 N -1.863940 -3.636239 -3.068053 0
M  V30 22 C -3.049113 -2.934103 -2.651610 0
M  V30 23 C -4.126937 -3.841243 -2.157964 0
M  V30 24 C -3.620227 -4.610731 -0.965051 0
M  V30 25 C -3.565745 -3.697756 0.188076 0
M  V30 26 N -4.573145 -3.816663 1.104940 0
M  V30 27 N -4.368270 -2.929690 2.071618 0
M  V30 28 C -3.254904 -2.226420 1.822975 0
M  V30 29 C -2.737866 -1.176778 2.661631 0
M  V30 30 C -3.386779 -0.825230 3.826000 0
M  V30 31 C -3.017091 0.150852 4.723205 0
M  V30 32 C -1.868311 0.840917 4.402751 0
M  V30 33 C -1.204639 0.501313 3.238258 0
M  V30 34 N -1.623294 -0.473204 2.396014 0
M  V30 35 N -2.805331 -2.730897 0.669460 0
M  V30 36 C -2.360073 -5.289566 -1.328302 0
M  V30 37 C -1.336128 -4.490774 -2.043983 0
M  V30 38 C -0.853415 -0.497382 -2.253721 0
M  V30 39 C -0.234257 0.307868 -1.319020 0
M  V30 40 N 1.821961 0.159655 1.552217 0
M  V30 41 C 2.511449 0.872199 2.487987 0
M  V30 42 N 2.695592 0.372432 3.731760 0
M  V30 43 H 2.946794 -0.947903 7.344296 0
M  V30 44 H 1.965367 -0.845974 5.852772 0
M  V30 45 H 3.600690 -1.625915 5.819948 0
M  V30 46 H 4.136069 3.751054 2.965511 0
M  V30 47 H 3.298849 3.650467 0.728485 0
M  V30 48 H 3.173789 0.787513 -2.151408 0
M  V30 49 H 3.004883 1.586768 -4.411596 0
M  V30 50 H 1.821312 3.653029 -4.984319 0
M  V30 51 H 0.777242 4.936897 -3.156732 0
M  V30 52 H 0.908005 4.176133 -0.794038 0
M  V30 53 H 2.357297 -1.693809 -0.496884 0
M  V30 54 H 1.275910 -3.079813 -2.124175 0
M  V30 55 H -1.298432 -2.107157 -4.422610 0
M  V30 56 H -0.029226 -3.255071 -4.002756 0
M  V30 57 H -3.455626 -2.442836 -3.588716 0
M  V30 58 H -2.884961 -2.127232 -1.940805 0
M  V30 59 H -4.388263 -4.590434 -2.951047 0
M  V30 60 H -5.007924 -3.219534 -1.894617 0
M  V30 61 H -4.373551 -5.428579 -0.708880 0
M  V30 62 H -4.300511 -1.377547 4.076025 0
M  V30 63 H -3.579363 0.362123 5.608697 0
M  V30 64 H -1.538387 1.616739 5.077570 0
M  V30 65 H -0.316047 1.102791 3.077812 0
M  V30 66 H -1.955739 -2.426880 0.182913 0
M  V30 67 H -1.887578 -5.667844 -0.380937 0
M  V30 68 H -2.637978 -6.235078 -1.877291 0
M  V30 69 H -0.804298 -3.890627 -1.310911 0
M  V30 70 H -0.608649 -5.182962 -2.527279 0
M  V30 71 H -1.753484 -0.195700 -2.768666 0
M  V30 72 H -0.629231 1.280080 -1.060451 0
M  V30 END ATOM
M  V30 BEGIN BOND
M  V30 1 1 1 2
M  V30 2 1 2 3
M  V30 3 2 3 4
M  V30 4 1 4 5
M  V30 5 2 5 6
M  V30 6 1 6 7
M  V30 7 2 7 8
M  V30 8 1 8 9
M  V30 9 2 9 10
M  V30 10 1 10 11
M  V30 11 2 11 12
M  V30 12 1 12 13
M  V30 13 2 13 14
M  V30 14 1 8 15
M  V30 15 1 15 16
M  V30 16 2 16 17
M  V30 17 1 17 18
M  V30 18 2 18 19
M  V30 19 1 19 20
M  V30 20 1 20 21
M  V30 21 1 21 22
M  V30 22 1 22 23
M  V30 23 1 23 24
M  V30 24 1 24 25
M  V30 25 2 25 26
M  V30 26 1 26 27
M  V30 27 2 27 28
M  V30 28 1 28 29
M  V30 29 2 29 30
M  V30 30 1 30 31
M  V30 31 2 31 32
M  V30 32 1 32 33
M  V30 33 2 33 34
M  V30 34 1 28 35
M  V30 35 1 24 36
M  V30 36 1 36 37
M  V30 37 1 19 38
M  V30 38 2 38 39
M  V30 39 2 15 40
M  V30 40 1 40 41
M  V30 41 2 41 42
M  V30 42 1 42 3
M  V30 43 1 41 6
M  V30 44 1 14 9
M  V30 45 1 39 16
M  V30 46 1 37 21
M  V30 47 1 35 25
M  V30 48 1 34 29
M  V30 49 1 1 43
M  V30 50 1 1 44
M  V30 51 1 1 45
M  V30 52 1 5 46
M  V30 53 1 7 47
M  V30 54 1 10 48
M  V30 55 1 11 49
M  V30 56 1 12 50
M  V30 57 1 13 51
M  V30 58 1 14 52
M  V30 59 1 17 53
M  V30 60 1 18 54
M  V30 61 1 20 55
M  V30 62 1 20 56
M  V30 63 1 22 57
M  V30 64 1 22 58
M  V30 65 1 23 59
M  V30 66 1 23 60
M  V30 67 1 24 61
M  V30 68 1 30 62
M  V30 69 1 31 63
M  V30 70 1 32 64
M  V30 71 1 33 65
M  V30 72 1 35 66
M  V30 73 1 36 67
M  V30 74 1 36 68
M  V30 75 1 37 69
M  V30 76 1 37 70
M  V30 77 1 38 71
M  V30 78 1 39 72
M  V30 END BOND
M  V30 END CTAB
M  END
>  <Dataset>  (650) 
ChEMBL_Kinases

>  <Ligand_Instance>  (650) 
nan

>  <PDB_ID>  (650) 
nan

>  <Standardized_SMILES>  (650) 
COc1ncc2cc(-c3ccccc3)c(-c3ccc(CN4CCC(c5nnc(-c6ccccn6)[nH]5)CC4)cc3)nc2n1

>  <Name>  (650) 
nan

>  <Pocket>  (650) 
nan

>  <ATP_Site>  (650) 
nan

>  <Peripheral>  (650) 
nan

>  <Num_H_Atoms_ProtBoundConf>  (650) 
nan

>  <Num_Resolved_Atoms>  (650) 
nan

>  <Num_Not_Resolved_Atoms>  (650) 
nan

$$$$
CHEMBL3642027
     RDKit          3D

  0  0  0  0  0  0  0  0  0  0999 V3000
M  V30 BEGIN CTAB
M  V30 COUNTS 69 74 0 0 0
M  V30 BEGIN ATOM
M  V30 1 C 2.490051 -0.149276 6.636583 0
M  V30 2 O 3.011522 0.238399 5.410494 0
M  V30 3 C 4.088622 -0.380358 4.841708 0
M  V30 4 O 3.997019 -1.055569 5.893722 0
M  V30 5 C 5.239609 -0.953899 4.115569 0
M  V30 6 N 5.498360 -0.394613 2.834765 0
M  V30 7 C 4.602220 -0.696036 1.781023 0
M  V30 8 C 3.155320 -0.435796 1.988292 0
M  V30 9 C 2.793941 1.020551 1.759223 0
M  V30 10 N 2.968214 1.333063 0.333528 0
M  V30 11 C 1.913263 1.619447 -0.552516 0
M  V30 12 C 1.946891 2.312785 -1.736896 0
M  V30 13 C 0.822622 2.515191 -2.513570 0
M  V30 14 C -0.400112 2.011074 -2.109959 0
M  V30 15 N -1.628141 2.204928 -2.854080 0
M  V30 16 C -2.794768 1.572249 -2.274641 0
M  V30 17 N -4.026403 2.116182 -2.121687 0
M  V30 18 C -5.011307 1.378685 -1.559487 0
M  V30 19 C -4.723150 0.090250 -1.160157 0
M  V30 20 C -5.591296 -0.793491 -0.567268 0
M  V30 21 C -6.897263 -0.889475 -0.134902 0
M  V30 22 C -7.477209 -1.981459 0.460935 0
M  V30 23 N -6.638719 -3.004673 0.600601 0
M  V30 24 C -5.356967 -3.017025 0.216510 0
M  V30 25 C -4.814697 -1.909565 -0.373791 0
M  V30 26 N -3.548822 -1.783690 -0.795965 0
M  V30 27 C -2.336682 -2.501194 -0.891951 0
M  V30 28 C -2.297614 -3.937099 -0.573084 0
M  V30 29 C -2.915962 -4.654575 -1.710811 0
M  V30 30 C -2.833438 -3.720272 -2.870422 0
M  V30 31 C -1.961560 -2.546829 -2.392627 0
M  V30 32 C -3.485471 -0.503475 -1.298394 0
M  V30 33 N -2.607831 0.336857 -1.867233 0
M  V30 34 N -0.390916 1.341096 -0.951083 0
M  V30 35 C 0.670240 1.124318 -0.172233 0
M  V30 36 C 4.389511 1.243533 0.154327 0
M  V30 37 C 5.015103 -0.071019 0.462359 0
M  V30 38 H 2.051483 -1.156141 6.686307 0
M  V30 39 H 3.196393 0.056989 7.487320 0
M  V30 40 H 1.632691 0.572376 6.832139 0
M  V30 41 H 6.180103 -0.858958 4.731244 0
M  V30 42 H 5.113990 -2.082717 4.031341 0
M  V30 43 H 6.012640 0.479700 2.814975 0
M  V30 44 H 4.684082 -1.818445 1.608184 0
M  V30 45 H 2.706656 -0.770352 2.911794 0
M  V30 46 H 2.626584 -0.978893 1.140424 0
M  V30 47 H 1.722906 1.128667 2.010243 0
M  V30 48 H 3.428220 1.698113 2.391897 0
M  V30 49 H 2.916085 2.691558 -2.024211 0
M  V30 50 H 0.861214 3.059395 -3.442103 0
M  V30 51 H -1.535570 2.780326 -3.726432 0
M  V30 52 H -5.992461 1.805008 -1.433758 0
M  V30 53 H -7.506143 0.010284 -0.299228 0
M  V30 54 H -8.514843 -1.979328 0.776589 0
M  V30 55 H -4.832057 -3.926324 0.415892 0
M  V30 56 H -1.503819 -1.918643 -0.393131 0
M  V30 57 H -2.605957 -4.247897 0.440800 0
M  V30 58 H -1.173503 -4.204719 -0.590236 0
M  V30 59 H -2.296743 -5.591112 -1.910692 0
M  V30 60 H -3.947866 -4.952475 -1.457615 0
M  V30 61 H -2.335409 -4.250551 -3.727552 0
M  V30 62 H -3.818553 -3.355648 -3.202098 0
M  V30 63 H -2.313827 -1.689801 -2.954670 0
M  V30 64 H -0.918113 -2.826548 -2.541992 0
M  V30 65 H 0.368721 0.556730 0.686758 0
M  V30 66 H 4.606335 1.454487 -0.911035 0
M  V30 67 H 4.883962 2.084816 0.723697 0
M  V30 68 H 4.925421 -0.780620 -0.356087 0
M  V30 69 H 6.122035 0.125719 0.578678 0
M  V30 END ATOM
M  V30 BEGIN BOND
M  V30 1 1 1 2
M  V30 2 1 2 3
M  V30 3 2 3 4
M  V30 4 1 3 5
M  V30 5 1 5 6
M  V30 6 1 6 7
M  V30 7 1 7 8
M  V30 8 1 8 9
M  V30 9 1 9 10
M  V30 10 1 10 11
M  V30 11 2 11 12
M  V30 12 1 12 13
M  V30 13 2 13 14
M  V30 14 1 14 15
M  V30 15 1 15 16
M  V30 16 2 16 17
M  V30 17 1 17 18
M  V30 18 2 18 19
M  V30 19 1 19 20
M  V30 20 2 20 21
M  V30 21 1 21 22
M  V30 22 2 22 23
M  V30 23 1 23 24
M  V30 24 2 24 25
M  V30 25 1 25 26
M  V30 26 1 26 27
M  V30 27 1 27 28
M  V30 28 1 28 29
M  V30 29 1 29 30
M  V30 30 1 30 31
M  V30 31 1 26 32
M  V30 32 2 32 33
M  V30 33 1 14 34
M  V30 34 2 34 35
M  V30 35 1 10 36
M  V30 36 1 36 37
M  V30 37 1 37 7
M  V30 38 1 35 11
M  V30 39 1 33 16
M  V30 40 1 32 19
M  V30 41 1 25 20
M  V30 42 1 31 27
M  V30 43 1 1 38
M  V30 44 1 1 39
M  V30 45 1 1 40
M  V30 46 1 5 41
M  V30 47 1 5 42
M  V30 48 1 6 43
M  V30 49 1 7 44
M  V30 50 1 8 45
M  V30 51 1 8 46
M  V30 52 1 9 47
M  V30 53 1 9 48
M  V30 54 1 12 49
M  V30 55 1 13 50
M  V30 56 1 15 51
M  V30 57 1 18 52
M  V30 58 1 21 53
M  V30 59 1 22 54
M  V30 60 1 24 55
M  V30 61 1 27 56
M  V30 62 1 28 57
M  V30 63 1 28 58
M  V30 64 1 29 59
M  V30 65 1 29 60
M  V30 66 1 30 61
M  V30 67 1 30 62
M  V30 68 1 31 63
M  V30 69 1 31 64
M  V30 70 1 35 65
M  V30 71 1 36 66
M  V30 72 1 36 67
M  V30 73 1 37 68
M  V30 74 1 37 69
M  V30 END BOND
M  V30 END CTAB
M  END
>  <Dataset>  (651) 
ChEMBL_Kinases

>  <Ligand_Instance>  (651) 
nan

>  <PDB_ID>  (651) 
nan

>  <Standardized_SMILES>  (651) 
COC(=O)CNC1CCN(c2ccc(Nc3ncc4c5ccncc5n(C5CCCC5)c4n3)nc2)CC1

>  <Name>  (651) 
nan

>  <Pocket>  (651) 
nan

>  <ATP_Site>  (651) 
nan

>  <Peripheral>  (651) 
nan

>  <Num_H_Atoms_ProtBoundConf>  (651) 
nan

>  <Num_Resolved_Atoms>  (651) 
nan

>  <Num_Not_Resolved_Atoms>  (651) 
nan

$$$$
CHEMBL3642028
     RDKit          3D

  0  0  0  0  0  0  0  0  0  0999 V3000
M  V30 BEGIN CTAB
M  V30 COUNTS 73 78 0 0 0
M  V30 BEGIN ATOM
M  V30 1 C 6.021657 1.541145 3.286721 0
M  V30 2 C 6.253322 0.309243 2.465113 0
M  V30 3 N 5.118889 -0.439901 2.216484 0
M  V30 4 C 4.571621 -1.150177 3.296377 0
M  V30 5 C 3.888205 -0.405704 4.396765 0
M  V30 6 O 3.396252 -1.305835 5.376898 0
M  V30 7 C 4.904244 -1.030315 0.960260 0
M  V30 8 C 3.575076 -1.743355 0.926951 0
M  V30 9 C 2.934192 -1.631101 -0.462460 0
M  V30 10 N 2.550989 -0.249811 -0.648066 0
M  V30 11 C 1.315621 0.178894 -1.194209 0
M  V30 12 C 0.314746 -0.665804 -1.611592 0
M  V30 13 C -0.862410 -0.123052 -2.107585 0
M  V30 14 C -1.086750 1.234463 -2.205989 0
M  V30 15 N -2.337690 1.750938 -2.692504 0
M  V30 16 C -3.288164 0.746200 -3.019573 0
M  V30 17 N -3.839666 0.267127 -4.158415 0
M  V30 18 C -4.730829 -0.738282 -4.128418 0
M  V30 19 C -5.132548 -1.334923 -2.953601 0
M  V30 20 C -5.993955 -2.347368 -2.633235 0
M  V30 21 C -6.784502 -3.139108 -3.421540 0
M  V30 22 C -7.543148 -4.081980 -2.740334 0
M  V30 23 N -7.500777 -4.207159 -1.388052 0
M  V30 24 C -6.713043 -3.416778 -0.619054 0
M  V30 25 C -5.936531 -2.458039 -1.260138 0
M  V30 26 N -5.073925 -1.552896 -0.731398 0
M  V30 27 C -4.719972 -1.356762 0.666495 0
M  V30 28 C -4.422094 0.028451 1.029431 0
M  V30 29 C -2.975001 0.176849 1.301445 0
M  V30 30 C -2.479529 -1.210256 1.559238 0
M  V30 31 C -3.489472 -2.151418 1.001522 0
M  V30 32 C -4.573514 -0.850771 -1.792403 0
M  V30 33 N -3.692923 0.151433 -1.886283 0
M  V30 34 N -0.076995 2.047656 -1.786749 0
M  V30 35 C 1.065488 1.528346 -1.305305 0
M  V30 36 C 3.564518 0.678428 -0.195371 0
M  V30 37 C 4.882730 -0.050806 -0.193995 0
M  V30 38 H 6.344471 1.458881 4.348625 0
M  V30 39 H 6.694156 2.388656 2.911673 0
M  V30 40 H 4.987321 1.926809 3.277659 0
M  V30 41 H 7.021406 -0.302294 3.030547 0
M  V30 42 H 6.825516 0.644471 1.562313 0
M  V30 43 H 5.407844 -1.733912 3.864052 0
M  V30 44 H 3.913702 -2.029063 3.014369 0
M  V30 45 H 2.965556 0.111422 4.010860 0
M  V30 46 H 4.474272 0.340146 4.931212 0
M  V30 47 H 4.033271 -1.417097 6.130292 0
M  V30 48 H 5.681918 -1.827375 0.776450 0
M  V30 49 H 2.819862 -1.226299 1.586685 0
M  V30 50 H 3.597982 -2.790895 1.213979 0
M  V30 51 H 3.523780 -2.072656 -1.255941 0
M  V30 52 H 1.975611 -2.210177 -0.343571 0
M  V30 53 H 0.441746 -1.720103 -1.555866 0
M  V30 54 H -1.613427 -0.846701 -2.422227 0
M  V30 55 H -2.441610 2.786305 -2.765870 0
M  V30 56 H -5.113186 -1.049465 -5.087191 0
M  V30 57 H -6.834346 -3.056594 -4.486985 0
M  V30 58 H -8.208523 -4.766040 -3.270475 0
M  V30 59 H -6.650906 -3.484697 0.457130 0
M  V30 60 H -5.609950 -1.703659 1.245035 0
M  V30 61 H -4.823100 0.795436 0.320492 0
M  V30 62 H -4.959260 0.278010 1.996232 0
M  V30 63 H -2.383311 0.692078 0.510922 0
M  V30 64 H -2.782177 0.754685 2.255807 0
M  V30 65 H -2.270612 -1.398459 2.635163 0
M  V30 66 H -1.471770 -1.307274 1.064321 0
M  V30 67 H -3.742841 -2.887790 1.792395 0
M  V30 68 H -3.034191 -2.636220 0.112062 0
M  V30 69 H 1.737373 2.326643 -1.025567 0
M  V30 70 H 3.311027 0.870075 0.889148 0
M  V30 71 H 3.608562 1.622862 -0.766497 0
M  V30 72 H 5.761580 0.614826 -0.215739 0
M  V30 73 H 4.948875 -0.647732 -1.125796 0
M  V30 END ATOM
M  V30 BEGIN BOND
M  V30 1 1 1 2
M  V30 2 1 2 3
M  V30 3 1 3 4
M  V30 4 1 4 5
M  V30 5 1 5 6
M  V30 6 1 3 7
M  V30 7 1 7 8
M  V30 8 1 8 9
M  V30 9 1 9 10
M  V30 10 1 10 11
M  V30 11 2 11 12
M  V30 12 1 12 13
M  V30 13 2 13 14
M  V30 14 1 14 15
M  V30 15 1 15 16
M  V30 16 2 16 17
M  V30 17 1 17 18
M  V30 18 2 18 19
M  V30 19 1 19 20
M  V30 20 2 20 21
M  V30 21 1 21 22
M  V30 22 2 22 23
M  V30 23 1 23 24
M  V30 24 2 24 25
M  V30 25 1 25 26
M  V30 26 1 26 27
M  V30 27 1 27 28
M  V30 28 1 28 29
M  V30 29 1 29 30
M  V30 30 1 30 31
M  V30 31 1 26 32
M  V30 32 2 32 33
M  V30 33 1 14 34
M  V30 34 2 34 35
M  V30 35 1 10 36
M  V30 36 1 36 37
M  V30 37 1 37 7
M  V30 38 1 35 11
M  V30 39 1 33 16
M  V30 40 1 32 19
M  V30 41 1 25 20
M  V30 42 1 31 27
M  V30 43 1 1 38
M  V30 44 1 1 39
M  V30 45 1 1 40
M  V30 46 1 2 41
M  V30 47 1 2 42
M  V30 48 1 4 43
M  V30 49 1 4 44
M  V30 50 1 5 45
M  V30 51 1 5 46
M  V30 52 1 6 47
M  V30 53 1 7 48
M  V30 54 1 8 49
M  V30 55 1 8 50
M  V30 56 1 9 51
M  V30 57 1 9 52
M  V30 58 1 12 53
M  V30 59 1 13 54
M  V30 60 1 15 55
M  V30 61 1 18 56
M  V30 62 1 21 57
M  V30 63 1 22 58
M  V30 64 1 24 59
M  V30 65 1 27 60
M  V30 66 1 28 61
M  V30 67 1 28 62
M  V30 68 1 29 63
M  V30 69 1 29 64
M  V30 70 1 30 65
M  V30 71 1 30 66
M  V30 72 1 31 67
M  V30 73 1 31 68
M  V30 74 1 35 69
M  V30 75 1 36 70
M  V30 76 1 36 71
M  V30 77 1 37 72
M  V30 78 1 37 73
M  V30 END BOND
M  V30 END CTAB
M  END
>  <Dataset>  (652) 
ChEMBL_Kinases

>  <Ligand_Instance>  (652) 
nan

>  <PDB_ID>  (652) 
nan

>  <Standardized_SMILES>  (652) 
CCN(CCO)C1CCN(c2ccc(Nc3ncc4c5ccncc5n(C5CCCC5)c4n3)nc2)CC1

>  <Name>  (652) 
nan

>  <Pocket>  (652) 
nan

>  <ATP_Site>  (652) 
nan

>  <Peripheral>  (652) 
nan

>  <Num_H_Atoms_ProtBoundConf>  (652) 
nan

>  <Num_Resolved_Atoms>  (652) 
nan

>  <Num_Not_Resolved_Atoms>  (652) 
nan

$$$$
CHEMBL3642029
     RDKit          3D

  0  0  0  0  0  0  0  0  0  0999 V3000
M  V30 BEGIN CTAB
M  V30 COUNTS 68 74 0 0 0
M  V30 BEGIN ATOM
M  V30 1 O 4.336852 -0.642638 5.228061 0
M  V30 2 C 3.695230 -0.325343 4.044544 0
M  V30 3 C 3.932209 1.065855 3.534332 0
M  V30 4 N 4.167710 0.530674 2.194300 0
M  V30 5 C 5.285859 1.112953 1.521328 0
M  V30 6 C 5.420257 0.481478 0.154284 0
M  V30 7 C 4.124654 0.631322 -0.619797 0
M  V30 8 N 3.338940 1.745668 -0.180775 0
M  V30 9 C 1.931423 1.737637 -0.021048 0
M  V30 10 C 1.168230 0.638593 -0.335866 0
M  V30 11 C -0.196141 0.710906 -0.147434 0
M  V30 12 C -0.877938 1.803730 0.336464 0
M  V30 13 N -2.279974 1.889868 0.537258 0
M  V30 14 C -3.269722 0.927132 0.308104 0
M  V30 15 N -4.548354 1.250055 0.568206 0
M  V30 16 C -5.572374 0.410524 0.387480 0
M  V30 17 C -5.348402 -0.845788 -0.083049 0
M  V30 18 C -6.184735 -1.899132 -0.362177 0
M  V30 19 C -7.572768 -1.986450 -0.236197 0
M  V30 20 C -8.140249 -3.199790 -0.603610 0
M  V30 21 N -7.367335 -4.204960 -1.048658 0
M  V30 22 C -6.030551 -4.076079 -1.154077 0
M  V30 23 C -5.365595 -2.907818 -0.813620 0
M  V30 24 N -4.099422 -2.450234 -0.794738 0
M  V30 25 C -3.063404 -3.316796 -1.218292 0
M  V30 26 C -1.695421 -2.720186 -1.342097 0
M  V30 27 C -0.928237 -3.983770 -1.771483 0
M  V30 28 C -1.591805 -5.105922 -0.961618 0
M  V30 29 C -2.744482 -4.444970 -0.227881 0
M  V30 30 C -4.039962 -1.181531 -0.351012 0
M  V30 31 N -3.063157 -0.315395 -0.155534 0
M  V30 32 N -0.072829 2.836892 0.621858 0
M  V30 33 C 1.257884 2.834155 0.463018 0
M  V30 34 C 4.245076 2.838063 0.054874 0
M  V30 35 C 5.104732 2.601794 1.282958 0
M  V30 36 C 4.543113 -0.717769 2.856570 0
M  V30 37 H 3.995771 -1.509429 5.555908 0
M  V30 38 H 2.657202 -0.674394 3.961467 0
M  V30 39 H 4.828317 1.489632 4.035905 0
M  V30 40 H 3.032748 1.689970 3.600370 0
M  V30 41 H 6.194792 0.955272 2.102462 0
M  V30 42 H 6.278274 0.954625 -0.363717 0
M  V30 43 H 5.696785 -0.584914 0.276524 0
M  V30 44 H 3.630450 -0.342881 -0.587094 0
M  V30 45 H 4.450407 0.861867 -1.674981 0
M  V30 46 H 1.615041 -0.271024 -0.724969 0
M  V30 47 H -0.743574 -0.162291 -0.405784 0
M  V30 48 H -2.597586 2.830971 0.916831 0
M  V30 49 H -6.589155 0.709818 0.609365 0
M  V30 50 H -8.130411 -1.150940 0.124147 0
M  V30 51 H -9.225844 -3.238229 -0.494617 0
M  V30 52 H -5.439536 -4.905436 -1.517516 0
M  V30 53 H -3.265357 -3.841222 -2.175022 0
M  V30 54 H -1.256580 -2.488271 -0.325413 0
M  V30 55 H -1.584552 -1.915684 -2.066733 0
M  V30 56 H -1.141892 -4.152169 -2.846524 0
M  V30 57 H 0.143951 -3.906345 -1.602887 0
M  V30 58 H -2.028302 -5.853290 -1.654774 0
M  V30 59 H -0.864547 -5.559425 -0.258060 0
M  V30 60 H -2.284605 -3.995220 0.680642 0
M  V30 61 H -3.587304 -5.094677 -0.018439 0
M  V30 62 H 1.727403 3.746389 0.744279 0
M  V30 63 H 3.675601 3.766314 0.221723 0
M  V30 64 H 4.913611 3.039476 -0.813173 0
M  V30 65 H 4.713274 3.060491 2.192883 0
M  V30 66 H 6.115896 3.013747 1.094904 0
M  V30 67 H 4.137623 -1.554715 2.270087 0
M  V30 68 H 5.615565 -0.821611 3.012299 0
M  V30 END ATOM
M  V30 BEGIN BOND
M  V30 1 1 1 2
M  V30 2 1 2 3
M  V30 3 1 3 4
M  V30 4 1 4 5
M  V30 5 1 5 6
M  V30 6 1 6 7
M  V30 7 1 7 8
M  V30 8 1 8 9
M  V30 9 2 9 10
M  V30 10 1 10 11
M  V30 11 2 11 12
M  V30 12 1 12 13
M  V30 13 1 13 14
M  V30 14 2 14 15
M  V30 15 1 15 16
M  V30 16 2 16 17
M  V30 17 1 17 18
M  V30 18 2 18 19
M  V30 19 1 19 20
M  V30 20 2 20 21
M  V30 21 1 21 22
M  V30 22 2 22 23
M  V30 23 1 23 24
M  V30 24 1 24 25
M  V30 25 1 25 26
M  V30 26 1 26 27
M  V30 27 1 27 28
M  V30 28 1 28 29
M  V30 29 1 24 30
M  V30 30 2 30 31
M  V30 31 1 12 32
M  V30 32 2 32 33
M  V30 33 1 8 34
M  V30 34 1 34 35
M  V30 35 1 4 36
M  V30 36 1 36 2
M  V30 37 1 35 5
M  V30 38 1 33 9
M  V30 39 1 31 14
M  V30 40 1 30 17
M  V30 41 1 23 18
M  V30 42 1 29 25
M  V30 43 1 1 37
M  V30 44 1 2 38
M  V30 45 1 3 39
M  V30 46 1 3 40
M  V30 47 1 5 41
M  V30 48 1 6 42
M  V30 49 1 6 43
M  V30 50 1 7 44
M  V30 51 1 7 45
M  V30 52 1 10 46
M  V30 53 1 11 47
M  V30 54 1 13 48
M  V30 55 1 16 49
M  V30 56 1 19 50
M  V30 57 1 20 51
M  V30 58 1 22 52
M  V30 59 1 25 53
M  V30 60 1 26 54
M  V30 61 1 26 55
M  V30 62 1 27 56
M  V30 63 1 27 57
M  V30 64 1 28 58
M  V30 65 1 28 59
M  V30 66 1 29 60
M  V30 67 1 29 61
M  V30 68 1 33 62
M  V30 69 1 34 63
M  V30 70 1 34 64
M  V30 71 1 35 65
M  V30 72 1 35 66
M  V30 73 1 36 67
M  V30 74 1 36 68
M  V30 END BOND
M  V30 END CTAB
M  END
>  <Dataset>  (653) 
ChEMBL_Kinases

>  <Ligand_Instance>  (653) 
nan

>  <PDB_ID>  (653) 
nan

>  <Standardized_SMILES>  (653) 
OC1CN(C2CCN(c3ccc(Nc4ncc5c6ccncc6n(C6CCCC6)c5n4)nc3)CC2)C1

>  <Name>  (653) 
nan

>  <Pocket>  (653) 
nan

>  <ATP_Site>  (653) 
nan

>  <Peripheral>  (653) 
nan

>  <Num_H_Atoms_ProtBoundConf>  (653) 
nan

>  <Num_Resolved_Atoms>  (653) 
nan

>  <Num_Not_Resolved_Atoms>  (653) 
nan

$$$$
CHEMBL3642030
     RDKit          3D

  0  0  0  0  0  0  0  0  0  0999 V3000
M  V30 BEGIN CTAB
M  V30 COUNTS 70 75 0 0 0
M  V30 BEGIN ATOM
M  V30 1 C 2.576785 -1.905030 2.647359 0
M  V30 2 C 3.877609 -1.911685 1.875986 0 CFG=1
M  V30 3 C 4.661423 -3.130080 2.311465 0
M  V30 4 O 3.968133 -4.311837 2.060528 0
M  V30 5 N 3.606001 -1.959574 0.484767 0
M  V30 6 C 4.714629 -1.966760 -0.400084 0
M  V30 7 C 4.248047 -2.033428 -1.842104 0
M  V30 8 C 3.931451 -0.664815 -2.391870 0
M  V30 9 N 3.797142 0.314100 -1.310250 0
M  V30 10 C 2.631683 0.988830 -0.853614 0
M  V30 11 C 2.568962 1.975957 0.106198 0
M  V30 12 C 1.336539 2.506868 0.427586 0
M  V30 13 C 0.138699 2.123572 -0.143400 0
M  V30 14 N -1.107109 2.699281 0.227136 0
M  V30 15 C -2.267102 2.216612 -0.431618 0
M  V30 16 N -2.892612 2.692022 -1.549556 0
M  V30 17 C -3.992316 2.094769 -2.035227 0
M  V30 18 C -4.480738 0.990569 -1.385266 0
M  V30 19 C -5.555385 0.154031 -1.601413 0
M  V30 20 C -6.528890 0.163464 -2.589318 0
M  V30 21 C -7.493133 -0.816078 -2.549181 0
M  V30 22 N -7.504540 -1.768372 -1.579551 0
M  V30 23 C -6.571780 -1.802620 -0.607018 0
M  V30 24 C -5.580706 -0.833221 -0.609874 0
M  V30 25 N -4.535678 -0.601651 0.199691 0
M  V30 26 C -4.119208 -1.325635 1.349387 0
M  V30 27 C -2.850097 -0.797223 1.970771 0
M  V30 28 C -2.775475 -1.695339 3.214926 0
M  V30 29 C -4.204396 -1.602246 3.734455 0
M  V30 30 C -5.077120 -1.329009 2.504377 0
M  V30 31 C -3.862372 0.496794 -0.255864 0
M  V30 32 N -2.765282 1.132709 0.187853 0
M  V30 33 N 0.248945 1.150240 -1.082055 0
M  V30 34 C 1.434345 0.607015 -1.423350 0
M  V30 35 C 5.125754 0.485104 -0.735317 0
M  V30 36 C 5.671897 -0.811147 -0.191073 0
M  V30 37 H 2.216495 -0.847221 2.802603 0
M  V30 38 H 2.762159 -2.402393 3.620836 0
M  V30 39 H 1.764833 -2.465503 2.168882 0
M  V30 40 H 4.438678 -1.019651 2.217037 0
M  V30 41 H 4.808829 -3.056601 3.417496 0
M  V30 42 H 5.646807 -3.080348 1.794786 0
M  V30 43 H 3.001837 -4.146060 2.158785 0
M  V30 44 H 2.732257 -2.375309 0.179008 0
M  V30 45 H 5.294097 -2.894466 -0.227790 0
M  V30 46 H 5.048150 -2.510152 -2.428406 0
M  V30 47 H 3.363609 -2.678041 -1.877933 0
M  V30 48 H 4.733146 -0.332916 -3.100197 0
M  V30 49 H 3.015247 -0.696125 -2.977363 0
M  V30 50 H 3.486472 2.275901 0.548861 0
M  V30 51 H 1.347288 3.272373 1.180970 0
M  V30 52 H -1.081783 3.439313 0.959789 0
M  V30 53 H -4.451099 2.504288 -2.917921 0
M  V30 54 H -6.567395 0.886992 -3.373070 0
M  V30 55 H -8.304001 -0.936303 -3.240140 0
M  V30 56 H -6.572513 -2.560748 0.171862 0
M  V30 57 H -3.888904 -2.370564 1.035212 0
M  V30 58 H -2.924761 0.223825 2.370688 0
M  V30 59 H -2.003815 -1.004413 1.319552 0
M  V30 60 H -2.553768 -2.726405 2.926345 0
M  V30 61 H -2.053120 -1.277381 3.931920 0
M  V30 62 H -4.275973 -0.772852 4.461145 0
M  V30 63 H -4.501543 -2.520240 4.264591 0
M  V30 64 H -5.462170 -0.276988 2.608609 0
M  V30 65 H -5.879521 -2.078253 2.415763 0
M  V30 66 H 1.257273 -0.139144 -2.184224 0
M  V30 67 H 5.772484 0.859540 -1.555562 0
M  V30 68 H 5.163683 1.281887 0.036933 0
M  V30 69 H 6.633155 -1.014891 -0.706852 0
M  V30 70 H 5.941530 -0.721659 0.880806 0
M  V30 END ATOM
M  V30 BEGIN BOND
M  V30 1 1 1 2
M  V30 2 1 2 3
M  V30 3 1 3 4
M  V30 4 1 2 5
M  V30 5 1 5 6
M  V30 6 1 6 7
M  V30 7 1 7 8
M  V30 8 1 8 9
M  V30 9 1 9 10
M  V30 10 2 10 11
M  V30 11 1 11 12
M  V30 12 2 12 13
M  V30 13 1 13 14
M  V30 14 1 14 15
M  V30 15 2 15 16
M  V30 16 1 16 17
M  V30 17 2 17 18
M  V30 18 1 18 19
M  V30 19 2 19 20
M  V30 20 1 20 21
M  V30 21 2 21 22
M  V30 22 1 22 23
M  V30 23 2 23 24
M  V30 24 1 24 25
M  V30 25 1 25 26
M  V30 26 1 26 27
M  V30 27 1 27 28
M  V30 28 1 28 29
M  V30 29 1 29 30
M  V30 30 1 25 31
M  V30 31 2 31 32
M  V30 32 1 13 33
M  V30 33 2 33 34
M  V30 34 1 9 35
M  V30 35 1 35 36
M  V30 36 1 36 6
M  V30 37 1 34 10
M  V30 38 1 32 15
M  V30 39 1 31 18
M  V30 40 1 24 19
M  V30 41 1 30 26
M  V30 42 1 1 37
M  V30 43 1 1 38
M  V30 44 1 1 39
M  V30 45 1 2 40 CFG=3
M  V30 46 1 3 41
M  V30 47 1 3 42
M  V30 48 1 4 43
M  V30 49 1 5 44
M  V30 50 1 6 45
M  V30 51 1 7 46
M  V30 52 1 7 47
M  V30 53 1 8 48
M  V30 54 1 8 49
M  V30 55 1 11 50
M  V30 56 1 12 51
M  V30 57 1 14 52
M  V30 58 1 17 53
M  V30 59 1 20 54
M  V30 60 1 21 55
M  V30 61 1 23 56
M  V30 62 1 26 57
M  V30 63 1 27 58
M  V30 64 1 27 59
M  V30 65 1 28 60
M  V30 66 1 28 61
M  V30 67 1 29 62
M  V30 68 1 29 63
M  V30 69 1 30 64
M  V30 70 1 30 65
M  V30 71 1 34 66
M  V30 72 1 35 67
M  V30 73 1 35 68
M  V30 74 1 36 69
M  V30 75 1 36 70
M  V30 END BOND
M  V30 END CTAB
M  END
>  <Dataset>  (654) 
ChEMBL_Kinases

>  <Ligand_Instance>  (654) 
nan

>  <PDB_ID>  (654) 
nan

>  <Standardized_SMILES>  (654) 
C[C@@H](CO)NC1CCN(c2ccc(Nc3ncc4c5ccncc5n(C5CCCC5)c4n3)nc2)CC1

>  <Name>  (654) 
nan

>  <Pocket>  (654) 
nan

>  <ATP_Site>  (654) 
nan

>  <Peripheral>  (654) 
nan

>  <Num_H_Atoms_ProtBoundConf>  (654) 
nan

>  <Num_Resolved_Atoms>  (654) 
nan

>  <Num_Not_Resolved_Atoms>  (654) 
nan

$$$$
CHEMBL3642031
     RDKit          3D

  0  0  0  0  0  0  0  0  0  0999 V3000
M  V30 BEGIN CTAB
M  V30 COUNTS 68 73 0 0 0
M  V30 BEGIN ATOM
M  V30 1 C 3.032791 -2.943076 5.701059 0
M  V30 2 O 4.061518 -2.077332 5.326214 0
M  V30 3 C 4.331085 -1.761307 4.010428 0
M  V30 4 O 3.564468 -2.328779 3.178466 0
M  V30 5 C 5.460896 -0.826399 3.859620 0
M  V30 6 N 5.789738 -0.488782 2.500312 0
M  V30 7 C 4.817008 0.277595 1.812865 0
M  V30 8 C 4.445588 1.582330 2.474206 0
M  V30 9 C 3.234293 2.172607 1.737514 0
M  V30 10 N 3.365841 1.963697 0.299645 0
M  V30 11 C 2.248765 1.840180 -0.577531 0
M  V30 12 C 2.333730 1.839228 -1.953094 0
M  V30 13 C 1.200324 1.684336 -2.741206 0
M  V30 14 C 0.018266 1.536042 -2.046738 0
M  V30 15 N -1.178204 1.341970 -2.786806 0
M  V30 16 C -2.532613 1.160675 -2.350378 0
M  V30 17 N -3.666979 1.872540 -2.454086 0
M  V30 18 C -4.775932 1.389486 -1.898707 0
M  V30 19 C -4.713714 0.179054 -1.238351 0
M  V30 20 C -5.779865 -0.454981 -0.596976 0
M  V30 21 C -7.105665 -0.192100 -0.389279 0
M  V30 22 C -7.918794 -1.076720 0.333854 0
M  V30 23 N -7.288109 -2.166773 0.786129 0
M  V30 24 C -6.001445 -2.439610 0.595205 0
M  V30 25 C -5.189441 -1.596613 -0.105167 0
M  V30 26 N -3.889767 -1.719113 -0.379696 0
M  V30 27 C -2.815949 -2.603164 -0.144350 0
M  V30 28 C -3.094095 -3.988621 0.304666 0
M  V30 29 C -3.749287 -4.665711 -0.834914 0
M  V30 30 C -3.337570 -3.829616 -2.042348 0
M  V30 31 C -2.188946 -2.962130 -1.502326 0
M  V30 32 C -3.587016 -0.594508 -1.097632 0
M  V30 33 N -2.554163 0.004250 -1.699650 0
M  V30 34 N -0.071184 1.537677 -0.695870 0
M  V30 35 N 1.054705 1.691309 0.013324 0
M  V30 36 C 4.773243 1.873794 -0.100979 0
M  V30 37 C 5.350534 0.545089 0.398633 0
M  V30 38 H 2.766067 -3.704083 4.968528 0
M  V30 39 H 3.260426 -3.427151 6.685921 0
M  V30 40 H 2.133573 -2.313932 5.912733 0
M  V30 41 H 5.357646 0.067114 4.511523 0
M  V30 42 H 6.364134 -1.378087 4.256537 0
M  V30 43 H 6.086025 -1.347736 2.011224 0
M  V30 44 H 3.896291 -0.320570 1.676292 0
M  V30 45 H 5.217444 2.351529 2.410884 0
M  V30 46 H 4.108273 1.379484 3.501399 0
M  V30 47 H 2.307335 1.635674 2.016164 0
M  V30 48 H 3.111380 3.229782 2.019561 0
M  V30 49 H 3.270113 1.959114 -2.431941 0
M  V30 50 H 1.277709 1.685618 -3.820644 0
M  V30 51 H -1.264230 1.299176 -3.820321 0
M  V30 52 H -5.690176 1.951544 -1.977220 0
M  V30 53 H -7.528655 0.702961 -0.784790 0
M  V30 54 H -8.970152 -0.840818 0.485553 0
M  V30 55 H -5.621364 -3.346786 1.020546 0
M  V30 56 H -1.995876 -2.121352 0.476177 0
M  V30 57 H -3.510671 -4.136460 1.300672 0
M  V30 58 H -2.046397 -4.470926 0.381185 0
M  V30 59 H -3.329810 -5.709313 -0.947439 0
M  V30 60 H -4.826687 -4.732797 -0.686990 0
M  V30 61 H -4.167511 -3.114343 -2.231800 0
M  V30 62 H -3.040557 -4.430198 -2.900549 0
M  V30 63 H -1.914548 -2.141904 -2.123417 0
M  V30 64 H -1.313386 -3.643140 -1.317050 0
M  V30 65 H 4.831491 1.825852 -1.185277 0
M  V30 66 H 5.293893 2.720821 0.349397 0
M  V30 67 H 5.041411 -0.238455 -0.303086 0
M  V30 68 H 6.435527 0.651993 0.384942 0
M  V30 END ATOM
M  V30 BEGIN BOND
M  V30 1 1 1 2
M  V30 2 1 2 3
M  V30 3 2 3 4
M  V30 4 1 3 5
M  V30 5 1 5 6
M  V30 6 1 6 7
M  V30 7 1 7 8
M  V30 8 1 8 9
M  V30 9 1 9 10
M  V30 10 1 10 11
M  V30 11 2 11 12
M  V30 12 1 12 13
M  V30 13 2 13 14
M  V30 14 1 14 15
M  V30 15 1 15 16
M  V30 16 2 16 17
M  V30 17 1 17 18
M  V30 18 2 18 19
M  V30 19 1 19 20
M  V30 20 2 20 21
M  V30 21 1 21 22
M  V30 22 2 22 23
M  V30 23 1 23 24
M  V30 24 2 24 25
M  V30 25 1 25 26
M  V30 26 1 26 27
M  V30 27 1 27 28
M  V30 28 1 28 29
M  V30 29 1 29 30
M  V30 30 1 30 31
M  V30 31 1 26 32
M  V30 32 2 32 33
M  V30 33 1 14 34
M  V30 34 2 34 35
M  V30 35 1 10 36
M  V30 36 1 36 37
M  V30 37 1 37 7
M  V30 38 1 35 11
M  V30 39 1 33 16
M  V30 40 1 32 19
M  V30 41 1 25 20
M  V30 42 1 31 27
M  V30 43 1 1 38
M  V30 44 1 1 39
M  V30 45 1 1 40
M  V30 46 1 5 41
M  V30 47 1 5 42
M  V30 48 1 6 43
M  V30 49 1 7 44
M  V30 50 1 8 45
M  V30 51 1 8 46
M  V30 52 1 9 47
M  V30 53 1 9 48
M  V30 54 1 12 49
M  V30 55 1 13 50
M  V30 56 1 15 51
M  V30 57 1 18 52
M  V30 58 1 21 53
M  V30 59 1 22 54
M  V30 60 1 24 55
M  V30 61 1 27 56
M  V30 62 1 28 57
M  V30 63 1 28 58
M  V30 64 1 29 59
M  V30 65 1 29 60
M  V30 66 1 30 61
M  V30 67 1 30 62
M  V30 68 1 31 63
M  V30 69 1 31 64
M  V30 70 1 36 65
M  V30 71 1 36 66
M  V30 72 1 37 67
M  V30 73 1 37 68
M  V30 END BOND
M  V30 END CTAB
M  END
>  <Dataset>  (655) 
ChEMBL_Kinases

>  <Ligand_Instance>  (655) 
nan

>  <PDB_ID>  (655) 
nan

>  <Standardized_SMILES>  (655) 
COC(=O)CNC1CCN(c2ccc(Nc3ncc4c5ccncc5n(C5CCCC5)c4n3)nn2)CC1

>  <Name>  (655) 
nan

>  <Pocket>  (655) 
nan

>  <ATP_Site>  (655) 
nan

>  <Peripheral>  (655) 
nan

>  <Num_H_Atoms_ProtBoundConf>  (655) 
nan

>  <Num_Resolved_Atoms>  (655) 
nan

>  <Num_Not_Resolved_Atoms>  (655) 
nan

$$$$
CHEMBL3642032
     RDKit          3D

  0  0  0  0  0  0  0  0  0  0999 V3000
M  V30 BEGIN CTAB
M  V30 COUNTS 66 71 0 0 0
M  V30 BEGIN ATOM
M  V30 1 O 5.744153 -1.445871 3.957600 0
M  V30 2 C 5.492806 -0.416564 3.245339 0
M  V30 3 O 5.025245 -0.625731 1.960506 0
M  V30 4 C 5.781691 0.812417 4.022097 0
M  V30 5 N 5.542108 2.032614 3.348074 0
M  V30 6 C 4.217859 2.398627 3.041300 0
M  V30 7 C 3.259037 2.595085 4.148777 0
M  V30 8 C 2.134252 3.562064 3.750255 0
M  V30 9 N 1.886493 3.306069 2.338846 0
M  V30 10 C 0.794705 2.564537 1.817892 0
M  V30 11 C 0.714749 2.068113 0.526492 0
M  V30 12 C -0.371881 1.342226 0.083759 0
M  V30 13 C -1.439938 1.073135 0.910233 0
M  V30 14 N -2.556267 0.293239 0.507280 0
M  V30 15 C -2.660660 -0.291696 -0.796795 0
M  V30 16 N -2.351876 0.218284 -2.003444 0
M  V30 17 C -2.474501 -0.487755 -3.126401 0
M  V30 18 C -2.931548 -1.794102 -3.080880 0
M  V30 19 C -3.197032 -2.852362 -3.921218 0
M  V30 20 C -3.057617 -2.884213 -5.297452 0
M  V30 21 C -3.390402 -4.071448 -5.949677 0
M  V30 22 N -3.822323 -5.116107 -5.247073 0
M  V30 23 C -3.965085 -5.105672 -3.909585 0
M  V30 24 C -3.649843 -3.950532 -3.197782 0
M  V30 25 N -3.671853 -3.591264 -1.903194 0
M  V30 26 C -4.078105 -4.485594 -0.857166 0
M  V30 27 C -3.027013 -5.582623 -0.720526 0
M  V30 28 C -1.968691 -4.828762 0.085626 0
M  V30 29 C -2.755958 -4.027062 1.102195 0
M  V30 30 C -4.115082 -3.901534 0.510772 0
M  V30 31 C -3.240719 -2.295214 -1.835660 0
M  V30 32 N -3.096957 -1.534557 -0.751600 0
M  V30 33 N -1.365993 1.556606 2.166759 0
M  V30 34 C -0.302194 2.260621 2.582306 0
M  V30 35 C 2.937085 3.924744 1.537919 0
M  V30 36 C 4.287070 3.677732 2.196415 0
M  V30 37 H 4.853525 -1.591752 1.637543 0
M  V30 38 H 6.900588 0.772229 4.196619 0
M  V30 39 H 5.372741 0.757881 5.055929 0
M  V30 40 H 6.166120 2.807093 3.639794 0
M  V30 41 H 3.796723 1.588041 2.373380 0
M  V30 42 H 2.757022 1.629257 4.369468 0
M  V30 43 H 3.712303 2.902347 5.110084 0
M  V30 44 H 2.407358 4.611179 3.860470 0
M  V30 45 H 1.259818 3.329444 4.395291 0
M  V30 46 H 1.510509 2.242371 -0.158048 0
M  V30 47 H -0.366756 0.982438 -0.945195 0
M  V30 48 H -3.329192 0.153440 1.196521 0
M  V30 49 H -2.233722 -0.098583 -4.080856 0
M  V30 50 H -2.700899 -2.023112 -5.866198 0
M  V30 51 H -3.297001 -4.135780 -7.015333 0
M  V30 52 H -4.320914 -5.974545 -3.359104 0
M  V30 53 H -5.080898 -4.944215 -1.080742 0
M  V30 54 H -3.410567 -6.418351 -0.107285 0
M  V30 55 H -2.554919 -5.865235 -1.658332 0
M  V30 56 H -1.302065 -5.530202 0.608810 0
M  V30 57 H -1.376682 -4.157763 -0.542346 0
M  V30 58 H -2.276378 -3.077947 1.382755 0
M  V30 59 H -2.794571 -4.620233 2.057205 0
M  V30 60 H -4.544843 -2.881548 0.558133 0
M  V30 61 H -4.814535 -4.530056 1.116059 0
M  V30 62 H -0.411878 2.567885 3.599074 0
M  V30 63 H 2.963296 3.425469 0.551521 0
M  V30 64 H 2.815463 5.021933 1.497816 0
M  V30 65 H 4.502439 4.503903 2.891099 0
M  V30 66 H 5.028983 3.582657 1.391116 0
M  V30 END ATOM
M  V30 BEGIN BOND
M  V30 1 2 1 2
M  V30 2 1 2 3
M  V30 3 1 2 4
M  V30 4 1 4 5
M  V30 5 1 5 6
M  V30 6 1 6 7
M  V30 7 1 7 8
M  V30 8 1 8 9
M  V30 9 1 9 10
M  V30 10 2 10 11
M  V30 11 1 11 12
M  V30 12 2 12 13
M  V30 13 1 13 14
M  V30 14 1 14 15
M  V30 15 2 15 16
M  V30 16 1 16 17
M  V30 17 2 17 18
M  V30 18 1 18 19
M  V30 19 2 19 20
M  V30 20 1 20 21
M  V30 21 2 21 22
M  V30 22 1 22 23
M  V30 23 2 23 24
M  V30 24 1 24 25
M  V30 25 1 25 26
M  V30 26 1 26 27
M  V30 27 1 27 28
M  V30 28 1 28 29
M  V30 29 1 29 30
M  V30 30 1 25 31
M  V30 31 2 31 32
M  V30 32 1 13 33
M  V30 33 2 33 34
M  V30 34 1 9 35
M  V30 35 1 35 36
M  V30 36 1 36 6
M  V30 37 1 34 10
M  V30 38 1 32 15
M  V30 39 1 31 18
M  V30 40 1 24 19
M  V30 41 1 30 26
M  V30 42 1 3 37
M  V30 43 1 4 38
M  V30 44 1 4 39
M  V30 45 1 5 40
M  V30 46 1 6 41
M  V30 47 1 7 42
M  V30 48 1 7 43
M  V30 49 1 8 44
M  V30 50 1 8 45
M  V30 51 1 11 46
M  V30 52 1 12 47
M  V30 53 1 14 48
M  V30 54 1 17 49
M  V30 55 1 20 50
M  V30 56 1 21 51
M  V30 57 1 23 52
M  V30 58 1 26 53
M  V30 59 1 27 54
M  V30 60 1 27 55
M  V30 61 1 28 56
M  V30 62 1 28 57
M  V30 63 1 29 58
M  V30 64 1 29 59
M  V30 65 1 30 60
M  V30 66 1 30 61
M  V30 67 1 34 62
M  V30 68 1 35 63
M  V30 69 1 35 64
M  V30 70 1 36 65
M  V30 71 1 36 66
M  V30 END BOND
M  V30 END CTAB
M  END
>  <Dataset>  (656) 
ChEMBL_Kinases

>  <Ligand_Instance>  (656) 
nan

>  <PDB_ID>  (656) 
nan

>  <Standardized_SMILES>  (656) 
O=C(O)CNC1CCN(c2ccc(Nc3ncc4c5ccncc5n(C5CCCC5)c4n3)nc2)CC1

>  <Name>  (656) 
nan

>  <Pocket>  (656) 
nan

>  <ATP_Site>  (656) 
nan

>  <Peripheral>  (656) 
nan

>  <Num_H_Atoms_ProtBoundConf>  (656) 
nan

>  <Num_Resolved_Atoms>  (656) 
nan

>  <Num_Not_Resolved_Atoms>  (656) 
nan

$$$$
CHEMBL3642033
     RDKit          3D

  0  0  0  0  0  0  0  0  0  0999 V3000
M  V30 BEGIN CTAB
M  V30 COUNTS 65 70 0 0 0
M  V30 BEGIN ATOM
M  V30 1 O 3.185007 -1.317255 3.401123 0
M  V30 2 C 4.097875 -0.467198 3.258905 0
M  V30 3 O 5.380427 -0.837341 3.709224 0
M  V30 4 C 3.789812 0.861889 2.635964 0
M  V30 5 N 4.991453 1.622740 2.602105 0
M  V30 6 C 4.919368 2.934267 2.047312 0
M  V30 7 C 4.486130 2.974612 0.594354 0
M  V30 8 C 3.180431 3.749241 0.448498 0
M  V30 9 N 2.226054 3.406101 1.449628 0
M  V30 10 C 1.028593 2.660303 1.306048 0
M  V30 11 C 0.734247 2.023238 0.101426 0
M  V30 12 C -0.461038 1.331514 0.057581 0
M  V30 13 C -1.347667 1.242157 1.109610 0
M  V30 14 N -2.577661 0.537134 1.053453 0
M  V30 15 C -2.972990 -0.159368 -0.121559 0
M  V30 16 N -3.252494 0.454593 -1.310496 0
M  V30 17 C -3.636925 -0.265132 -2.387006 0
M  V30 18 C -3.730249 -1.638610 -2.217267 0
M  V30 19 C -4.078073 -2.667258 -3.043190 0
M  V30 20 C -4.467251 -2.748335 -4.361020 0
M  V30 21 C -4.782530 -3.917163 -5.021057 0
M  V30 22 N -4.706444 -5.085124 -4.327933 0
M  V30 23 C -4.330734 -5.050281 -3.039397 0
M  V30 24 C -4.014254 -3.882526 -2.372959 0
M  V30 25 N -3.615021 -3.591186 -1.098713 0
M  V30 26 C -3.451488 -4.622419 -0.095732 0
M  V30 27 C -2.109563 -5.275168 -0.289436 0
M  V30 28 C -1.149681 -4.680097 0.715552 0
M  V30 29 C -1.997303 -3.991328 1.750290 0
M  V30 30 C -3.406241 -4.099745 1.291331 0
M  V30 31 C -3.444269 -2.239898 -1.008852 0
M  V30 32 N -3.064157 -1.483807 0.037173 0
M  V30 33 N -0.983435 1.894128 2.254217 0
M  V30 34 N 0.156276 2.561465 2.315931 0
M  V30 35 C 2.686490 3.952627 2.693643 0
M  V30 36 C 4.158161 3.936051 2.872624 0
M  V30 37 H 5.569346 -1.816112 3.881106 0
M  V30 38 H 3.088320 1.377630 3.347389 0
M  V30 39 H 3.330208 0.652928 1.674611 0
M  V30 40 H 5.433902 1.678570 3.522793 0
M  V30 41 H 5.986518 3.294156 2.056799 0
M  V30 42 H 5.214423 3.510132 -0.048170 0
M  V30 43 H 4.405996 1.956006 0.155968 0
M  V30 44 H 3.391805 4.848836 0.417277 0
M  V30 45 H 2.768451 3.496575 -0.545785 0
M  V30 46 H 1.379996 2.047403 -0.763344 0
M  V30 47 H -0.790296 0.800119 -0.828588 0
M  V30 48 H -3.197195 0.531942 1.892038 0
M  V30 49 H -3.863903 0.166256 -3.329630 0
M  V30 50 H -4.539244 -1.833155 -4.947612 0
M  V30 51 H -5.085488 -4.008127 -6.033830 0
M  V30 52 H -4.263558 -5.952955 -2.472306 0
M  V30 53 H -4.216417 -5.423100 -0.233449 0
M  V30 54 H -2.167761 -6.382931 -0.187239 0
M  V30 55 H -1.660102 -5.078258 -1.284644 0
M  V30 56 H -0.510045 -5.468976 1.175346 0
M  V30 57 H -0.469273 -3.930379 0.264528 0
M  V30 58 H -1.651449 -2.948330 1.953521 0
M  V30 59 H -1.858157 -4.510932 2.742796 0
M  V30 60 H -4.001143 -3.177436 1.447252 0
M  V30 61 H -3.927817 -4.864044 1.939456 0
M  V30 62 H 2.129411 3.544516 3.580414 0
M  V30 63 H 2.351717 5.033330 2.682447 0
M  V30 64 H 4.583872 4.948126 2.603686 0
M  V30 65 H 4.445962 3.777586 3.930587 0
M  V30 END ATOM
M  V30 BEGIN BOND
M  V30 1 2 1 2
M  V30 2 1 2 3
M  V30 3 1 2 4
M  V30 4 1 4 5
M  V30 5 1 5 6
M  V30 6 1 6 7
M  V30 7 1 7 8
M  V30 8 1 8 9
M  V30 9 1 9 10
M  V30 10 2 10 11
M  V30 11 1 11 12
M  V30 12 2 12 13
M  V30 13 1 13 14
M  V30 14 1 14 15
M  V30 15 2 15 16
M  V30 16 1 16 17
M  V30 17 2 17 18
M  V30 18 1 18 19
M  V30 19 2 19 20
M  V30 20 1 20 21
M  V30 21 2 21 22
M  V30 22 1 22 23
M  V30 23 2 23 24
M  V30 24 1 24 25
M  V30 25 1 25 26
M  V30 26 1 26 27
M  V30 27 1 27 28
M  V30 28 1 28 29
M  V30 29 1 29 30
M  V30 30 1 25 31
M  V30 31 2 31 32
M  V30 32 1 13 33
M  V30 33 2 33 34
M  V30 34 1 9 35
M  V30 35 1 35 36
M  V30 36 1 36 6
M  V30 37 1 34 10
M  V30 38 1 32 15
M  V30 39 1 31 18
M  V30 40 1 24 19
M  V30 41 1 30 26
M  V30 42 1 3 37
M  V30 43 1 4 38
M  V30 44 1 4 39
M  V30 45 1 5 40
M  V30 46 1 6 41
M  V30 47 1 7 42
M  V30 48 1 7 43
M  V30 49 1 8 44
M  V30 50 1 8 45
M  V30 51 1 11 46
M  V30 52 1 12 47
M  V30 53 1 14 48
M  V30 54 1 17 49
M  V30 55 1 20 50
M  V30 56 1 21 51
M  V30 57 1 23 52
M  V30 58 1 26 53
M  V30 59 1 27 54
M  V30 60 1 27 55
M  V30 61 1 28 56
M  V30 62 1 28 57
M  V30 63 1 29 58
M  V30 64 1 29 59
M  V30 65 1 30 60
M  V30 66 1 30 61
M  V30 67 1 35 62
M  V30 68 1 35 63
M  V30 69 1 36 64
M  V30 70 1 36 65
M  V30 END BOND
M  V30 END CTAB
M  END
>  <Dataset>  (657) 
ChEMBL_Kinases

>  <Ligand_Instance>  (657) 
nan

>  <PDB_ID>  (657) 
nan

>  <Standardized_SMILES>  (657) 
O=C(O)CNC1CCN(c2ccc(Nc3ncc4c5ccncc5n(C5CCCC5)c4n3)nn2)CC1

>  <Name>  (657) 
nan

>  <Pocket>  (657) 
nan

>  <ATP_Site>  (657) 
nan

>  <Peripheral>  (657) 
nan

>  <Num_H_Atoms_ProtBoundConf>  (657) 
nan

>  <Num_Resolved_Atoms>  (657) 
nan

>  <Num_Not_Resolved_Atoms>  (657) 
nan

$$$$
CHEMBL3937369
     RDKit          3D

  0  0  0  0  0  0  0  0  0  0999 V3000
M  V30 BEGIN CTAB
M  V30 COUNTS 55 59 0 0 0
M  V30 BEGIN ATOM
M  V30 1 C 4.504596 -0.230801 4.618847 0
M  V30 2 C 5.773598 -0.081736 5.183289 0
M  V30 3 N 6.869714 0.268558 4.482114 0
M  V30 4 C 6.736554 0.488210 3.160099 0
M  V30 5 N 7.630653 0.845804 2.204785 0
M  V30 6 C 6.962344 0.932654 1.021971 0
M  V30 7 N 5.643765 0.636163 1.194021 0
M  V30 8 C 4.665578 0.632304 0.164585 0
M  V30 9 C 3.411528 1.193376 0.248405 0
M  V30 10 C 2.526726 1.130694 -0.830790 0
M  V30 11 N 1.291816 1.770298 -0.535315 0
M  V30 12 C 0.121469 1.197841 0.035226 0
M  V30 13 C -1.017208 1.945651 0.254275 0
M  V30 14 C -2.132108 1.310465 0.821678 0
M  V30 15 C -2.125481 -0.053015 1.171248 0
M  V30 16 O -3.361273 -0.313038 1.686332 0
M  V30 17 C -3.860467 -1.519465 2.164318 0
M  V30 18 C -3.957092 -2.624928 1.170794 0
M  V30 19 N -4.821303 -2.339255 0.046078 0
M  V30 20 C -4.347972 -1.324397 -0.839703 0
M  V30 21 C -5.125274 -1.431798 -2.160051 0
M  V30 22 C -4.586605 -2.623566 -2.906005 0
M  V30 23 C -4.123173 -3.629480 -1.875720 0
M  V30 24 C -5.027009 -3.598198 -0.647359 0
M  V30 25 C -0.946665 -0.723593 0.918380 0
M  V30 26 N 0.106082 -0.098702 0.375745 0
M  V30 27 N 2.937415 0.502264 -1.962144 0
M  V30 28 C 4.144590 -0.035900 -2.037802 0
M  V30 29 N 5.000283 0.019442 -1.007147 0
M  V30 30 C 5.522344 0.365319 2.514274 0
M  V30 31 C 4.418968 0.005507 3.258772 0
M  V30 32 H 3.695544 -0.515590 5.279690 0
M  V30 33 H 5.968946 -0.239775 6.241063 0
M  V30 34 H 7.494820 1.209756 0.110021 0
M  V30 35 H 3.205845 1.666890 1.207283 0
M  V30 36 H 1.291302 2.788241 -0.781359 0
M  V30 37 H -0.940459 2.978780 -0.040653 0
M  V30 38 H -2.927634 2.061996 0.915832 0
M  V30 39 H -3.124715 -1.886827 2.948365 0
M  V30 40 H -4.796638 -1.386224 2.759005 0
M  V30 41 H -4.462815 -3.490005 1.702166 0
M  V30 42 H -2.963679 -2.965176 0.881718 0
M  V30 43 H -4.531154 -0.303347 -0.389024 0
M  V30 44 H -3.279402 -1.474374 -1.087456 0
M  V30 45 H -4.908054 -0.499429 -2.725986 0
M  V30 46 H -6.221565 -1.518777 -1.955090 0
M  V30 47 H -5.347510 -3.081572 -3.573671 0
M  V30 48 H -3.696420 -2.291509 -3.477493 0
M  V30 49 H -4.169373 -4.638726 -2.338731 0
M  V30 50 H -3.098730 -3.451270 -1.532546 0
M  V30 51 H -6.090058 -3.710926 -0.960866 0
M  V30 52 H -4.757313 -4.462559 -0.024396 0
M  V30 53 H -1.037270 -1.748846 1.226648 0
M  V30 54 H 4.341084 -0.496655 -2.976133 0
M  V30 55 H 3.463938 -0.101688 2.805663 0
M  V30 END ATOM
M  V30 BEGIN BOND
M  V30 1 2 1 2
M  V30 2 1 2 3
M  V30 3 2 3 4
M  V30 4 1 4 5
M  V30 5 2 5 6
M  V30 6 1 6 7
M  V30 7 1 7 8
M  V30 8 2 8 9
M  V30 9 1 9 10
M  V30 10 1 10 11
M  V30 11 1 11 12
M  V30 12 2 12 13
M  V30 13 1 13 14
M  V30 14 2 14 15
M  V30 15 1 15 16
M  V30 16 1 16 17
M  V30 17 1 17 18
M  V30 18 1 18 19
M  V30 19 1 19 20
M  V30 20 1 20 21
M  V30 21 1 21 22
M  V30 22 1 22 23
M  V30 23 1 23 24
M  V30 24 1 15 25
M  V30 25 2 25 26
M  V30 26 2 10 27
M  V30 27 1 27 28
M  V30 28 2 28 29
M  V30 29 1 7 30
M  V30 30 2 30 31
M  V30 31 1 31 1
M  V30 32 1 30 4
M  V30 33 1 29 8
M  V30 34 1 26 12
M  V30 35 1 24 19
M  V30 36 1 1 32
M  V30 37 1 2 33
M  V30 38 1 6 34
M  V30 39 1 9 35
M  V30 40 1 11 36
M  V30 41 1 13 37
M  V30 42 1 14 38
M  V30 43 1 17 39
M  V30 44 1 17 40
M  V30 45 1 18 41
M  V30 46 1 18 42
M  V30 47 1 20 43
M  V30 48 1 20 44
M  V30 49 1 21 45
M  V30 50 1 21 46
M  V30 51 1 22 47
M  V30 52 1 22 48
M  V30 53 1 23 49
M  V30 54 1 23 50
M  V30 55 1 24 51
M  V30 56 1 24 52
M  V30 57 1 25 53
M  V30 58 1 28 54
M  V30 59 1 31 55
M  V30 END BOND
M  V30 END CTAB
M  END
>  <Dataset>  (658) 
ChEMBL_Kinases

>  <Ligand_Instance>  (658) 
nan

>  <PDB_ID>  (658) 
nan

>  <Standardized_SMILES>  (658) 
c1cnc2ncn(-c3cc(Nc4ccc(OCCN5CCCCC5)cn4)ncn3)c2c1

>  <Name>  (658) 
nan

>  <Pocket>  (658) 
nan

>  <ATP_Site>  (658) 
nan

>  <Peripheral>  (658) 
nan

>  <Num_H_Atoms_ProtBoundConf>  (658) 
nan

>  <Num_Resolved_Atoms>  (658) 
nan

>  <Num_Not_Resolved_Atoms>  (658) 
nan

$$$$
CHEMBL3642034
     RDKit          3D

  0  0  0  0  0  0  0  0  0  0999 V3000
M  V30 BEGIN CTAB
M  V30 COUNTS 76 81 0 0 0
M  V30 BEGIN ATOM
M  V30 1 C 3.016073 -2.831880 3.504905 0
M  V30 2 N 2.380214 -3.446501 2.376328 0
M  V30 3 C 1.050663 -3.851051 2.757030 0
M  V30 4 C 2.376449 -2.624577 1.181129 0
M  V30 5 C 3.783817 -2.460599 0.636892 0
M  V30 6 N 3.735671 -1.653201 -0.545689 0
M  V30 7 C 3.082158 -2.450317 -1.596249 0
M  V30 8 C 5.020169 -1.278055 -1.052932 0
M  V30 9 C 4.815069 -0.510641 -2.354151 0
M  V30 10 C 4.086071 0.792188 -2.084460 0
M  V30 11 N 4.004722 0.977520 -0.646993 0
M  V30 12 C 2.797862 1.120011 0.082252 0
M  V30 13 C 1.568937 0.863387 -0.477368 0
M  V30 14 C 0.470811 1.042320 0.344918 0
M  V30 15 C 0.525679 1.450970 1.657814 0
M  V30 16 N -0.594242 1.621200 2.511331 0
M  V30 17 C -1.977620 1.402292 2.269920 0
M  V30 18 N -2.845531 1.658835 3.262046 0
M  V30 19 C -4.172409 1.485950 3.185032 0
M  V30 20 C -4.599483 1.003963 1.958086 0
M  V30 21 C -5.936871 0.739099 1.635051 0
M  V30 22 C -7.140539 0.853273 2.339626 0
M  V30 23 C -8.292717 0.484069 1.669474 0
M  V30 24 N -8.219637 0.046006 0.412497 0
M  V30 25 C -7.058953 -0.063656 -0.266048 0
M  V30 26 C -5.867650 0.280901 0.323782 0
M  V30 27 N -4.594127 0.266683 -0.117040 0
M  V30 28 C -4.044613 -0.113026 -1.378393 0
M  V30 29 C -2.654552 -0.697484 -1.262860 0
M  V30 30 C -2.616126 -1.959087 -2.087519 0
M  V30 31 C -3.755308 -1.778738 -3.053874 0
M  V30 32 C -4.818003 -1.113732 -2.174341 0
M  V30 33 C -3.784582 0.714732 0.889228 0
M  V30 34 N -2.485819 0.940074 1.121503 0
M  V30 35 N 1.758651 1.681127 2.126979 0
M  V30 36 N 2.812391 1.515574 1.358183 0
M  V30 37 C 5.332127 0.979932 -0.060137 0
M  V30 38 C 5.794251 -0.461988 -0.069141 0
M  V30 39 H 2.588780 -1.815074 3.708068 0
M  V30 40 H 4.121226 -2.788994 3.419455 0
M  V30 41 H 2.785616 -3.455067 4.395263 0
M  V30 42 H 0.278508 -3.446887 2.059406 0
M  V30 43 H 0.769435 -3.503482 3.778622 0
M  V30 44 H 1.017940 -4.967863 2.775537 0
M  V30 45 H 1.655874 -2.997890 0.460073 0
M  V30 46 H 2.011276 -1.620317 1.519304 0
M  V30 47 H 4.376798 -2.092064 1.470607 0
M  V30 48 H 4.102668 -3.480321 0.300614 0
M  V30 49 H 2.283872 -1.895293 -2.098963 0
M  V30 50 H 3.854890 -2.843885 -2.311909 0
M  V30 51 H 2.643619 -3.371428 -1.162975 0
M  V30 52 H 5.630835 -2.183262 -1.278503 0
M  V30 53 H 4.260615 -1.074701 -3.092171 0
M  V30 54 H 5.831452 -0.259983 -2.717835 0
M  V30 55 H 3.141612 0.822462 -2.611704 0
M  V30 56 H 4.706862 1.654015 -2.450968 0
M  V30 57 H 1.464980 0.542954 -1.488135 0
M  V30 58 H -0.484160 0.842122 -0.098366 0
M  V30 59 H -0.350544 1.970820 3.488727 0
M  V30 60 H -4.815063 1.712003 4.021025 0
M  V30 61 H -7.144804 1.211380 3.347298 0
M  V30 62 H -9.200202 0.589400 2.252721 0
M  V30 63 H -7.109954 -0.425502 -1.274444 0
M  V30 64 H -4.036596 0.831059 -2.003205 0
M  V30 65 H -1.961581 0.026253 -1.780884 0
M  V30 66 H -2.348839 -0.963951 -0.250090 0
M  V30 67 H -2.741786 -2.855027 -1.430516 0
M  V30 68 H -1.642212 -2.051420 -2.635947 0
M  V30 69 H -4.115132 -2.718152 -3.472617 0
M  V30 70 H -3.428845 -1.074312 -3.850758 0
M  V30 71 H -5.289914 -1.905442 -1.597542 0
M  V30 72 H -5.500655 -0.630973 -2.919387 0
M  V30 73 H 6.051871 1.561797 -0.680624 0
M  V30 74 H 5.315124 1.342978 0.990959 0
M  V30 75 H 6.862213 -0.451293 -0.412981 0
M  V30 76 H 5.693820 -0.840058 0.943484 0
M  V30 END ATOM
M  V30 BEGIN BOND
M  V30 1 1 1 2
M  V30 2 1 2 3
M  V30 3 1 2 4
M  V30 4 1 4 5
M  V30 5 1 5 6
M  V30 6 1 6 7
M  V30 7 1 6 8
M  V30 8 1 8 9
M  V30 9 1 9 10
M  V30 10 1 10 11
M  V30 11 1 11 12
M  V30 12 2 12 13
M  V30 13 1 13 14
M  V30 14 2 14 15
M  V30 15 1 15 16
M  V30 16 1 16 17
M  V30 17 2 17 18
M  V30 18 1 18 19
M  V30 19 2 19 20
M  V30 20 1 20 21
M  V30 21 2 21 22
M  V30 22 1 22 23
M  V30 23 2 23 24
M  V30 24 1 24 25
M  V30 25 2 25 26
M  V30 26 1 26 27
M  V30 27 1 27 28
M  V30 28 1 28 29
M  V30 29 1 29 30
M  V30 30 1 30 31
M  V30 31 1 31 32
M  V30 32 1 27 33
M  V30 33 2 33 34
M  V30 34 1 15 35
M  V30 35 2 35 36
M  V30 36 1 11 37
M  V30 37 1 37 38
M  V30 38 1 38 8
M  V30 39 1 36 12
M  V30 40 1 34 17
M  V30 41 1 33 20
M  V30 42 1 26 21
M  V30 43 1 32 28
M  V30 44 1 1 39
M  V30 45 1 1 40
M  V30 46 1 1 41
M  V30 47 1 3 42
M  V30 48 1 3 43
M  V30 49 1 3 44
M  V30 50 1 4 45
M  V30 51 1 4 46
M  V30 52 1 5 47
M  V30 53 1 5 48
M  V30 54 1 7 49
M  V30 55 1 7 50
M  V30 56 1 7 51
M  V30 57 1 8 52
M  V30 58 1 9 53
M  V30 59 1 9 54
M  V30 60 1 10 55
M  V30 61 1 10 56
M  V30 62 1 13 57
M  V30 63 1 14 58
M  V30 64 1 16 59
M  V30 65 1 19 60
M  V30 66 1 22 61
M  V30 67 1 23 62
M  V30 68 1 25 63
M  V30 69 1 28 64
M  V30 70 1 29 65
M  V30 71 1 29 66
M  V30 72 1 30 67
M  V30 73 1 30 68
M  V30 74 1 31 69
M  V30 75 1 31 70
M  V30 76 1 32 71
M  V30 77 1 32 72
M  V30 78 1 37 73
M  V30 79 1 37 74
M  V30 80 1 38 75
M  V30 81 1 38 76
M  V30 END BOND
M  V30 END CTAB
M  END
>  <Dataset>  (659) 
ChEMBL_Kinases

>  <Ligand_Instance>  (659) 
nan

>  <PDB_ID>  (659) 
nan

>  <Standardized_SMILES>  (659) 
CN(C)CCN(C)C1CCN(c2ccc(Nc3ncc4c5ccncc5n(C5CCCC5)c4n3)nn2)CC1

>  <Name>  (659) 
nan

>  <Pocket>  (659) 
nan

>  <ATP_Site>  (659) 
nan

>  <Peripheral>  (659) 
nan

>  <Num_H_Atoms_ProtBoundConf>  (659) 
nan

>  <Num_Resolved_Atoms>  (659) 
nan

>  <Num_Not_Resolved_Atoms>  (659) 
nan

$$$$
CHEMBL3642008
     RDKit          3D

  0  0  0  0  0  0  0  0  0  0999 V3000
M  V30 BEGIN CTAB
M  V30 COUNTS 73 79 0 0 0
M  V30 BEGIN ATOM
M  V30 1 O 7.743761 0.574650 1.111073 0
M  V30 2 C 6.884646 -0.458275 0.829229 0 CFG=1
M  V30 3 C 6.161392 -0.914963 2.076735 0
M  V30 4 C 5.122975 0.053522 2.517757 0
M  V30 5 C 4.629154 1.013922 1.493802 0
M  V30 6 N 4.841446 0.699316 0.146160 0
M  V30 7 C 3.823367 1.099409 -0.720591 0
M  V30 8 C 3.559584 2.588620 -0.752568 0
M  V30 9 C 2.626415 2.907668 -1.905142 0
M  V30 10 N 1.878678 1.675862 -2.175581 0
M  V30 11 C 0.530273 1.450871 -1.786415 0
M  V30 12 C -0.255838 0.339354 -2.000327 0
M  V30 13 C -1.560157 0.280819 -1.549555 0
M  V30 14 C -2.080115 1.366733 -0.869559 0
M  V30 15 N -3.421411 1.343296 -0.388217 0
M  V30 16 C -4.186712 0.167064 -0.634829 0
M  V30 17 N -4.952906 -0.020895 -1.729186 0
M  V30 18 C -5.662180 -1.161762 -1.915598 0
M  V30 19 C -5.541392 -2.090812 -0.923648 0
M  V30 20 C -6.109981 -3.349160 -0.777507 0
M  V30 21 C -6.973875 -4.100633 -1.549121 0
M  V30 22 C -7.334771 -5.357002 -1.065768 0
M  V30 23 N -6.883382 -5.856193 0.099864 0
M  V30 24 C -6.029756 -5.142797 0.887519 0
M  V30 25 C -5.667107 -3.885716 0.406276 0
M  V30 26 N -4.828782 -3.001281 1.022244 0
M  V30 27 C -4.127739 -3.116362 2.267453 0
M  V30 28 C -4.465385 -2.040089 3.250257 0
M  V30 29 C -3.167831 -1.333627 3.542032 0
M  V30 30 C -2.100779 -1.948808 2.681411 0
M  V30 31 C -2.644292 -3.235016 2.154880 0
M  V30 32 C -4.760042 -1.914915 0.205521 0
M  V30 33 N -4.079202 -0.761602 0.334827 0
M  V30 34 N -1.280658 2.439009 -0.678351 0
M  V30 35 N -0.033246 2.476568 -1.117740 0
M  V30 36 C 2.744393 0.745355 -2.896197 0
M  V30 37 C 4.026022 0.551059 -2.126222 0
M  V30 38 C 5.879208 -0.132894 -0.260315 0
M  V30 39 H 8.041082 0.498291 2.070350 0
M  V30 40 H 7.484303 -1.320191 0.464726 0
M  V30 41 H 6.950002 -1.089395 2.863018 0
M  V30 42 H 5.693578 -1.922309 1.910989 0
M  V30 43 H 4.300977 -0.505266 3.043716 0
M  V30 44 H 5.591168 0.654751 3.350495 0
M  V30 45 H 4.947925 2.071236 1.742947 0
M  V30 46 H 3.507604 1.067585 1.646313 0
M  V30 47 H 2.864437 0.604374 -0.378824 0
M  V30 48 H 3.040738 2.904332 0.175137 0
M  V30 49 H 4.502057 3.176114 -0.782166 0
M  V30 50 H 3.158402 3.250761 -2.804826 0
M  V30 51 H 1.878888 3.679288 -1.622992 0
M  V30 52 H 0.236914 -0.457107 -2.539204 0
M  V30 53 H -2.132753 -0.611753 -1.742352 0
M  V30 54 H -3.783747 2.179401 0.119367 0
M  V30 55 H -6.273462 -1.303249 -2.797741 0
M  V30 56 H -7.351198 -3.717784 -2.493319 0
M  V30 57 H -8.022119 -5.993301 -1.646087 0
M  V30 58 H -5.651399 -5.525864 1.834408 0
M  V30 59 H -4.482728 -4.085428 2.727708 0
M  V30 60 H -5.242024 -1.367061 2.832669 0
M  V30 61 H -4.845310 -2.430387 4.221600 0
M  V30 62 H -2.848497 -1.431352 4.602770 0
M  V30 63 H -3.310515 -0.264713 3.276010 0
M  V30 64 H -1.777840 -1.294393 1.842871 0
M  V30 65 H -1.178295 -2.189600 3.247362 0
M  V30 66 H -2.350256 -3.400600 1.081112 0
M  V30 67 H -2.216036 -4.127245 2.683768 0
M  V30 68 H 2.958567 1.132205 -3.914201 0
M  V30 69 H 2.210974 -0.225594 -2.920226 0
M  V30 70 H 4.879561 1.070018 -2.614972 0
M  V30 71 H 4.205305 -0.535607 -2.018942 0
M  V30 72 H 5.465582 -1.140769 -0.558883 0
M  V30 73 H 6.485076 0.194689 -1.144075 0
M  V30 END ATOM
M  V30 BEGIN BOND
M  V30 1 1 1 2
M  V30 2 1 2 3
M  V30 3 1 3 4
M  V30 4 1 4 5
M  V30 5 1 5 6
M  V30 6 1 6 7
M  V30 7 1 7 8
M  V30 8 1 8 9
M  V30 9 1 9 10
M  V30 10 1 10 11
M  V30 11 2 11 12
M  V30 12 1 12 13
M  V30 13 2 13 14
M  V30 14 1 14 15
M  V30 15 1 15 16
M  V30 16 2 16 17
M  V30 17 1 17 18
M  V30 18 2 18 19
M  V30 19 1 19 20
M  V30 20 2 20 21
M  V30 21 1 21 22
M  V30 22 2 22 23
M  V30 23 1 23 24
M  V30 24 2 24 25
M  V30 25 1 25 26
M  V30 26 1 26 27
M  V30 27 1 27 28
M  V30 28 1 28 29
M  V30 29 1 29 30
M  V30 30 1 30 31
M  V30 31 1 26 32
M  V30 32 2 32 33
M  V30 33 1 14 34
M  V30 34 2 34 35
M  V30 35 1 10 36
M  V30 36 1 36 37
M  V30 37 1 6 38
M  V30 38 1 38 2
M  V30 39 1 37 7
M  V30 40 1 35 11
M  V30 41 1 33 16
M  V30 42 1 32 19
M  V30 43 1 25 20
M  V30 44 1 31 27
M  V30 45 1 1 39
M  V30 46 1 2 40 CFG=3
M  V30 47 1 3 41
M  V30 48 1 3 42
M  V30 49 1 4 43
M  V30 50 1 4 44
M  V30 51 1 5 45
M  V30 52 1 5 46
M  V30 53 1 7 47
M  V30 54 1 8 48
M  V30 55 1 8 49
M  V30 56 1 9 50
M  V30 57 1 9 51
M  V30 58 1 12 52
M  V30 59 1 13 53
M  V30 60 1 15 54
M  V30 61 1 18 55
M  V30 62 1 21 56
M  V30 63 1 22 57
M  V30 64 1 24 58
M  V30 65 1 27 59
M  V30 66 1 28 60
M  V30 67 1 28 61
M  V30 68 1 29 62
M  V30 69 1 29 63
M  V30 70 1 30 64
M  V30 71 1 30 65
M  V30 72 1 31 66
M  V30 73 1 31 67
M  V30 74 1 36 68
M  V30 75 1 36 69
M  V30 76 1 37 70
M  V30 77 1 37 71
M  V30 78 1 38 72
M  V30 79 1 38 73
M  V30 END BOND
M  V30 END CTAB
M  END
>  <Dataset>  (660) 
ChEMBL_Kinases

>  <Ligand_Instance>  (660) 
nan

>  <PDB_ID>  (660) 
nan

>  <Standardized_SMILES>  (660) 
O[C@H]1CCCN(C2CCN(c3ccc(Nc4ncc5c6ccncc6n(C6CCCC6)c5n4)nn3)CC2)C1

>  <Name>  (660) 
nan

>  <Pocket>  (660) 
nan

>  <ATP_Site>  (660) 
nan

>  <Peripheral>  (660) 
nan

>  <Num_H_Atoms_ProtBoundConf>  (660) 
nan

>  <Num_Resolved_Atoms>  (660) 
nan

>  <Num_Not_Resolved_Atoms>  (660) 
nan

$$$$
CHEMBL3642036
     RDKit          3D

  0  0  0  0  0  0  0  0  0  0999 V3000
M  V30 BEGIN CTAB
M  V30 COUNTS 70 75 0 0 0
M  V30 BEGIN ATOM
M  V30 1 O 2.785714 -1.541148 3.515597 0
M  V30 2 C 4.007643 -2.188537 3.205253 0
M  V30 3 C 4.005400 -2.562075 1.736413 0 CFG=1
M  V30 4 O 2.943548 -3.424628 1.468670 0
M  V30 5 C 3.870498 -1.264867 0.970567 0
M  V30 6 N 3.840946 -1.446016 -0.445534 0
M  V30 7 C 3.570629 -0.203232 -1.085082 0
M  V30 8 C 3.383155 -0.330027 -2.588992 0
M  V30 9 C 2.856674 1.031067 -3.035945 0
M  V30 10 N 2.546381 1.857517 -1.871692 0
M  V30 11 C 1.203461 2.139556 -1.503069 0
M  V30 12 C 0.267569 1.137996 -1.846128 0
M  V30 13 C -1.052422 1.353830 -1.499306 0
M  V30 14 C -1.524083 2.489946 -0.835819 0
M  V30 15 N -2.916719 2.590609 -0.469567 0
M  V30 16 C -3.666629 1.401644 -0.798984 0
M  V30 17 N -4.543253 0.977093 -1.729811 0
M  V30 18 C -5.014355 -0.302276 -1.696050 0
M  V30 19 C -4.586144 -1.133138 -0.713219 0
M  V30 20 C -4.933274 -2.471080 -0.500335 0
M  V30 21 C -5.752539 -3.363751 -1.124639 0
M  V30 22 C -5.822065 -4.629142 -0.586285 0
M  V30 23 N -5.113667 -4.981952 0.512012 0
M  V30 24 C -4.296640 -4.109077 1.141959 0
M  V30 25 C -4.209590 -2.838921 0.624612 0
M  V30 26 N -3.477648 -1.815847 1.070045 0
M  V30 27 C -2.572104 -1.752756 2.201955 0
M  V30 28 C -3.189102 -1.174311 3.440356 0
M  V30 29 C -2.564328 0.183270 3.644117 0
M  V30 30 C -1.251793 0.165532 2.910519 0
M  V30 31 C -1.316949 -0.971075 1.930746 0
M  V30 32 C -3.696092 -0.740575 0.252419 0
M  V30 33 N -3.299865 0.529356 0.124627 0
M  V30 34 N -0.560897 3.380341 -0.557195 0
M  V30 35 N 0.705016 3.207568 -0.871697 0
M  V30 36 C 3.815479 2.223308 -1.246411 0
M  V30 37 C 4.526516 0.913160 -0.864045 0
M  V30 38 H 2.687904 -1.321458 4.455275 0
M  V30 39 H 4.102119 -3.088678 3.850203 0
M  V30 40 H 4.800704 -1.430446 3.373647 0
M  V30 41 H 4.941554 -3.057224 1.436862 0
M  V30 42 H 3.258535 -4.235937 1.034138 0
M  V30 43 H 2.982660 -0.716506 1.311594 0
M  V30 44 H 4.783434 -0.666466 1.208678 0
M  V30 45 H 3.097122 -2.151204 -0.721732 0
M  V30 46 H 2.581072 0.143667 -0.676049 0
M  V30 47 H 4.343354 -0.548065 -3.093035 0
M  V30 48 H 2.594571 -1.072166 -2.814204 0
M  V30 49 H 3.654591 1.517662 -3.635904 0
M  V30 50 H 1.918742 0.916039 -3.608765 0
M  V30 51 H 0.538433 0.233847 -2.348946 0
M  V30 52 H -1.734623 0.553120 -1.788211 0
M  V30 53 H -3.145447 3.492406 -0.033107 0
M  V30 54 H -5.700212 -0.503349 -2.491487 0
M  V30 55 H -6.321225 -3.080603 -2.005827 0
M  V30 56 H -6.448152 -5.398502 -1.023173 0
M  V30 57 H -3.754261 -4.450812 2.018182 0
M  V30 58 H -2.262701 -2.819695 2.427371 0
M  V30 59 H -4.283968 -1.111529 3.356833 0
M  V30 60 H -2.948920 -1.826488 4.332902 0
M  V30 61 H -2.414073 0.352986 4.727723 0
M  V30 62 H -3.199581 1.027317 3.301025 0
M  V30 63 H -0.455307 0.004694 3.680754 0
M  V30 64 H -0.997543 1.116487 2.407820 0
M  V30 65 H -1.380336 -0.602985 0.879316 0
M  V30 66 H -0.401404 -1.581812 2.021864 0
M  V30 67 H 3.686843 2.872907 -0.356071 0
M  V30 68 H 4.442107 2.713190 -2.010184 0
M  V30 69 H 5.365639 0.760176 -1.601936 0
M  V30 70 H 4.981670 0.987740 0.122890 0
M  V30 END ATOM
M  V30 BEGIN BOND
M  V30 1 1 1 2
M  V30 2 1 2 3
M  V30 3 1 3 4
M  V30 4 1 3 5
M  V30 5 1 5 6
M  V30 6 1 6 7
M  V30 7 1 7 8
M  V30 8 1 8 9
M  V30 9 1 9 10
M  V30 10 1 10 11
M  V30 11 2 11 12
M  V30 12 1 12 13
M  V30 13 2 13 14
M  V30 14 1 14 15
M  V30 15 1 15 16
M  V30 16 2 16 17
M  V30 17 1 17 18
M  V30 18 2 18 19
M  V30 19 1 19 20
M  V30 20 2 20 21
M  V30 21 1 21 22
M  V30 22 2 22 23
M  V30 23 1 23 24
M  V30 24 2 24 25
M  V30 25 1 25 26
M  V30 26 1 26 27
M  V30 27 1 27 28
M  V30 28 1 28 29
M  V30 29 1 29 30
M  V30 30 1 30 31
M  V30 31 1 26 32
M  V30 32 2 32 33
M  V30 33 1 14 34
M  V30 34 2 34 35
M  V30 35 1 10 36
M  V30 36 1 36 37
M  V30 37 1 37 7
M  V30 38 1 35 11
M  V30 39 1 33 16
M  V30 40 1 32 19
M  V30 41 1 25 20
M  V30 42 1 31 27
M  V30 43 1 1 38
M  V30 44 1 2 39
M  V30 45 1 2 40
M  V30 46 1 3 41 CFG=3
M  V30 47 1 4 42
M  V30 48 1 5 43
M  V30 49 1 5 44
M  V30 50 1 6 45
M  V30 51 1 7 46
M  V30 52 1 8 47
M  V30 53 1 8 48
M  V30 54 1 9 49
M  V30 55 1 9 50
M  V30 56 1 12 51
M  V30 57 1 13 52
M  V30 58 1 15 53
M  V30 59 1 18 54
M  V30 60 1 21 55
M  V30 61 1 22 56
M  V30 62 1 24 57
M  V30 63 1 27 58
M  V30 64 1 28 59
M  V30 65 1 28 60
M  V30 66 1 29 61
M  V30 67 1 29 62
M  V30 68 1 30 63
M  V30 69 1 30 64
M  V30 70 1 31 65
M  V30 71 1 31 66
M  V30 72 1 36 67
M  V30 73 1 36 68
M  V30 74 1 37 69
M  V30 75 1 37 70
M  V30 END BOND
M  V30 END CTAB
M  END
>  <Dataset>  (661) 
ChEMBL_Kinases

>  <Ligand_Instance>  (661) 
nan

>  <PDB_ID>  (661) 
nan

>  <Standardized_SMILES>  (661) 
OC[C@@H](O)CNC1CCN(c2ccc(Nc3ncc4c5ccncc5n(C5CCCC5)c4n3)nn2)CC1

>  <Name>  (661) 
nan

>  <Pocket>  (661) 
nan

>  <ATP_Site>  (661) 
nan

>  <Peripheral>  (661) 
nan

>  <Num_H_Atoms_ProtBoundConf>  (661) 
nan

>  <Num_Resolved_Atoms>  (661) 
nan

>  <Num_Not_Resolved_Atoms>  (661) 
nan

$$$$
CHEMBL3642037
     RDKit          3D

  0  0  0  0  0  0  0  0  0  0999 V3000
M  V30 BEGIN CTAB
M  V30 COUNTS 66 71 0 0 0
M  V30 BEGIN ATOM
M  V30 1 C 3.231526 2.304166 6.224199 0
M  V30 2 N 4.135426 1.781784 5.243788 0
M  V30 3 C 3.839148 0.455181 4.799424 0
M  V30 4 C 4.424080 2.696809 4.171390 0 CFG=2
M  V30 5 C 3.171697 3.058110 3.448331 0
M  V30 6 N 3.155037 2.618525 2.049505 0
M  V30 7 C 2.091145 1.833267 1.513548 0
M  V30 8 C 2.012134 1.374863 0.214490 0
M  V30 9 C 0.912546 0.625288 -0.145740 0
M  V30 10 C -0.123607 0.294943 0.698093 0
M  V30 11 N -1.265511 -0.471795 0.366142 0
M  V30 12 C -1.585541 -1.057825 -0.881121 0
M  V30 13 N -0.848139 -0.990519 -1.995980 0
M  V30 14 C -1.157754 -1.549159 -3.173515 0
M  V30 15 C -2.331529 -2.259692 -3.271078 0
M  V30 16 C -3.040952 -2.970230 -4.213443 0
M  V30 17 C -2.696241 -3.195163 -5.544069 0
M  V30 18 C -3.551849 -3.936904 -6.331590 0
M  V30 19 N -4.663520 -4.396485 -5.769117 0
M  V30 20 C -4.982502 -4.175892 -4.498709 0
M  V30 21 C -4.195372 -3.448092 -3.630387 0
M  V30 22 N -4.235504 -3.053930 -2.326335 0
M  V30 23 C -5.373236 -3.457856 -1.545230 0
M  V30 24 C -5.291880 -4.945666 -1.303681 0
M  V30 25 C -4.143500 -4.972507 -0.280334 0
M  V30 26 C -4.492111 -3.805154 0.643145 0
M  V30 27 C -5.341049 -2.876943 -0.163089 0
M  V30 28 C -3.112234 -2.348345 -2.144248 0
M  V30 29 N -2.723747 -1.757497 -1.008545 0
M  V30 30 N 0.030717 0.779510 1.942527 0
M  V30 31 N 1.069232 1.500609 2.324062 0
M  V30 32 C 4.286893 3.042192 1.276260 0
M  V30 33 C 5.586758 3.022636 2.063015 0
M  V30 34 C 5.424033 2.055859 3.235235 0 CFG=1
M  V30 35 O 6.652695 1.904261 3.833133 0
M  V30 36 H 2.587949 1.505012 6.681146 0
M  V30 37 H 2.604534 3.142367 5.858991 0
M  V30 38 H 3.797671 2.712589 7.111798 0
M  V30 39 H 3.098064 0.511906 3.978143 0
M  V30 40 H 4.748166 -0.115996 4.525106 0
M  V30 41 H 3.314034 -0.080729 5.635153 0
M  V30 42 H 4.898687 3.626506 4.560353 0
M  V30 43 H 2.281367 2.595967 3.922193 0
M  V30 44 H 2.975443 4.159102 3.498898 0
M  V30 45 H 2.803128 1.621158 -0.448818 0
M  V30 46 H 0.894578 0.293374 -1.157482 0
M  V30 47 H -1.956475 -0.619263 1.150289 0
M  V30 48 H -0.545452 -1.480008 -4.057866 0
M  V30 49 H -1.782455 -2.807794 -5.976123 0
M  V30 50 H -3.329532 -4.139295 -7.370154 0
M  V30 51 H -5.912029 -4.588491 -4.131103 0
M  V30 52 H -6.335135 -3.194965 -2.072398 0
M  V30 53 H -6.244731 -5.255317 -0.831318 0
M  V30 54 H -4.991896 -5.544913 -2.159231 0
M  V30 55 H -3.227936 -4.774370 -0.861944 0
M  V30 56 H -4.143759 -5.940155 0.220234 0
M  V30 57 H -5.063990 -4.186836 1.533984 0
M  V30 58 H -3.576383 -3.354138 1.073894 0
M  V30 59 H -4.970776 -1.826815 -0.148286 0
M  V30 60 H -6.376305 -2.906203 0.249557 0
M  V30 61 H 4.107972 4.114578 1.002175 0
M  V30 62 H 4.462990 2.490464 0.351235 0
M  V30 63 H 6.462504 2.757993 1.453225 0
M  V30 64 H 5.787451 4.018315 2.507172 0
M  V30 65 H 4.970225 1.136662 2.859299 0
M  V30 66 H 7.351586 1.876643 3.139042 0
M  V30 END ATOM
M  V30 BEGIN BOND
M  V30 1 1 1 2
M  V30 2 1 2 3
M  V30 3 1 2 4
M  V30 4 1 4 5
M  V30 5 1 5 6
M  V30 6 1 6 7
M  V30 7 2 7 8
M  V30 8 1 8 9
M  V30 9 2 9 10
M  V30 10 1 10 11
M  V30 11 1 11 12
M  V30 12 2 12 13
M  V30 13 1 13 14
M  V30 14 2 14 15
M  V30 15 1 15 16
M  V30 16 2 16 17
M  V30 17 1 17 18
M  V30 18 2 18 19
M  V30 19 1 19 20
M  V30 20 2 20 21
M  V30 21 1 21 22
M  V30 22 1 22 23
M  V30 23 1 23 24
M  V30 24 1 24 25
M  V30 25 1 25 26
M  V30 26 1 26 27
M  V30 27 1 22 28
M  V30 28 2 28 29
M  V30 29 1 10 30
M  V30 30 2 30 31
M  V30 31 1 6 32
M  V30 32 1 32 33
M  V30 33 1 33 34
M  V30 34 1 34 35
M  V30 35 1 34 4
M  V30 36 1 31 7
M  V30 37 1 29 12
M  V30 38 1 28 15
M  V30 39 1 21 16
M  V30 40 1 27 23
M  V30 41 1 1 36
M  V30 42 1 1 37
M  V30 43 1 1 38
M  V30 44 1 3 39
M  V30 45 1 3 40
M  V30 46 1 3 41
M  V30 47 1 4 42 CFG=1
M  V30 48 1 5 43
M  V30 49 1 5 44
M  V30 50 1 8 45
M  V30 51 1 9 46
M  V30 52 1 11 47
M  V30 53 1 14 48
M  V30 54 1 17 49
M  V30 55 1 18 50
M  V30 56 1 20 51
M  V30 57 1 23 52
M  V30 58 1 24 53
M  V30 59 1 24 54
M  V30 60 1 25 55
M  V30 61 1 25 56
M  V30 62 1 26 57
M  V30 63 1 26 58
M  V30 64 1 27 59
M  V30 65 1 27 60
M  V30 66 1 32 61
M  V30 67 1 32 62
M  V30 68 1 33 63
M  V30 69 1 33 64
M  V30 70 1 34 65 CFG=3
M  V30 71 1 35 66
M  V30 END BOND
M  V30 END CTAB
M  END
>  <Dataset>  (662) 
ChEMBL_Kinases

>  <Ligand_Instance>  (662) 
nan

>  <PDB_ID>  (662) 
nan

>  <Standardized_SMILES>  (662) 
CN(C)[C@@H]1CN(c2ccc(Nc3ncc4c5ccncc5n(C5CCCC5)c4n3)nn2)CC[C@H]1O

>  <Name>  (662) 
nan

>  <Pocket>  (662) 
nan

>  <ATP_Site>  (662) 
nan

>  <Peripheral>  (662) 
nan

>  <Num_H_Atoms_ProtBoundConf>  (662) 
nan

>  <Num_Resolved_Atoms>  (662) 
nan

>  <Num_Not_Resolved_Atoms>  (662) 
nan

$$$$
CHEMBL3642038
     RDKit          3D

  0  0  0  0  0  0  0  0  0  0999 V3000
M  V30 BEGIN CTAB
M  V30 COUNTS 66 71 0 0 0
M  V30 BEGIN ATOM
M  V30 1 C 4.192278 1.847489 3.818477 0
M  V30 2 N 5.254786 2.606324 3.261043 0
M  V30 3 C 6.349905 1.847346 2.718222 0
M  V30 4 C 4.872597 3.728400 2.442775 0
M  V30 5 C 4.049937 3.372914 1.238979 0
M  V30 6 N 2.642928 3.468739 1.424178 0
M  V30 7 C 1.650354 2.525673 1.036356 0
M  V30 8 C 1.908013 1.343385 0.388842 0
M  V30 9 C 0.884454 0.487448 0.051061 0
M  V30 10 C -0.438988 0.743905 0.328730 0
M  V30 11 N -1.553390 -0.074866 0.020833 0
M  V30 12 C -1.526583 -1.330642 -0.639121 0
M  V30 13 N -0.442406 -1.970110 -1.093301 0
M  V30 14 C -0.504363 -3.159090 -1.707828 0
M  V30 15 C -1.751140 -3.729074 -1.867839 0
M  V30 16 C -2.036996 -4.928869 -2.469598 0
M  V30 17 C -1.271217 -5.909169 -3.075428 0
M  V30 18 C -1.863216 -7.033740 -3.610940 0
M  V30 19 N -3.211883 -7.125172 -3.513425 0
M  V30 20 C -3.950372 -6.173901 -2.925939 0
M  V30 21 C -3.427123 -5.022168 -2.368353 0
M  V30 22 N -3.935298 -3.944362 -1.744165 0
M  V30 23 C -5.269245 -3.634359 -1.442245 0
M  V30 24 C -6.344841 -4.605105 -1.384151 0
M  V30 25 C -6.004124 -5.543860 -0.301692 0
M  V30 26 C -5.166563 -4.659245 0.635372 0
M  V30 27 C -5.311357 -3.251971 0.034900 0
M  V30 28 C -2.887307 -3.131795 -1.429729 0
M  V30 29 N -2.680919 -1.954580 -0.837393 0
M  V30 30 N -0.604964 1.917629 0.961800 0
M  V30 31 N 0.354847 2.747896 1.293028 0
M  V30 32 C 2.202669 4.681598 2.083664 0
M  V30 33 C 3.323335 5.586575 2.464920 0
M  V30 34 C 4.275504 4.780552 3.323599 0
M  V30 35 O 3.566592 4.282076 4.408607 0
M  V30 36 H 4.184183 2.051182 4.927473 0
M  V30 37 H 4.326082 0.749782 3.744027 0
M  V30 38 H 3.232885 2.195031 3.427881 0
M  V30 39 H 6.261556 0.805579 3.089363 0
M  V30 40 H 6.441235 1.900276 1.620958 0
M  V30 41 H 7.284912 2.233695 3.215358 0
M  V30 42 H 5.840220 4.140244 2.035384 0
M  V30 43 H 4.303832 2.387867 0.817804 0
M  V30 44 H 4.304016 4.099534 0.409049 0
M  V30 45 H 2.925266 1.079747 0.140321 0
M  V30 46 H 1.147014 -0.413396 -0.449622 0
M  V30 47 H -2.477722 0.307799 0.320735 0
M  V30 48 H 0.390073 -3.646035 -2.061198 0
M  V30 49 H -0.181997 -5.790881 -3.130638 0
M  V30 50 H -1.241044 -7.784002 -4.078340 0
M  V30 51 H -4.993852 -6.323180 -2.892677 0
M  V30 52 H -5.621741 -2.678428 -1.959693 0
M  V30 53 H -7.232605 -4.013314 -0.949777 0
M  V30 54 H -6.812222 -4.985368 -2.297935 0
M  V30 55 H -5.490508 -6.467370 -0.550835 0
M  V30 56 H -6.939521 -5.829030 0.274007 0
M  V30 57 H -4.115035 -4.983953 0.499097 0
M  V30 58 H -5.529111 -4.714766 1.669556 0
M  V30 59 H -4.474481 -2.685154 0.398219 0
M  V30 60 H -6.293003 -2.815388 0.306378 0
M  V30 61 H 1.512016 5.185866 1.356121 0
M  V30 62 H 1.569051 4.375486 2.935925 0
M  V30 63 H 2.889362 6.396844 3.090465 0
M  V30 64 H 3.809414 5.977628 1.565761 0
M  V30 65 H 5.078463 5.448820 3.676518 0
M  V30 66 H 4.114140 4.434712 5.243311 0
M  V30 END ATOM
M  V30 BEGIN BOND
M  V30 1 1 1 2
M  V30 2 1 2 3
M  V30 3 1 2 4
M  V30 4 1 4 5
M  V30 5 1 5 6
M  V30 6 1 6 7
M  V30 7 2 7 8
M  V30 8 1 8 9
M  V30 9 2 9 10
M  V30 10 1 10 11
M  V30 11 1 11 12
M  V30 12 2 12 13
M  V30 13 1 13 14
M  V30 14 2 14 15
M  V30 15 1 15 16
M  V30 16 2 16 17
M  V30 17 1 17 18
M  V30 18 2 18 19
M  V30 19 1 19 20
M  V30 20 2 20 21
M  V30 21 1 21 22
M  V30 22 1 22 23
M  V30 23 1 23 24
M  V30 24 1 24 25
M  V30 25 1 25 26
M  V30 26 1 26 27
M  V30 27 1 22 28
M  V30 28 2 28 29
M  V30 29 1 10 30
M  V30 30 2 30 31
M  V30 31 1 6 32
M  V30 32 1 32 33
M  V30 33 1 33 34
M  V30 34 1 34 35
M  V30 35 1 34 4
M  V30 36 1 31 7
M  V30 37 1 29 12
M  V30 38 1 28 15
M  V30 39 1 21 16
M  V30 40 1 27 23
M  V30 41 1 1 36
M  V30 42 1 1 37
M  V30 43 1 1 38
M  V30 44 1 3 39
M  V30 45 1 3 40
M  V30 46 1 3 41
M  V30 47 1 4 42
M  V30 48 1 5 43
M  V30 49 1 5 44
M  V30 50 1 8 45
M  V30 51 1 9 46
M  V30 52 1 11 47
M  V30 53 1 14 48
M  V30 54 1 17 49
M  V30 55 1 18 50
M  V30 56 1 20 51
M  V30 57 1 23 52
M  V30 58 1 24 53
M  V30 59 1 24 54
M  V30 60 1 25 55
M  V30 61 1 25 56
M  V30 62 1 26 57
M  V30 63 1 26 58
M  V30 64 1 27 59
M  V30 65 1 27 60
M  V30 66 1 32 61
M  V30 67 1 32 62
M  V30 68 1 33 63
M  V30 69 1 33 64
M  V30 70 1 34 65
M  V30 71 1 35 66
M  V30 END BOND
M  V30 END CTAB
M  END
>  <Dataset>  (663) 
ChEMBL_Kinases

>  <Ligand_Instance>  (663) 
nan

>  <PDB_ID>  (663) 
nan

>  <Standardized_SMILES>  (663) 
CN(C)C1CN(c2ccc(Nc3ncc4c5ccncc5n(C5CCCC5)c4n3)nn2)CCC1O

>  <Name>  (663) 
nan

>  <Pocket>  (663) 
nan

>  <ATP_Site>  (663) 
nan

>  <Peripheral>  (663) 
nan

>  <Num_H_Atoms_ProtBoundConf>  (663) 
nan

>  <Num_Resolved_Atoms>  (663) 
nan

>  <Num_Not_Resolved_Atoms>  (663) 
nan

$$$$
CHEMBL402399
     RDKit          3D

  0  0  0  0  0  0  0  0  0  0999 V3000
M  V30 BEGIN CTAB
M  V30 COUNTS 56 60 0 0 0
M  V30 BEGIN ATOM
M  V30 1 C 5.037854 -1.843153 0.462082 0
M  V30 2 C 5.330324 -0.377068 0.800846 0
M  V30 3 C 5.933971 -0.439555 2.197608 0
M  V30 4 S 3.877704 0.540667 0.958785 0
M  V30 5 O 3.002944 -0.188700 1.958964 0
M  V30 6 O 4.235187 1.840012 1.668264 0
M  V30 7 N 2.962147 0.928575 -0.383228 0
M  V30 8 C 3.474404 1.690807 -1.387153 0
M  V30 9 N 4.741799 2.326160 -1.629556 0
M  V30 10 N 2.537929 1.858488 -2.349719 0
M  V30 11 C 1.419155 1.213931 -1.985424 0
M  V30 12 C 0.160092 0.996844 -2.486821 0
M  V30 13 C -0.820094 0.259139 -1.857710 0
M  V30 14 C -0.492913 -0.302094 -0.620333 0
M  V30 15 C -1.567084 -1.072427 0.001271 0
M  V30 16 N -1.593375 -2.377863 0.309461 0
M  V30 17 C -2.738578 -2.763388 0.873845 0
M  V30 18 C -3.236285 -4.031515 1.370809 0
M  V30 19 C -2.567680 -5.232608 1.368655 0
M  V30 20 Cl -0.950553 -5.328841 0.718832 0
M  V30 21 C -3.058442 -6.424207 1.845734 0
M  V30 22 C -4.321573 -6.450899 2.376285 0
M  V30 23 C -5.046492 -5.285673 2.409990 0
M  V30 24 C -4.492174 -4.130324 1.914924 0
M  V30 25 Cl -5.514317 -2.696544 2.010111 0
M  V30 26 N -3.472375 -1.649840 0.925570 0
M  V30 27 C -2.803131 -0.627406 0.414316 0
M  V30 28 C -3.324577 0.724240 0.324199 0
M  V30 29 C -2.685048 1.730399 1.023790 0
M  V30 30 C -3.147955 3.020042 0.964300 0
M  V30 31 C -4.261314 3.359246 0.209389 0
M  V30 32 F -4.691677 4.631360 0.170166 0
M  V30 33 C -4.874142 2.324282 -0.476756 0
M  V30 34 C -4.434994 1.030185 -0.435899 0
M  V30 35 C 0.770609 -0.094803 -0.098303 0
M  V30 36 C 1.693283 0.641647 -0.765929 0
M  V30 37 H 4.814965 -1.989515 -0.602243 0
M  V30 38 H 4.137529 -2.138134 1.042397 0
M  V30 39 H 5.842310 -2.508379 0.813137 0
M  V30 40 H 6.138030 0.030011 0.182863 0
M  V30 41 H 5.147776 -0.385921 2.977968 0
M  V30 42 H 6.568496 -1.346968 2.308830 0
M  V30 43 H 6.546630 0.473157 2.333783 0
M  V30 44 H 4.830406 3.353854 -1.682228 0
M  V30 45 H 5.588461 1.721312 -1.754037 0
M  V30 46 H -0.077481 1.437715 -3.444839 0
M  V30 47 H -1.782315 0.148101 -2.339006 0
M  V30 48 H -0.781426 -2.988116 0.110702 0
M  V30 49 H -2.507813 -7.348843 1.829334 0
M  V30 50 H -4.762270 -7.355856 2.766902 0
M  V30 51 H -6.025191 -5.312713 2.822564 0
M  V30 52 H -1.806984 1.466619 1.620251 0
M  V30 53 H -2.611494 3.772922 1.531005 0
M  V30 54 H -5.742533 2.645724 -1.053408 0
M  V30 55 H -4.950084 0.262430 -0.989765 0
M  V30 56 H 0.973858 -0.542380 0.847268 0
M  V30 END ATOM
M  V30 BEGIN BOND
M  V30 1 1 1 2
M  V30 2 1 2 3
M  V30 3 1 2 4
M  V30 4 2 4 5
M  V30 5 2 4 6
M  V30 6 1 4 7
M  V30 7 1 7 8
M  V30 8 1 8 9
M  V30 9 2 8 10
M  V30 10 1 10 11
M  V30 11 2 11 12
M  V30 12 1 12 13
M  V30 13 2 13 14
M  V30 14 1 14 15
M  V30 15 1 15 16
M  V30 16 1 16 17
M  V30 17 1 17 18
M  V30 18 2 18 19
M  V30 19 1 19 20
M  V30 20 1 19 21
M  V30 21 2 21 22
M  V30 22 1 22 23
M  V30 23 2 23 24
M  V30 24 1 24 25
M  V30 25 2 17 26
M  V30 26 1 26 27
M  V30 27 1 27 28
M  V30 28 2 28 29
M  V30 29 1 29 30
M  V30 30 2 30 31
M  V30 31 1 31 32
M  V30 32 1 31 33
M  V30 33 2 33 34
M  V30 34 1 14 35
M  V30 35 2 35 36
M  V30 36 1 36 7
M  V30 37 1 36 11
M  V30 38 2 27 15
M  V30 39 1 34 28
M  V30 40 1 24 18
M  V30 41 1 1 37
M  V30 42 1 1 38
M  V30 43 1 1 39
M  V30 44 1 2 40
M  V30 45 1 3 41
M  V30 46 1 3 42
M  V30 47 1 3 43
M  V30 48 1 9 44
M  V30 49 1 9 45
M  V30 50 1 12 46
M  V30 51 1 13 47
M  V30 52 1 16 48
M  V30 53 1 21 49
M  V30 54 1 22 50
M  V30 55 1 23 51
M  V30 56 1 29 52
M  V30 57 1 30 53
M  V30 58 1 33 54
M  V30 59 1 34 55
M  V30 60 1 35 56
M  V30 END BOND
M  V30 END CTAB
M  END
>  <Dataset>  (664) 
ChEMBL_Kinases

>  <Ligand_Instance>  (664) 
nan

>  <PDB_ID>  (664) 
nan

>  <Standardized_SMILES>  (664) 
CC(C)S(=O)(=O)n1c(N)nc2ccc(-c3[nH]c(-c4c(Cl)cccc4Cl)nc3-c3ccc(F)cc3)cc21

>  <Name>  (664) 
nan

>  <Pocket>  (664) 
nan

>  <ATP_Site>  (664) 
nan

>  <Peripheral>  (664) 
nan

>  <Num_H_Atoms_ProtBoundConf>  (664) 
nan

>  <Num_Resolved_Atoms>  (664) 
nan

>  <Num_Not_Resolved_Atoms>  (664) 
nan

$$$$
CHEMBL402219
     RDKit          3D

  0  0  0  0  0  0  0  0  0  0999 V3000
M  V30 BEGIN CTAB
M  V30 COUNTS 59 63 0 0 0
M  V30 BEGIN ATOM
M  V30 1 C 3.511762 1.802797 3.476935 0
M  V30 2 C 3.031496 0.421662 3.091451 0
M  V30 3 C 1.523420 0.407692 3.298298 0
M  V30 4 C 3.714083 -0.583168 3.998715 0
M  V30 5 C 3.402158 0.065078 1.680480 0
M  V30 6 N 2.869205 0.939562 0.677182 0
M  V30 7 C 3.452603 2.063465 0.182517 0
M  V30 8 N 4.713538 2.625484 0.542948 0
M  V30 9 N 2.695968 2.671931 -0.758123 0
M  V30 10 C 1.563446 1.924506 -0.896183 0
M  V30 11 C 0.447544 2.054740 -1.695833 0
M  V30 12 C -0.592409 1.120607 -1.632952 0
M  V30 13 C -0.447867 0.075776 -0.742324 0
M  V30 14 C -1.487383 -0.966639 -0.595803 0
M  V30 15 N -2.556594 -0.861104 0.213983 0
M  V30 16 C -3.343875 -1.925278 0.172104 0
M  V30 17 C -4.575087 -2.276636 0.840640 0
M  V30 18 C -5.231927 -3.492921 0.622667 0
M  V30 19 F -4.651030 -4.353805 -0.266300 0
M  V30 20 C -6.404461 -3.784875 1.283652 0
M  V30 21 C -6.995906 -2.924232 2.180330 0
M  V30 22 C -6.364882 -1.738420 2.399396 0
M  V30 23 C -5.187193 -1.429190 1.744394 0
M  V30 24 F -4.662103 -0.231654 2.044384 0
M  V30 25 N -2.728952 -2.746426 -0.718617 0
M  V30 26 C -1.608367 -2.187503 -1.193124 0
M  V30 27 C -0.632892 -2.684573 -2.156082 0
M  V30 28 C 0.121823 -3.846625 -1.958081 0
M  V30 29 C 1.029278 -4.258867 -2.915139 0
M  V30 30 C 1.190063 -3.513162 -4.077925 0
M  V30 31 C 0.450077 -2.351266 -4.299344 0
M  V30 32 C -0.458482 -1.958726 -3.316691 0
M  V30 33 C 0.666789 -0.059134 0.060160 0
M  V30 34 C 1.704902 0.878101 -0.006146 0
M  V30 35 H 2.951076 2.593501 2.924503 0
M  V30 36 H 3.208164 1.934035 4.554913 0
M  V30 37 H 4.604743 1.931673 3.390460 0
M  V30 38 H 1.117911 1.183472 2.639742 0
M  V30 39 H 1.244855 0.677102 4.321444 0
M  V30 40 H 1.201676 -0.623459 3.080497 0
M  V30 41 H 3.953737 -0.166831 5.005432 0
M  V30 42 H 3.097403 -1.503817 4.097741 0
M  V30 43 H 4.684795 -0.920131 3.580088 0
M  V30 44 H 3.242064 -1.010199 1.461888 0
M  V30 45 H 4.525769 0.180174 1.634428 0
M  V30 46 H 4.605026 3.360817 1.289562 0
M  V30 47 H 5.715349 2.569056 0.330242 0
M  V30 48 H 0.363134 2.875240 -2.376776 0
M  V30 49 H -1.485820 1.187561 -2.244569 0
M  V30 50 H -2.743209 -0.026367 0.811790 0
M  V30 51 H -6.840558 -4.763092 1.043811 0
M  V30 52 H -7.908175 -3.206051 2.664065 0
M  V30 53 H -6.827959 -1.046798 3.111075 0
M  V30 54 H -0.075927 -4.361361 -1.015677 0
M  V30 55 H 1.591904 -5.159960 -2.724949 0
M  V30 56 H 1.909109 -3.859897 -4.811792 0
M  V30 57 H 0.625113 -1.820302 -5.223948 0
M  V30 58 H -1.002624 -1.043409 -3.553078 0
M  V30 59 H 0.752570 -0.873095 0.737088 0
M  V30 END ATOM
M  V30 BEGIN BOND
M  V30 1 1 1 2
M  V30 2 1 2 3
M  V30 3 1 2 4
M  V30 4 1 2 5
M  V30 5 1 5 6
M  V30 6 1 6 7
M  V30 7 1 7 8
M  V30 8 2 7 9
M  V30 9 1 9 10
M  V30 10 2 10 11
M  V30 11 1 11 12
M  V30 12 2 12 13
M  V30 13 1 13 14
M  V30 14 1 14 15
M  V30 15 1 15 16
M  V30 16 1 16 17
M  V30 17 2 17 18
M  V30 18 1 18 19
M  V30 19 1 18 20
M  V30 20 2 20 21
M  V30 21 1 21 22
M  V30 22 2 22 23
M  V30 23 1 23 24
M  V30 24 2 16 25
M  V30 25 1 25 26
M  V30 26 1 26 27
M  V30 27 2 27 28
M  V30 28 1 28 29
M  V30 29 2 29 30
M  V30 30 1 30 31
M  V30 31 2 31 32
M  V30 32 1 13 33
M  V30 33 2 33 34
M  V30 34 1 34 6
M  V30 35 1 34 10
M  V30 36 2 26 14
M  V30 37 1 32 27
M  V30 38 1 23 17
M  V30 39 1 1 35
M  V30 40 1 1 36
M  V30 41 1 1 37
M  V30 42 1 3 38
M  V30 43 1 3 39
M  V30 44 1 3 40
M  V30 45 1 4 41
M  V30 46 1 4 42
M  V30 47 1 4 43
M  V30 48 1 5 44
M  V30 49 1 5 45
M  V30 50 1 8 46
M  V30 51 1 8 47
M  V30 52 1 11 48
M  V30 53 1 12 49
M  V30 54 1 15 50
M  V30 55 1 20 51
M  V30 56 1 21 52
M  V30 57 1 22 53
M  V30 58 1 28 54
M  V30 59 1 29 55
M  V30 60 1 30 56
M  V30 61 1 31 57
M  V30 62 1 32 58
M  V30 63 1 33 59
M  V30 END BOND
M  V30 END CTAB
M  END
>  <Dataset>  (665) 
ChEMBL_Kinases

>  <Ligand_Instance>  (665) 
nan

>  <PDB_ID>  (665) 
nan

>  <Standardized_SMILES>  (665) 
CC(C)(C)Cn1c(N)nc2ccc(-c3[nH]c(-c4c(F)cccc4F)nc3-c3ccccc3)cc21

>  <Name>  (665) 
nan

>  <Pocket>  (665) 
nan

>  <ATP_Site>  (665) 
nan

>  <Peripheral>  (665) 
nan

>  <Num_H_Atoms_ProtBoundConf>  (665) 
nan

>  <Num_Resolved_Atoms>  (665) 
nan

>  <Num_Not_Resolved_Atoms>  (665) 
nan

$$$$
CHEMBL402199
     RDKit          3D

  0  0  0  0  0  0  0  0  0  0999 V3000
M  V30 BEGIN CTAB
M  V30 COUNTS 69 75 0 0 0
M  V30 BEGIN ATOM
M  V30 1 N 7.410922 0.143157 2.302960 0
M  V30 2 C 6.236937 -0.386601 2.920864 0
M  V30 3 N 6.322609 -1.168686 4.013286 0
M  V30 4 C 5.212004 -1.664749 4.590349 0
M  V30 5 N 4.001625 -1.385388 4.082870 0
M  V30 6 C 3.900856 -0.607069 2.994209 0
M  V30 7 N 2.680928 -0.335619 2.496869 0
M  V30 8 C 2.513893 0.438567 1.407458 0
M  V30 9 C 1.137609 0.654524 0.971832 0
M  V30 10 C 0.624656 0.256361 -0.252701 0
M  V30 11 C -0.699339 0.514882 -0.555179 0
M  V30 12 C -1.567992 1.170508 0.326306 0
M  V30 13 C -2.910299 1.331563 -0.247572 0
M  V30 14 N -3.703644 0.167187 -0.044564 0
M  V30 15 C -3.840326 -0.126754 1.357462 0
M  V30 16 C -4.319366 -1.557574 1.490964 0
M  V30 17 C -4.966738 -2.061176 0.237470 0
M  V30 18 N -4.046142 -2.847428 -0.554469 0
M  V30 19 C -3.589555 -2.664388 -1.785732 0
M  V30 20 O -3.877016 -1.729260 -2.545786 0
M  V30 21 N -2.745552 -3.619320 -2.171828 0
M  V30 22 C -2.644270 -4.480908 -1.126642 0
M  V30 23 C -1.887793 -5.648743 -1.017931 0
M  V30 24 C -1.967947 -6.342126 0.163256 0
M  V30 25 C -2.753065 -5.908862 1.187247 0
M  V30 26 C -3.474119 -4.748866 1.015251 0
M  V30 27 C -3.465393 -3.982066 -0.122321 0
M  V30 28 C -5.707603 -1.035305 -0.543296 0
M  V30 29 C -5.045907 0.300944 -0.588906 0
M  V30 30 C -1.036843 1.558496 1.538953 0
M  V30 31 C 0.285346 1.301770 1.844909 0
M  V30 32 C 3.573578 0.990979 0.747221 0
M  V30 33 C 3.398888 1.820587 -0.420573 0
M  V30 34 C 2.753536 3.033320 -0.550301 0
M  V30 35 C 2.707959 3.659656 -1.777701 0
M  V30 36 C 3.284089 3.131325 -2.911078 0
M  V30 37 C 3.926193 1.921593 -2.775115 0
M  V30 38 C 3.998235 1.248916 -1.549759 0
M  V30 39 C 4.851154 0.733465 1.231078 0
M  V30 40 C 5.011088 -0.060055 2.346474 0
M  V30 41 H 8.318332 -0.253257 1.918568 0
M  V30 42 H 7.677441 1.143057 2.060890 0
M  V30 43 H 5.427661 -2.284920 5.471376 0
M  V30 44 H 1.310301 -0.239182 -0.899532 0
M  V30 45 H -0.966449 0.145183 -1.553410 0
M  V30 46 H -3.476398 2.182061 0.227298 0
M  V30 47 H -2.866732 1.625635 -1.326025 0
M  V30 48 H -4.643200 0.521815 1.778286 0
M  V30 49 H -2.925511 0.050447 1.957969 0
M  V30 50 H -4.985401 -1.622986 2.375459 0
M  V30 51 H -3.380270 -2.151968 1.694904 0
M  V30 52 H -5.738178 -2.812086 0.587009 0
M  V30 53 H -2.234889 -3.726331 -3.093190 0
M  V30 54 H -1.271392 -5.969510 -1.850242 0
M  V30 55 H -1.361757 -7.254917 0.216469 0
M  V30 56 H -2.787455 -6.491786 2.110633 0
M  V30 57 H -4.086085 -4.437238 1.850070 0
M  V30 58 H -5.961491 -1.447889 -1.528631 0
M  V30 59 H -6.709206 -0.886516 -0.040769 0
M  V30 60 H -5.559684 1.068867 0.025865 0
M  V30 61 H -5.014034 0.749113 -1.620385 0
M  V30 62 H -1.751185 2.066311 2.168859 0
M  V30 63 H 0.584118 1.657286 2.832210 0
M  V30 64 H 2.324998 3.390311 0.374129 0
M  V30 65 H 2.186246 4.614485 -1.824635 0
M  V30 66 H 3.235035 3.642640 -3.865250 0
M  V30 67 H 4.395744 1.474979 -3.662761 0
M  V30 68 H 4.539302 0.290771 -1.573092 0
M  V30 69 H 5.745777 1.132990 0.766417 0
M  V30 END ATOM
M  V30 BEGIN BOND
M  V30 1 1 1 2
M  V30 2 2 2 3
M  V30 3 1 3 4
M  V30 4 2 4 5
M  V30 5 1 5 6
M  V30 6 2 6 7
M  V30 7 1 7 8
M  V30 8 1 8 9
M  V30 9 2 9 10
M  V30 10 1 10 11
M  V30 11 2 11 12
M  V30 12 1 12 13
M  V30 13 1 13 14
M  V30 14 1 14 15
M  V30 15 1 15 16
M  V30 16 1 16 17
M  V30 17 1 17 18
M  V30 18 1 18 19
M  V30 19 2 19 20
M  V30 20 1 19 21
M  V30 21 1 21 22
M  V30 22 2 22 23
M  V30 23 1 23 24
M  V30 24 2 24 25
M  V30 25 1 25 26
M  V30 26 2 26 27
M  V30 27 1 17 28
M  V30 28 1 28 29
M  V30 29 1 12 30
M  V30 30 2 30 31
M  V30 31 2 8 32
M  V30 32 1 32 33
M  V30 33 2 33 34
M  V30 34 1 34 35
M  V30 35 2 35 36
M  V30 36 1 36 37
M  V30 37 2 37 38
M  V30 38 1 32 39
M  V30 39 2 39 40
M  V30 40 1 40 2
M  V30 41 1 40 6
M  V30 42 1 31 9
M  V30 43 1 38 33
M  V30 44 1 29 14
M  V30 45 1 27 18
M  V30 46 1 27 22
M  V30 47 1 1 41
M  V30 48 1 1 42
M  V30 49 1 4 43
M  V30 50 1 10 44
M  V30 51 1 11 45
M  V30 52 1 13 46
M  V30 53 1 13 47
M  V30 54 1 15 48
M  V30 55 1 15 49
M  V30 56 1 16 50
M  V30 57 1 16 51
M  V30 58 1 17 52
M  V30 59 1 21 53
M  V30 60 1 23 54
M  V30 61 1 24 55
M  V30 62 1 25 56
M  V30 63 1 26 57
M  V30 64 1 28 58
M  V30 65 1 28 59
M  V30 66 1 29 60
M  V30 67 1 29 61
M  V30 68 1 30 62
M  V30 69 1 31 63
M  V30 70 1 34 64
M  V30 71 1 35 65
M  V30 72 1 36 66
M  V30 73 1 37 67
M  V30 74 1 38 68
M  V30 75 1 39 69
M  V30 END BOND
M  V30 END CTAB
M  END
>  <Dataset>  (666) 
ChEMBL_Kinases

>  <Ligand_Instance>  (666) 
nan

>  <PDB_ID>  (666) 
nan

>  <Standardized_SMILES>  (666) 
Nc1ncnc2nc(-c3ccc(CN4CCC(n5c(=O)[nH]c6ccccc65)CC4)cc3)c(-c3ccccc3)cc12

>  <Name>  (666) 
nan

>  <Pocket>  (666) 
nan

>  <ATP_Site>  (666) 
nan

>  <Peripheral>  (666) 
nan

>  <Num_H_Atoms_ProtBoundConf>  (666) 
nan

>  <Num_Resolved_Atoms>  (666) 
nan

>  <Num_Not_Resolved_Atoms>  (666) 
nan

$$$$
CHEMBL402188
     RDKit          3D

  0  0  0  0  0  0  0  0  0  0999 V3000
M  V30 BEGIN CTAB
M  V30 COUNTS 55 58 0 0 0
M  V30 BEGIN ATOM
M  V30 1 C 2.076634 -0.995725 4.038998 0
M  V30 2 C 2.657344 -2.369208 4.143134 0
M  V30 3 C 4.123421 -2.261163 4.468459 0
M  V30 4 C 2.388322 -3.219978 2.935269 0
M  V30 5 N 2.905582 -2.713295 1.705277 0
M  V30 6 C 4.145273 -3.023325 1.281434 0
M  V30 7 N 4.420768 -2.425201 0.083841 0
M  V30 8 C 3.315785 -1.711215 -0.262248 0
M  V30 9 C 2.976549 -0.910440 -1.331788 0
M  V30 10 C 1.717273 -0.349108 -1.309914 0
M  V30 11 C 0.780547 -0.522924 -0.315155 0
M  V30 12 C -0.544620 0.086166 -0.333687 0
M  V30 13 N -1.025001 1.061865 0.458052 0
M  V30 14 C -2.288642 1.286110 0.055104 0
M  V30 15 C -3.175762 2.314843 0.694348 0
M  V30 16 C -3.018373 3.652909 -0.011166 0
M  V30 17 C -4.613950 1.899920 0.632091 0
M  V30 18 C -2.797435 2.461639 2.150124 0
M  V30 19 N -2.596806 0.467567 -0.969390 0
M  V30 20 C -1.516075 -0.295937 -1.231025 0
M  V30 21 C -1.589717 -1.275642 -2.304256 0
M  V30 22 C -2.530911 -2.287200 -2.062363 0
M  V30 23 C -2.774062 -3.322426 -2.939181 0
M  V30 24 C -2.081385 -3.400275 -4.116815 0
M  V30 25 C -1.158611 -2.409177 -4.355893 0
M  V30 26 C -0.900453 -1.368329 -3.494413 0
M  V30 27 N 1.174020 -1.321756 0.710943 0
M  V30 28 C 2.403850 -1.907770 0.752033 0
M  V30 29 H 2.527529 -0.365498 4.862637 0
M  V30 30 H 0.975727 -0.980865 4.286983 0
M  V30 31 H 2.302831 -0.448260 3.115879 0
M  V30 32 H 2.170007 -2.866442 5.008853 0
M  V30 33 H 4.699134 -1.713429 3.704474 0
M  V30 34 H 4.195160 -1.669725 5.410279 0
M  V30 35 H 4.551713 -3.259433 4.723234 0
M  V30 36 H 2.716618 -4.268056 3.068400 0
M  V30 37 H 1.265752 -3.290943 2.861044 0
M  V30 38 H 4.943411 -3.645074 1.706939 0
M  V30 39 H 3.680667 -0.744779 -2.136909 0
M  V30 40 H 1.481384 0.275993 -2.158617 0
M  V30 41 H -0.463578 1.506469 1.214788 0
M  V30 42 H -3.980773 3.960083 -0.493259 0
M  V30 43 H -2.691813 4.402088 0.712573 0
M  V30 44 H -2.280886 3.583315 -0.838758 0
M  V30 45 H -4.662969 0.798445 0.743687 0
M  V30 46 H -5.145991 2.425097 1.475533 0
M  V30 47 H -5.105686 2.265886 -0.299168 0
M  V30 48 H -2.412172 1.498896 2.586268 0
M  V30 49 H -2.002727 3.224104 2.303767 0
M  V30 50 H -3.654479 2.779613 2.775112 0
M  V30 51 H -3.145766 -2.326899 -1.150317 0
M  V30 52 H -3.504766 -4.093981 -2.735691 0
M  V30 53 H -2.242718 -4.189394 -4.823599 0
M  V30 54 H -0.549900 -2.372546 -5.261518 0
M  V30 55 H -0.194190 -0.566525 -3.627176 0
M  V30 END ATOM
M  V30 BEGIN BOND
M  V30 1 1 1 2
M  V30 2 1 2 3
M  V30 3 1 2 4
M  V30 4 1 4 5
M  V30 5 1 5 6
M  V30 6 2 6 7
M  V30 7 1 7 8
M  V30 8 2 8 9
M  V30 9 1 9 10
M  V30 10 2 10 11
M  V30 11 1 11 12
M  V30 12 1 12 13
M  V30 13 1 13 14
M  V30 14 1 14 15
M  V30 15 1 15 16
M  V30 16 1 15 17
M  V30 17 1 15 18
M  V30 18 2 14 19
M  V30 19 1 19 20
M  V30 20 1 20 21
M  V30 21 2 21 22
M  V30 22 1 22 23
M  V30 23 2 23 24
M  V30 24 1 24 25
M  V30 25 2 25 26
M  V30 26 1 11 27
M  V30 27 2 27 28
M  V30 28 1 28 5
M  V30 29 1 28 8
M  V30 30 2 20 12
M  V30 31 1 26 21
M  V30 32 1 1 29
M  V30 33 1 1 30
M  V30 34 1 1 31
M  V30 35 1 2 32
M  V30 36 1 3 33
M  V30 37 1 3 34
M  V30 38 1 3 35
M  V30 39 1 4 36
M  V30 40 1 4 37
M  V30 41 1 6 38
M  V30 42 1 9 39
M  V30 43 1 10 40
M  V30 44 1 13 41
M  V30 45 1 16 42
M  V30 46 1 16 43
M  V30 47 1 16 44
M  V30 48 1 17 45
M  V30 49 1 17 46
M  V30 50 1 17 47
M  V30 51 1 18 48
M  V30 52 1 18 49
M  V30 53 1 18 50
M  V30 54 1 22 51
M  V30 55 1 23 52
M  V30 56 1 24 53
M  V30 57 1 25 54
M  V30 58 1 26 55
M  V30 END BOND
M  V30 END CTAB
M  END
>  <Dataset>  (667) 
ChEMBL_Kinases

>  <Ligand_Instance>  (667) 
nan

>  <PDB_ID>  (667) 
nan

>  <Standardized_SMILES>  (667) 
CC(C)Cn1cnc2ccc(-c3[nH]c(C(C)(C)C)nc3-c3ccccc3)nc21

>  <Name>  (667) 
nan

>  <Pocket>  (667) 
nan

>  <ATP_Site>  (667) 
nan

>  <Peripheral>  (667) 
nan

>  <Num_H_Atoms_ProtBoundConf>  (667) 
nan

>  <Num_Resolved_Atoms>  (667) 
nan

>  <Num_Not_Resolved_Atoms>  (667) 
nan

$$$$
CHEMBL3937423
     RDKit          3D

  0  0  0  0  0  0  0  0  0  0999 V3000
M  V30 BEGIN CTAB
M  V30 COUNTS 51 55 0 0 0
M  V30 BEGIN ATOM
M  V30 1 N 0.913691 -2.726362 3.933108 0
M  V30 2 C 2.173909 -2.201302 3.397078 0 CFG=1
M  V30 3 C 2.586743 -3.177167 2.316296 0
M  V30 4 C 3.999823 -2.782921 1.918459 0
M  V30 5 C 4.108498 -1.292773 2.036062 0
M  V30 6 N 2.830806 -0.676327 1.643073 0
M  V30 7 C 2.748293 -0.041908 0.377302 0
M  V30 8 C 3.698848 -0.361066 -0.568859 0
M  V30 9 C 3.674209 0.168439 -1.836151 0
M  V30 10 N 2.690773 1.034012 -2.185380 0
M  V30 11 C 1.728894 1.395604 -1.322161 0
M  V30 12 C 1.792325 0.842553 -0.063865 0
M  V30 13 N 0.804843 1.258285 0.868260 0
M  V30 14 C -0.252202 2.122492 0.466246 0
M  V30 15 N -0.251966 3.471396 0.377171 0
M  V30 16 C -1.443295 3.936951 -0.043371 0
M  V30 17 C -2.273911 2.854031 -0.243225 0
M  V30 18 C -3.566261 2.592708 -0.644112 0
M  V30 19 C -4.060657 1.307413 -0.716104 0
M  V30 20 C -3.245390 0.248614 -0.379248 0
M  V30 21 C -3.623601 -1.157035 -0.396923 0
M  V30 22 C -4.902393 -1.583414 -0.767086 0
M  V30 23 C -5.315808 -2.877480 -0.800459 0
M  V30 24 C -4.437154 -3.879877 -0.449407 0
M  V30 25 C -3.173072 -3.444589 -0.084840 0
M  V30 26 N -2.803455 -2.156034 -0.064856 0
M  V30 27 N -1.982320 0.515718 0.011400 0
M  V30 28 N -1.511988 1.770745 0.077726 0
M  V30 29 C 1.836284 -0.879056 2.678112 0
M  V30 30 H 0.951454 -2.792352 4.967442 0
M  V30 31 H 0.101666 -2.188871 3.557710 0
M  V30 32 H 2.914078 -2.075317 4.185183 0
M  V30 33 H 2.542402 -4.227787 2.618380 0
M  V30 34 H 1.873953 -3.018246 1.467478 0
M  V30 35 H 4.168942 -3.164112 0.900131 0
M  V30 36 H 4.685213 -3.321539 2.601967 0
M  V30 37 H 4.287205 -1.050393 3.121631 0
M  V30 38 H 4.969520 -0.855118 1.487489 0
M  V30 39 H 4.539068 -1.031546 -0.455467 0
M  V30 40 H 4.378723 -0.032895 -2.623645 0
M  V30 41 H 0.948991 2.074760 -1.581567 0
M  V30 42 H 0.529690 1.163425 1.865180 0
M  V30 43 H -1.765051 4.955453 -0.215885 0
M  V30 44 H -4.178830 3.445565 -0.900847 0
M  V30 45 H -5.069556 1.086917 -1.027589 0
M  V30 46 H -5.661002 -0.853264 -1.059262 0
M  V30 47 H -6.310949 -3.176423 -1.090822 0
M  V30 48 H -4.630804 -4.937921 -0.431041 0
M  V30 49 H -2.431704 -4.203782 0.204916 0
M  V30 50 H 0.874663 -1.112951 2.171996 0
M  V30 51 H 1.785569 -0.091964 3.427037 0
M  V30 END ATOM
M  V30 BEGIN BOND
M  V30 1 1 1 2
M  V30 2 1 2 3
M  V30 3 1 3 4
M  V30 4 1 4 5
M  V30 5 1 5 6
M  V30 6 1 6 7
M  V30 7 2 7 8
M  V30 8 1 8 9
M  V30 9 2 9 10
M  V30 10 1 10 11
M  V30 11 2 11 12
M  V30 12 1 12 13
M  V30 13 1 13 14
M  V30 14 2 14 15
M  V30 15 1 15 16
M  V30 16 2 16 17
M  V30 17 1 17 18
M  V30 18 2 18 19
M  V30 19 1 19 20
M  V30 20 1 20 21
M  V30 21 2 21 22
M  V30 22 1 22 23
M  V30 23 2 23 24
M  V30 24 1 24 25
M  V30 25 2 25 26
M  V30 26 2 20 27
M  V30 27 1 27 28
M  V30 28 1 6 29
M  V30 29 1 29 2
M  V30 30 1 12 7
M  V30 31 1 28 14
M  V30 32 1 28 17
M  V30 33 1 26 21
M  V30 34 1 1 30
M  V30 35 1 1 31
M  V30 36 1 2 32 CFG=1
M  V30 37 1 3 33
M  V30 38 1 3 34
M  V30 39 1 4 35
M  V30 40 1 4 36
M  V30 41 1 5 37
M  V30 42 1 5 38
M  V30 43 1 8 39
M  V30 44 1 9 40
M  V30 45 1 11 41
M  V30 46 1 13 42
M  V30 47 1 16 43
M  V30 48 1 18 44
M  V30 49 1 19 45
M  V30 50 1 22 46
M  V30 51 1 23 47
M  V30 52 1 24 48
M  V30 53 1 25 49
M  V30 54 1 29 50
M  V30 55 1 29 51
M  V30 END BOND
M  V30 END CTAB
M  END
>  <Dataset>  (668) 
ChEMBL_Kinases

>  <Ligand_Instance>  (668) 
nan

>  <PDB_ID>  (668) 
nan

>  <Standardized_SMILES>  (668) 
N[C@H]1CCCN(c2ccncc2Nc2ncc3ccc(-c4ccccn4)nn23)C1

>  <Name>  (668) 
nan

>  <Pocket>  (668) 
nan

>  <ATP_Site>  (668) 
nan

>  <Peripheral>  (668) 
nan

>  <Num_H_Atoms_ProtBoundConf>  (668) 
nan

>  <Num_Resolved_Atoms>  (668) 
nan

>  <Num_Not_Resolved_Atoms>  (668) 
nan

$$$$
CHEMBL401999
     RDKit          3D

  0  0  0  0  0  0  0  0  0  0999 V3000
M  V30 BEGIN CTAB
M  V30 COUNTS 71 77 0 0 0
M  V30 BEGIN ATOM
M  V30 1 N 4.130481 -1.972816 7.362401 0
M  V30 2 C 4.101494 -0.904029 6.428154 0
M  V30 3 N 4.672944 0.293580 6.610176 0
M  V30 4 C 4.566528 1.232138 5.624969 0
M  V30 5 N 5.155408 2.517894 5.770392 0
M  V30 6 C 3.871653 0.905391 4.478543 0
M  V30 7 C 3.767329 1.857493 3.486420 0
M  V30 8 C 3.086816 1.585086 2.324826 0
M  V30 9 C 2.881429 2.469510 1.176984 0
M  V30 10 C 4.111326 2.827714 0.621775 0
M  V30 11 C 4.166671 3.666780 -0.485729 0
M  V30 12 C 3.006505 4.147201 -1.038297 0
M  V30 13 C 1.802270 3.782440 -0.476126 0
M  V30 14 C 1.734012 2.953810 0.618482 0
M  V30 15 C 2.511646 0.324854 2.186902 0
M  V30 16 C 1.752768 -0.108719 1.005920 0
M  V30 17 C 2.165471 -0.238520 -0.298033 0
M  V30 18 C 1.264320 -0.669098 -1.247485 0
M  V30 19 C -0.048703 -0.981468 -0.955763 0
M  V30 20 C -0.872714 -1.416514 -2.087843 0
M  V30 21 N -0.838711 -2.810146 -2.377651 0
M  V30 22 C -1.264570 -3.696040 -1.346437 0
M  V30 23 C -2.423155 -4.573251 -1.787762 0
M  V30 24 C -3.546729 -3.811883 -2.429220 0
M  V30 25 N -4.430380 -3.157824 -1.524943 0
M  V30 26 C -4.571089 -3.190417 -0.189609 0
M  V30 27 O -3.881929 -3.874302 0.608823 0
M  V30 28 N -5.554415 -2.399647 0.274742 0
M  V30 29 C -6.072530 -1.828735 -0.827122 0
M  V30 30 C -7.127423 -0.919922 -0.874605 0
M  V30 31 C -7.512124 -0.450432 -2.111846 0
M  V30 32 C -6.872384 -0.870673 -3.240609 0
M  V30 33 C -5.842334 -1.767289 -3.112192 0
M  V30 34 C -5.380952 -2.296490 -1.924772 0
M  V30 35 C -2.975715 -2.928118 -3.513194 0
M  V30 36 C -1.456776 -3.122779 -3.650652 0
M  V30 37 C -0.436934 -0.842678 0.358362 0
M  V30 38 C 0.431889 -0.412725 1.353431 0
M  V30 39 N 2.611270 -0.612970 3.157562 0
M  V30 40 C 3.283644 -0.333108 4.296377 0
M  V30 41 N 3.420511 -1.231263 5.310457 0
M  V30 42 H 4.470067 -2.952523 7.226638 0
M  V30 43 H 3.776591 -1.812562 8.330468 0
M  V30 44 H 5.940612 2.531045 5.061155 0
M  V30 45 H 5.947687 2.644993 5.115210 0
M  V30 46 H 4.189851 2.856274 3.528206 0
M  V30 47 H 5.096326 2.522686 0.955716 0
M  V30 48 H 5.106578 3.974379 -0.954285 0
M  V30 49 H 3.014319 4.803005 -1.901341 0
M  V30 50 H 0.861183 4.133558 -0.873610 0
M  V30 51 H 0.850776 2.607315 1.134513 0
M  V30 52 H 3.191626 0.021879 -0.439293 0
M  V30 53 H 1.716548 -0.730101 -2.244940 0
M  V30 54 H -1.917353 -1.036003 -1.899977 0
M  V30 55 H -0.587079 -0.893069 -3.043564 0
M  V30 56 H -0.410781 -4.429560 -1.203310 0
M  V30 57 H -1.420409 -3.253743 -0.367515 0
M  V30 58 H -2.741688 -5.165223 -0.911472 0
M  V30 59 H -2.021942 -5.349623 -2.503138 0
M  V30 60 H -4.170169 -4.599456 -2.954584 0
M  V30 61 H -5.854582 -2.255162 1.262761 0
M  V30 62 H -7.634831 -0.586623 0.019974 0
M  V30 63 H -8.331263 0.252236 -2.120723 0
M  V30 64 H -7.205191 -0.480372 -4.171325 0
M  V30 65 H -5.379403 -2.062201 -4.043214 0
M  V30 66 H -3.106968 -1.852872 -3.341373 0
M  V30 67 H -3.360582 -3.223513 -4.519262 0
M  V30 68 H -1.191912 -4.137517 -3.980038 0
M  V30 69 H -1.112023 -2.369559 -4.382065 0
M  V30 70 H -1.462210 -1.081492 0.587776 0
M  V30 71 H -0.003324 -0.347660 2.346405 0
M  V30 END ATOM
M  V30 BEGIN BOND
M  V30 1 1 1 2
M  V30 2 2 2 3
M  V30 3 1 3 4
M  V30 4 1 4 5
M  V30 5 2 4 6
M  V30 6 1 6 7
M  V30 7 2 7 8
M  V30 8 1 8 9
M  V30 9 2 9 10
M  V30 10 1 10 11
M  V30 11 2 11 12
M  V30 12 1 12 13
M  V30 13 2 13 14
M  V30 14 1 8 15
M  V30 15 1 15 16
M  V30 16 2 16 17
M  V30 17 1 17 18
M  V30 18 2 18 19
M  V30 19 1 19 20
M  V30 20 1 20 21
M  V30 21 1 21 22
M  V30 22 1 22 23
M  V30 23 1 23 24
M  V30 24 1 24 25
M  V30 25 1 25 26
M  V30 26 2 26 27
M  V30 27 1 26 28
M  V30 28 1 28 29
M  V30 29 2 29 30
M  V30 30 1 30 31
M  V30 31 2 31 32
M  V30 32 1 32 33
M  V30 33 2 33 34
M  V30 34 1 24 35
M  V30 35 1 35 36
M  V30 36 1 19 37
M  V30 37 2 37 38
M  V30 38 2 15 39
M  V30 39 1 39 40
M  V30 40 2 40 41
M  V30 41 1 41 2
M  V30 42 1 40 6
M  V30 43 1 14 9
M  V30 44 1 38 16
M  V30 45 1 36 21
M  V30 46 1 34 25
M  V30 47 1 34 29
M  V30 48 1 1 42
M  V30 49 1 1 43
M  V30 50 1 5 44
M  V30 51 1 5 45
M  V30 52 1 7 46
M  V30 53 1 10 47
M  V30 54 1 11 48
M  V30 55 1 12 49
M  V30 56 1 13 50
M  V30 57 1 14 51
M  V30 58 1 17 52
M  V30 59 1 18 53
M  V30 60 1 20 54
M  V30 61 1 20 55
M  V30 62 1 22 56
M  V30 63 1 22 57
M  V30 64 1 23 58
M  V30 65 1 23 59
M  V30 66 1 24 60
M  V30 67 1 28 61
M  V30 68 1 30 62
M  V30 69 1 31 63
M  V30 70 1 32 64
M  V30 71 1 33 65
M  V30 72 1 35 66
M  V30 73 1 35 67
M  V30 74 1 36 68
M  V30 75 1 36 69
M  V30 76 1 37 70
M  V30 77 1 38 71
M  V30 END BOND
M  V30 END CTAB
M  END
>  <Dataset>  (669) 
ChEMBL_Kinases

>  <Ligand_Instance>  (669) 
nan

>  <PDB_ID>  (669) 
nan

>  <Standardized_SMILES>  (669) 
Nc1nc(N)c2cc(-c3ccccc3)c(-c3ccc(CN4CCC(n5c(=O)[nH]c6ccccc65)CC4)cc3)nc2n1

>  <Name>  (669) 
nan

>  <Pocket>  (669) 
nan

>  <ATP_Site>  (669) 
nan

>  <Peripheral>  (669) 
nan

>  <Num_H_Atoms_ProtBoundConf>  (669) 
nan

>  <Num_Resolved_Atoms>  (669) 
nan

>  <Num_Not_Resolved_Atoms>  (669) 
nan

$$$$
CHEMBL3642035
     RDKit          3D

  0  0  0  0  0  0  0  0  0  0999 V3000
M  V30 BEGIN CTAB
M  V30 COUNTS 73 78 0 0 0
M  V30 BEGIN ATOM
M  V30 1 C 4.381729 -4.341829 3.862636 0
M  V30 2 N 5.604945 -3.841928 3.219110 0
M  V30 3 C 6.318484 -2.968869 4.098663 0
M  V30 4 C 5.131356 -3.182265 2.000113 0
M  V30 5 C 6.247004 -2.605795 1.206946 0
M  V30 6 N 5.918131 -1.912361 0.019745 0
M  V30 7 C 5.401809 -2.633612 -1.078606 0
M  V30 8 C 4.029857 -3.183824 -0.975600 0
M  V30 9 C 3.273742 -2.816599 -2.264455 0
M  V30 10 N 3.195781 -1.370307 -2.264883 0
M  V30 11 C 2.080918 -0.534675 -1.976466 0
M  V30 12 C 2.088389 0.845642 -2.010705 0
M  V30 13 C 0.913108 1.501738 -1.698597 0
M  V30 14 C -0.240158 0.784346 -1.360578 0
M  V30 15 N -1.437836 1.484369 -1.041056 0
M  V30 16 C -2.583515 0.712327 -0.703203 0
M  V30 17 N -2.481500 -0.616586 -0.709281 0
M  V30 18 C -3.511970 -1.449960 -0.401644 0
M  V30 19 C -4.682784 -0.794242 -0.079727 0
M  V30 20 C -5.907375 -1.353898 0.278850 0
M  V30 21 C -6.360276 -2.627289 0.429949 0
M  V30 22 C -7.647259 -2.934137 0.801795 0
M  V30 23 N -8.475009 -1.873228 1.019143 0
M  V30 24 C -8.044882 -0.593110 0.874396 0
M  V30 25 C -6.755733 -0.276106 0.501701 0
M  V30 26 N -6.094736 0.897433 0.293082 0
M  V30 27 C -6.674053 2.218432 0.434997 0
M  V30 28 C -6.330059 2.794509 1.788404 0
M  V30 29 C -5.068411 3.613951 1.593553 0
M  V30 30 C -5.098929 4.058808 0.142996 0
M  V30 31 C -6.134771 3.216519 -0.522504 0
M  V30 32 C -4.857071 0.578964 -0.053876 0
M  V30 33 N -3.767273 1.257676 -0.375774 0
M  V30 34 N -0.169915 -0.560193 -1.349008 0
M  V30 35 N 0.945110 -1.216803 -1.644314 0
M  V30 36 C 4.496466 -0.842352 -2.620468 0
M  V30 37 C 5.585655 -1.814934 -2.341673 0
M  V30 38 H 4.535803 -4.602140 4.914438 0
M  V30 39 H 3.940371 -5.161445 3.262611 0
M  V30 40 H 3.643447 -3.514583 3.826330 0
M  V30 41 H 6.313699 -1.894945 3.766952 0
M  V30 42 H 7.344809 -3.336098 4.330215 0
M  V30 43 H 5.794992 -2.948519 5.079571 0
M  V30 44 H 4.535185 -3.940346 1.440981 0
M  V30 45 H 4.430290 -2.388529 2.313067 0
M  V30 46 H 6.900752 -3.486188 0.897302 0
M  V30 47 H 6.951999 -2.000538 1.829963 0
M  V30 48 H 6.707372 -1.307758 -0.294537 0
M  V30 49 H 6.091014 -3.536886 -1.203009 0
M  V30 50 H 3.422224 -2.679907 -0.171455 0
M  V30 51 H 3.950820 -4.274355 -0.803915 0
M  V30 52 H 3.809201 -3.244557 -3.109628 0
M  V30 53 H 2.256311 -3.268286 -2.123824 0
M  V30 54 H 3.001237 1.332245 -2.276475 0
M  V30 55 H 0.933605 2.584119 -1.729311 0
M  V30 56 H -1.451317 2.510008 -1.060320 0
M  V30 57 H -3.405558 -2.506218 -0.413812 0
M  V30 58 H -5.695930 -3.477045 0.255688 0
M  V30 59 H -8.052875 -3.921463 0.934643 0
M  V30 60 H -8.739066 0.238601 1.057072 0
M  V30 61 H -7.780441 2.131497 0.311497 0
M  V30 62 H -6.216529 2.013638 2.569037 0
M  V30 63 H -7.139215 3.527596 2.041384 0
M  V30 64 H -5.040049 4.493705 2.287497 0
M  V30 65 H -4.184382 2.982522 1.804999 0
M  V30 66 H -5.379511 5.152892 0.157561 0
M  V30 67 H -4.096598 4.037603 -0.332600 0
M  V30 68 H -5.800807 2.784456 -1.487688 0
M  V30 69 H -6.979892 3.905872 -0.819182 0
M  V30 70 H 4.658510 0.153104 -2.151292 0
M  V30 71 H 4.452613 -0.697263 -3.735971 0
M  V30 72 H 6.560468 -1.268956 -2.310677 0
M  V30 73 H 5.679210 -2.517269 -3.187646 0
M  V30 END ATOM
M  V30 BEGIN BOND
M  V30 1 1 1 2
M  V30 2 1 2 3
M  V30 3 1 2 4
M  V30 4 1 4 5
M  V30 5 1 5 6
M  V30 6 1 6 7
M  V30 7 1 7 8
M  V30 8 1 8 9
M  V30 9 1 9 10
M  V30 10 1 10 11
M  V30 11 2 11 12
M  V30 12 1 12 13
M  V30 13 2 13 14
M  V30 14 1 14 15
M  V30 15 1 15 16
M  V30 16 2 16 17
M  V30 17 1 17 18
M  V30 18 2 18 19
M  V30 19 1 19 20
M  V30 20 2 20 21
M  V30 21 1 21 22
M  V30 22 2 22 23
M  V30 23 1 23 24
M  V30 24 2 24 25
M  V30 25 1 25 26
M  V30 26 1 26 27
M  V30 27 1 27 28
M  V30 28 1 28 29
M  V30 29 1 29 30
M  V30 30 1 30 31
M  V30 31 1 26 32
M  V30 32 2 32 33
M  V30 33 1 14 34
M  V30 34 2 34 35
M  V30 35 1 10 36
M  V30 36 1 36 37
M  V30 37 1 37 7
M  V30 38 1 35 11
M  V30 39 1 33 16
M  V30 40 1 32 19
M  V30 41 1 25 20
M  V30 42 1 31 27
M  V30 43 1 1 38
M  V30 44 1 1 39
M  V30 45 1 1 40
M  V30 46 1 3 41
M  V30 47 1 3 42
M  V30 48 1 3 43
M  V30 49 1 4 44
M  V30 50 1 4 45
M  V30 51 1 5 46
M  V30 52 1 5 47
M  V30 53 1 6 48
M  V30 54 1 7 49
M  V30 55 1 8 50
M  V30 56 1 8 51
M  V30 57 1 9 52
M  V30 58 1 9 53
M  V30 59 1 12 54
M  V30 60 1 13 55
M  V30 61 1 15 56
M  V30 62 1 18 57
M  V30 63 1 21 58
M  V30 64 1 22 59
M  V30 65 1 24 60
M  V30 66 1 27 61
M  V30 67 1 28 62
M  V30 68 1 28 63
M  V30 69 1 29 64
M  V30 70 1 29 65
M  V30 71 1 30 66
M  V30 72 1 30 67
M  V30 73 1 31 68
M  V30 74 1 31 69
M  V30 75 1 36 70
M  V30 76 1 36 71
M  V30 77 1 37 72
M  V30 78 1 37 73
M  V30 END BOND
M  V30 END CTAB
M  END
>  <Dataset>  (670) 
ChEMBL_Kinases

>  <Ligand_Instance>  (670) 
nan

>  <PDB_ID>  (670) 
nan

>  <Standardized_SMILES>  (670) 
CN(C)CCNC1CCN(c2ccc(Nc3ncc4c5ccncc5n(C5CCCC5)c4n3)nn2)CC1

>  <Name>  (670) 
nan

>  <Pocket>  (670) 
nan

>  <ATP_Site>  (670) 
nan

>  <Peripheral>  (670) 
nan

>  <Num_H_Atoms_ProtBoundConf>  (670) 
nan

>  <Num_Resolved_Atoms>  (670) 
nan

>  <Num_Not_Resolved_Atoms>  (670) 
nan

$$$$
CHEMBL3642009
     RDKit          3D

  0  0  0  0  0  0  0  0  0  0999 V3000
M  V30 BEGIN CTAB
M  V30 COUNTS 69 74 0 0 0
M  V30 BEGIN ATOM
M  V30 1 O 4.666365 -3.766674 3.075358 0
M  V30 2 C 3.663732 -2.809452 2.965849 0
M  V30 3 C 4.252516 -1.409730 2.874955 0
M  V30 4 C 5.161273 -1.304153 1.642615 0
M  V30 5 N 4.373095 -1.577037 0.465878 0
M  V30 6 C 5.082364 -1.520162 -0.769934 0
M  V30 7 C 4.140783 -1.824075 -1.913974 0
M  V30 8 C 3.700663 -0.534496 -2.610738 0
M  V30 9 N 3.640094 0.574221 -1.664743 0
M  V30 10 C 2.448968 1.177074 -1.169748 0
M  V30 11 C 2.351238 2.240283 -0.293777 0
M  V30 12 C 1.096951 2.700594 0.089229 0
M  V30 13 C -0.056250 2.088879 -0.410976 0
M  V30 14 N -1.355148 2.538620 -0.034111 0
M  V30 15 C -2.476462 1.861723 -0.583874 0
M  V30 16 N -3.169572 2.131974 -1.728836 0
M  V30 17 C -4.221798 1.360684 -2.087630 0
M  V30 18 C -4.633770 0.271455 -1.309072 0
M  V30 19 C -5.643858 -0.661034 -1.429561 0
M  V30 20 C -6.611795 -0.835171 -2.384466 0
M  V30 21 C -7.483658 -1.892789 -2.193551 0
M  V30 22 N -7.353152 -2.683590 -1.114667 0
M  V30 23 C -6.386213 -2.493989 -0.179052 0
M  V30 24 C -5.479637 -1.461740 -0.298831 0
M  V30 25 N -4.454229 -1.052908 0.451092 0
M  V30 26 C -3.946632 -1.575533 1.666094 0
M  V30 27 C -4.810722 -2.350605 2.551025 0
M  V30 28 C -4.123333 -2.186391 3.921232 0
M  V30 29 C -3.862071 -0.704597 3.943758 0
M  V30 30 C -3.537276 -0.371880 2.528988 0
M  V30 31 C -3.907546 0.037655 -0.167130 0
M  V30 32 N -2.852804 0.831705 0.168215 0
M  V30 33 N 0.125822 1.059595 -1.259457 0
M  V30 34 N 1.313486 0.607413 -1.635611 0
M  V30 35 C 4.974029 0.937451 -1.329864 0
M  V30 36 C 5.856491 -0.260242 -1.016650 0
M  V30 37 H 4.357886 -4.584260 2.593566 0
M  V30 38 H 3.135347 -2.988222 1.996239 0
M  V30 39 H 2.909500 -2.855536 3.756589 0
M  V30 40 H 3.419769 -0.707305 2.792077 0
M  V30 41 H 4.802097 -1.229482 3.803915 0
M  V30 42 H 5.617689 -0.301767 1.644208 0
M  V30 43 H 5.958542 -2.081605 1.787071 0
M  V30 44 H 3.564125 -0.952219 0.440706 0
M  V30 45 H 5.843583 -2.343904 -0.733679 0
M  V30 46 H 4.654920 -2.479269 -2.640566 0
M  V30 47 H 3.282608 -2.389401 -1.497337 0
M  V30 48 H 2.683334 -0.745303 -2.998758 0
M  V30 49 H 4.342038 -0.290709 -3.479569 0
M  V30 50 H 3.273099 2.644899 0.036697 0
M  V30 51 H 1.031423 3.531805 0.773941 0
M  V30 52 H -1.417890 3.339452 0.624167 0
M  V30 53 H -4.732388 1.607216 -2.986410 0
M  V30 54 H -6.686968 -0.180786 -3.238020 0
M  V30 55 H -8.272096 -2.107377 -2.886386 0
M  V30 56 H -6.318029 -3.154026 0.672464 0
M  V30 57 H -3.001098 -2.133605 1.507881 0
M  V30 58 H -4.714594 -3.468867 2.405857 0
M  V30 59 H -5.826530 -2.004412 2.716869 0
M  V30 60 H -4.797379 -2.531581 4.718242 0
M  V30 61 H -3.161186 -2.742512 3.865139 0
M  V30 62 H -2.995502 -0.524340 4.641108 0
M  V30 63 H -4.777167 -0.210810 4.341001 0
M  V30 64 H -4.160225 0.500482 2.243267 0
M  V30 65 H -2.486283 -0.094285 2.341647 0
M  V30 66 H 5.468816 1.482659 -2.173161 0
M  V30 67 H 5.072296 1.613013 -0.464387 0
M  V30 68 H 6.532665 -0.077232 -0.157550 0
M  V30 69 H 6.524487 -0.489565 -1.900541 0
M  V30 END ATOM
M  V30 BEGIN BOND
M  V30 1 1 1 2
M  V30 2 1 2 3
M  V30 3 1 3 4
M  V30 4 1 4 5
M  V30 5 1 5 6
M  V30 6 1 6 7
M  V30 7 1 7 8
M  V30 8 1 8 9
M  V30 9 1 9 10
M  V30 10 2 10 11
M  V30 11 1 11 12
M  V30 12 2 12 13
M  V30 13 1 13 14
M  V30 14 1 14 15
M  V30 15 2 15 16
M  V30 16 1 16 17
M  V30 17 2 17 18
M  V30 18 1 18 19
M  V30 19 2 19 20
M  V30 20 1 20 21
M  V30 21 2 21 22
M  V30 22 1 22 23
M  V30 23 2 23 24
M  V30 24 1 24 25
M  V30 25 1 25 26
M  V30 26 1 26 27
M  V30 27 1 27 28
M  V30 28 1 28 29
M  V30 29 1 29 30
M  V30 30 1 25 31
M  V30 31 2 31 32
M  V30 32 1 13 33
M  V30 33 2 33 34
M  V30 34 1 9 35
M  V30 35 1 35 36
M  V30 36 1 36 6
M  V30 37 1 34 10
M  V30 38 1 32 15
M  V30 39 1 31 18
M  V30 40 1 24 19
M  V30 41 1 30 26
M  V30 42 1 1 37
M  V30 43 1 2 38
M  V30 44 1 2 39
M  V30 45 1 3 40
M  V30 46 1 3 41
M  V30 47 1 4 42
M  V30 48 1 4 43
M  V30 49 1 5 44
M  V30 50 1 6 45
M  V30 51 1 7 46
M  V30 52 1 7 47
M  V30 53 1 8 48
M  V30 54 1 8 49
M  V30 55 1 11 50
M  V30 56 1 12 51
M  V30 57 1 14 52
M  V30 58 1 17 53
M  V30 59 1 20 54
M  V30 60 1 21 55
M  V30 61 1 23 56
M  V30 62 1 26 57
M  V30 63 1 27 58
M  V30 64 1 27 59
M  V30 65 1 28 60
M  V30 66 1 28 61
M  V30 67 1 29 62
M  V30 68 1 29 63
M  V30 69 1 30 64
M  V30 70 1 30 65
M  V30 71 1 35 66
M  V30 72 1 35 67
M  V30 73 1 36 68
M  V30 74 1 36 69
M  V30 END BOND
M  V30 END CTAB
M  END
>  <Dataset>  (671) 
ChEMBL_Kinases

>  <Ligand_Instance>  (671) 
nan

>  <PDB_ID>  (671) 
nan

>  <Standardized_SMILES>  (671) 
OCCCNC1CCN(c2ccc(Nc3ncc4c5ccncc5n(C5CCCC5)c4n3)nn2)CC1

>  <Name>  (671) 
nan

>  <Pocket>  (671) 
nan

>  <ATP_Site>  (671) 
nan

>  <Peripheral>  (671) 
nan

>  <Num_H_Atoms_ProtBoundConf>  (671) 
nan

>  <Num_Resolved_Atoms>  (671) 
nan

>  <Num_Not_Resolved_Atoms>  (671) 
nan

$$$$
CHEMBL3642010
     RDKit          3D

  0  0  0  0  0  0  0  0  0  0999 V3000
M  V30 BEGIN CTAB
M  V30 COUNTS 72 77 0 0 0
M  V30 BEGIN ATOM
M  V30 1 C 4.183814 0.927815 3.643579 0
M  V30 2 C 4.830284 -0.160642 2.875677 0
M  V30 3 N 4.214242 -0.534573 1.682382 0
M  V30 4 C 3.086752 -1.282322 1.523622 0
M  V30 5 C 1.800659 -0.721677 2.042459 0
M  V30 6 O 1.863834 -0.553545 3.410620 0
M  V30 7 C 5.164923 -0.414542 0.597828 0
M  V30 8 C 5.404014 1.054885 0.352942 0
M  V30 9 C 4.140032 1.675674 -0.166944 0
M  V30 10 N 3.453938 0.718545 -0.999399 0
M  V30 11 C 2.044918 0.930378 -1.143385 0
M  V30 12 C 1.146747 -0.039186 -1.580779 0
M  V30 13 C -0.185845 0.296739 -1.685490 0
M  V30 14 C -0.727708 1.530710 -1.391382 0
M  V30 15 N -2.119330 1.804778 -1.516489 0
M  V30 16 C -2.875934 0.675278 -1.940453 0
M  V30 17 N -3.125700 0.232967 -3.209289 0
M  V30 18 C -3.876150 -0.882557 -3.401821 0
M  V30 19 C -4.384499 -1.567088 -2.343420 0
M  V30 20 C -5.155283 -2.699362 -2.228700 0
M  V30 21 C -5.696043 -3.555994 -3.162423 0
M  V30 22 C -6.439842 -4.630841 -2.721079 0
M  V30 23 N -6.622654 -4.821324 -1.380734 0
M  V30 24 C -6.085534 -3.971634 -0.477753 0
M  V30 25 C -5.329253 -2.875758 -0.873308 0
M  V30 26 N -4.715606 -1.924617 -0.125717 0
M  V30 27 C -4.731244 -1.851705 1.316836 0
M  V30 28 C -5.060531 -0.523524 1.876359 0
M  V30 29 C -3.813716 0.163451 2.319027 0
M  V30 30 C -2.726806 -0.872526 2.163198 0
M  V30 31 C -3.356231 -2.173587 1.829112 0
M  V30 32 C -4.127422 -1.111199 -1.045496 0
M  V30 33 N -3.392016 -0.021973 -0.912528 0
M  V30 34 N 0.206495 2.402039 -0.978358 0
M  V30 35 N 1.491524 2.125148 -0.863017 0
M  V30 36 C 4.132484 -0.384324 -1.673383 0
M  V30 37 C 4.919819 -1.172002 -0.645841 0
M  V30 38 H 4.975712 1.739253 3.900822 0
M  V30 39 H 3.800209 0.642395 4.634763 0
M  V30 40 H 3.417111 1.485538 3.092348 0
M  V30 41 H 4.911106 -1.099585 3.531867 0
M  V30 42 H 5.916475 0.127498 2.732033 0
M  V30 43 H 3.233783 -2.277900 2.091104 0
M  V30 44 H 2.919074 -1.673896 0.462924 0
M  V30 45 H 0.924824 -1.354374 1.761668 0
M  V30 46 H 1.658761 0.321438 1.614671 0
M  V30 47 H 1.088136 -0.988394 3.879627 0
M  V30 48 H 6.151017 -0.782232 1.063966 0
M  V30 49 H 6.181349 1.144929 -0.442490 0
M  V30 50 H 5.722013 1.555716 1.292848 0
M  V30 51 H 4.322545 2.638080 -0.693311 0
M  V30 52 H 3.467229 1.866636 0.718577 0
M  V30 53 H 1.494980 -1.028872 -1.828593 0
M  V30 54 H -0.833575 -0.519499 -2.035958 0
M  V30 55 H -2.371290 2.780649 -1.280737 0
M  V30 56 H -4.040830 -1.185761 -4.425854 0
M  V30 57 H -5.556493 -3.410998 -4.207427 0
M  V30 58 H -6.885105 -5.330891 -3.413247 0
M  V30 59 H -6.268863 -4.179376 0.576060 0
M  V30 60 H -5.476799 -2.612161 1.686653 0
M  V30 61 H -5.731082 0.092867 1.243424 0
M  V30 62 H -5.672841 -0.688295 2.814042 0
M  V30 63 H -3.573303 1.030992 1.665206 0
M  V30 64 H -3.872093 0.534235 3.386480 0
M  V30 65 H -2.141797 -0.994967 3.105703 0
M  V30 66 H -1.966945 -0.571180 1.408163 0
M  V30 67 H -2.742918 -2.641977 0.998944 0
M  V30 68 H -3.382248 -2.886769 2.686781 0
M  V30 69 H 4.825165 0.093882 -2.425627 0
M  V30 70 H 3.443524 -1.045005 -2.190729 0
M  V30 71 H 4.461087 -2.167755 -0.553407 0
M  V30 72 H 5.947218 -1.324261 -1.147110 0
M  V30 END ATOM
M  V30 BEGIN BOND
M  V30 1 1 1 2
M  V30 2 1 2 3
M  V30 3 1 3 4
M  V30 4 1 4 5
M  V30 5 1 5 6
M  V30 6 1 3 7
M  V30 7 1 7 8
M  V30 8 1 8 9
M  V30 9 1 9 10
M  V30 10 1 10 11
M  V30 11 2 11 12
M  V30 12 1 12 13
M  V30 13 2 13 14
M  V30 14 1 14 15
M  V30 15 1 15 16
M  V30 16 2 16 17
M  V30 17 1 17 18
M  V30 18 2 18 19
M  V30 19 1 19 20
M  V30 20 2 20 21
M  V30 21 1 21 22
M  V30 22 2 22 23
M  V30 23 1 23 24
M  V30 24 2 24 25
M  V30 25 1 25 26
M  V30 26 1 26 27
M  V30 27 1 27 28
M  V30 28 1 28 29
M  V30 29 1 29 30
M  V30 30 1 30 31
M  V30 31 1 26 32
M  V30 32 2 32 33
M  V30 33 1 14 34
M  V30 34 2 34 35
M  V30 35 1 10 36
M  V30 36 1 36 37
M  V30 37 1 37 7
M  V30 38 1 35 11
M  V30 39 1 33 16
M  V30 40 1 32 19
M  V30 41 1 25 20
M  V30 42 1 31 27
M  V30 43 1 1 38
M  V30 44 1 1 39
M  V30 45 1 1 40
M  V30 46 1 2 41
M  V30 47 1 2 42
M  V30 48 1 4 43
M  V30 49 1 4 44
M  V30 50 1 5 45
M  V30 51 1 5 46
M  V30 52 1 6 47
M  V30 53 1 7 48
M  V30 54 1 8 49
M  V30 55 1 8 50
M  V30 56 1 9 51
M  V30 57 1 9 52
M  V30 58 1 12 53
M  V30 59 1 13 54
M  V30 60 1 15 55
M  V30 61 1 18 56
M  V30 62 1 21 57
M  V30 63 1 22 58
M  V30 64 1 24 59
M  V30 65 1 27 60
M  V30 66 1 28 61
M  V30 67 1 28 62
M  V30 68 1 29 63
M  V30 69 1 29 64
M  V30 70 1 30 65
M  V30 71 1 30 66
M  V30 72 1 31 67
M  V30 73 1 31 68
M  V30 74 1 36 69
M  V30 75 1 36 70
M  V30 76 1 37 71
M  V30 77 1 37 72
M  V30 END BOND
M  V30 END CTAB
M  END
>  <Dataset>  (672) 
ChEMBL_Kinases

>  <Ligand_Instance>  (672) 
nan

>  <PDB_ID>  (672) 
nan

>  <Standardized_SMILES>  (672) 
CCN(CCO)C1CCN(c2ccc(Nc3ncc4c5ccncc5n(C5CCCC5)c4n3)nn2)CC1

>  <Name>  (672) 
nan

>  <Pocket>  (672) 
nan

>  <ATP_Site>  (672) 
nan

>  <Peripheral>  (672) 
nan

>  <Num_H_Atoms_ProtBoundConf>  (672) 
nan

>  <Num_Resolved_Atoms>  (672) 
nan

>  <Num_Not_Resolved_Atoms>  (672) 
nan

$$$$
CHEMBL3935442
     RDKit          3D

  0  0  0  0  0  0  0  0  0  0999 V3000
M  V30 BEGIN CTAB
M  V30 COUNTS 30 32 0 0 0
M  V30 BEGIN ATOM
M  V30 1 N -1.812516 -1.787162 4.411606 0
M  V30 2 C -0.613241 -2.553077 4.384903 0
M  V30 3 O -0.348355 -3.366095 5.321048 0
M  V30 4 C 0.296503 -2.380212 3.261626 0
M  V30 5 C 0.009290 -1.483777 2.224727 0
M  V30 6 C 0.931786 -1.387307 1.201020 0
M  V30 7 C 0.640086 -0.445125 0.101484 0
M  V30 8 C -0.468805 0.371205 -0.032095 0
M  V30 9 N -0.374048 1.086494 -1.169345 0
M  V30 10 C -1.229848 1.996586 -1.682244 0
M  V30 11 C -0.882006 2.587556 -2.879715 0
M  V30 12 C 0.298978 2.267539 -3.541300 0
M  V30 13 C 1.148602 1.319649 -2.967189 0
M  V30 14 C 0.781621 0.737673 -1.764572 0
M  V30 15 N 1.387718 -0.185105 -0.994226 0
M  V30 16 C 2.111017 -2.100231 1.116016 0
M  V30 17 C 2.399116 -2.995198 2.149924 0
M  V30 18 C 1.476719 -3.089950 3.171019 0
M  V30 19 O 1.735439 -3.981566 4.228124 0
M  V30 20 H -1.836174 -0.888557 4.966091 0
M  V30 21 H -2.675578 -2.084188 3.898974 0
M  V30 22 H -0.896536 -0.901613 2.239472 0
M  V30 23 H -1.276508 0.401629 0.696099 0
M  V30 24 H -2.146544 2.274800 -1.212349 0
M  V30 25 H -1.540216 3.335683 -3.344644 0
M  V30 26 H 0.618681 2.699437 -4.479095 0
M  V30 27 H 2.096109 0.994657 -3.398138 0
M  V30 28 H 2.788049 -1.974058 0.283668 0
M  V30 29 H 3.304264 -3.586595 2.149323 0
M  V30 30 H 1.279271 -4.900234 4.242693 0
M  V30 END ATOM
M  V30 BEGIN BOND
M  V30 1 1 1 2
M  V30 2 2 2 3
M  V30 3 1 2 4
M  V30 4 2 4 5
M  V30 5 1 5 6
M  V30 6 1 6 7
M  V30 7 2 7 8
M  V30 8 1 8 9
M  V30 9 1 9 10
M  V30 10 2 10 11
M  V30 11 1 11 12
M  V30 12 2 12 13
M  V30 13 1 13 14
M  V30 14 2 14 15
M  V30 15 2 6 16
M  V30 16 1 16 17
M  V30 17 2 17 18
M  V30 18 1 18 19
M  V30 19 1 18 4
M  V30 20 1 15 7
M  V30 21 1 14 9
M  V30 22 1 1 20
M  V30 23 1 1 21
M  V30 24 1 5 22
M  V30 25 1 8 23
M  V30 26 1 10 24
M  V30 27 1 11 25
M  V30 28 1 12 26
M  V30 29 1 13 27
M  V30 30 1 16 28
M  V30 31 1 17 29
M  V30 32 1 19 30
M  V30 END BOND
M  V30 END CTAB
M  END
>  <Dataset>  (673) 
ChEMBL_Kinases

>  <Ligand_Instance>  (673) 
nan

>  <PDB_ID>  (673) 
nan

>  <Standardized_SMILES>  (673) 
NC(=O)c1cc(-c2cn3ccccc3n2)ccc1O

>  <Name>  (673) 
nan

>  <Pocket>  (673) 
nan

>  <ATP_Site>  (673) 
nan

>  <Peripheral>  (673) 
nan

>  <Num_H_Atoms_ProtBoundConf>  (673) 
nan

>  <Num_Resolved_Atoms>  (673) 
nan

>  <Num_Not_Resolved_Atoms>  (673) 
nan

$$$$
CHEMBL3642011
     RDKit          3D

  0  0  0  0  0  0  0  0  0  0999 V3000
M  V30 BEGIN CTAB
M  V30 COUNTS 73 79 0 0 0
M  V30 BEGIN ATOM
M  V30 1 O 4.298016 -3.893200 4.349604 0
M  V30 2 C 5.257517 -3.851547 3.359037 0
M  V30 3 C 4.850510 -4.573187 2.112020 0
M  V30 4 C 3.989456 -3.793463 1.171475 0
M  V30 5 N 4.554026 -2.481165 0.969351 0
M  V30 6 C 3.818642 -1.668012 0.026000 0
M  V30 7 C 3.747981 -2.289229 -1.327686 0
M  V30 8 C 2.959313 -1.419782 -2.289162 0
M  V30 9 N 3.003904 -0.035218 -1.786275 0
M  V30 10 C 1.886280 0.839681 -1.706820 0
M  V30 11 C 1.889599 2.164937 -1.324607 0
M  V30 12 C 0.716391 2.892850 -1.273352 0
M  V30 13 C -0.473218 2.239844 -1.622129 0
M  V30 14 N -1.724726 2.951421 -1.571961 0
M  V30 15 C -2.906256 2.237394 -1.925697 0
M  V30 16 N -3.575142 2.168539 -3.118500 0
M  V30 17 C -4.697494 1.391133 -3.198131 0
M  V30 18 C -5.168899 0.679742 -2.114466 0
M  V30 19 C -6.238153 -0.146882 -1.943595 0
M  V30 20 C -7.231932 -0.563117 -2.803857 0
M  V30 21 C -8.193458 -1.424109 -2.310482 0
M  V30 22 N -8.148369 -1.830794 -1.040126 0
M  V30 23 C -7.176730 -1.433501 -0.170496 0
M  V30 24 C -6.199459 -0.577539 -0.616734 0
M  V30 25 N -5.118735 -0.000894 -0.039497 0
M  V30 26 C -4.719278 -0.193159 1.333657 0
M  V30 27 C -3.559868 -1.191991 1.428852 0
M  V30 28 C -3.150225 -1.026549 2.874880 0
M  V30 29 C -3.497049 0.387189 3.249186 0
M  V30 30 C -4.145354 1.001939 2.001868 0
M  V30 31 C -4.448891 0.788665 -0.931700 0
M  V30 32 N -3.366455 1.546475 -0.877202 0
M  V30 33 N -0.425364 0.947043 -1.989041 0
M  V30 34 N 0.699908 0.245539 -2.039256 0
M  V30 35 C 4.354764 0.296466 -1.368062 0
M  V30 36 C 4.428419 -0.286436 0.054444 0
M  V30 37 C 4.474087 -1.822520 2.283067 0
M  V30 38 C 5.626161 -2.408381 3.100680 0
M  V30 39 H 4.392434 -3.075390 4.901085 0
M  V30 40 H 6.165522 -4.347610 3.759675 0
M  V30 41 H 4.226464 -5.457317 2.437485 0
M  V30 42 H 5.700786 -5.029389 1.551448 0
M  V30 43 H 2.918534 -3.742955 1.476257 0
M  V30 44 H 4.020769 -4.361340 0.202884 0
M  V30 45 H 2.764052 -1.641311 0.432208 0
M  V30 46 H 4.745028 -2.547987 -1.738799 0
M  V30 47 H 3.192762 -3.243896 -1.246476 0
M  V30 48 H 1.913105 -1.751226 -2.288869 0
M  V30 49 H 3.351877 -1.487776 -3.311897 0
M  V30 50 H 2.858523 2.567945 -1.077723 0
M  V30 51 H 0.736672 3.914977 -0.975745 0
M  V30 52 H -1.709877 3.948884 -1.281122 0
M  V30 53 H -5.168634 1.388490 -4.170191 0
M  V30 54 H -7.286399 -0.247508 -3.828186 0
M  V30 55 H -9.012486 -1.813321 -2.887275 0
M  V30 56 H -7.106818 -1.741173 0.865834 0
M  V30 57 H -5.570875 -0.546268 1.924337 0
M  V30 58 H -2.784322 -0.814657 0.721019 0
M  V30 59 H -3.881067 -2.210065 1.173626 0
M  V30 60 H -3.733320 -1.742437 3.497330 0
M  V30 61 H -2.063491 -1.242774 3.014531 0
M  V30 62 H -2.548895 0.915154 3.510996 0
M  V30 63 H -4.140007 0.418254 4.127324 0
M  V30 64 H -3.334190 1.519475 1.489912 0
M  V30 65 H -4.919109 1.756931 2.291582 0
M  V30 66 H 5.121435 -0.168338 -1.977949 0
M  V30 67 H 4.538446 1.385623 -1.351107 0
M  V30 68 H 3.772945 0.351469 0.721107 0
M  V30 69 H 5.437890 -0.231898 0.458826 0
M  V30 70 H 4.530921 -0.737702 2.233235 0
M  V30 71 H 3.539378 -2.182331 2.790801 0
M  V30 72 H 6.545833 -2.281731 2.514391 0
M  V30 73 H 5.636929 -1.894608 4.077291 0
M  V30 END ATOM
M  V30 BEGIN BOND
M  V30 1 1 1 2
M  V30 2 1 2 3
M  V30 3 1 3 4
M  V30 4 1 4 5
M  V30 5 1 5 6
M  V30 6 1 6 7
M  V30 7 1 7 8
M  V30 8 1 8 9
M  V30 9 1 9 10
M  V30 10 2 10 11
M  V30 11 1 11 12
M  V30 12 2 12 13
M  V30 13 1 13 14
M  V30 14 1 14 15
M  V30 15 2 15 16
M  V30 16 1 16 17
M  V30 17 2 17 18
M  V30 18 1 18 19
M  V30 19 2 19 20
M  V30 20 1 20 21
M  V30 21 2 21 22
M  V30 22 1 22 23
M  V30 23 2 23 24
M  V30 24 1 24 25
M  V30 25 1 25 26
M  V30 26 1 26 27
M  V30 27 1 27 28
M  V30 28 1 28 29
M  V30 29 1 29 30
M  V30 30 1 25 31
M  V30 31 2 31 32
M  V30 32 1 13 33
M  V30 33 2 33 34
M  V30 34 1 9 35
M  V30 35 1 35 36
M  V30 36 1 5 37
M  V30 37 1 37 38
M  V30 38 1 38 2
M  V30 39 1 36 6
M  V30 40 1 34 10
M  V30 41 1 32 15
M  V30 42 1 31 18
M  V30 43 1 24 19
M  V30 44 1 30 26
M  V30 45 1 1 39
M  V30 46 1 2 40
M  V30 47 1 3 41
M  V30 48 1 3 42
M  V30 49 1 4 43
M  V30 50 1 4 44
M  V30 51 1 6 45
M  V30 52 1 7 46
M  V30 53 1 7 47
M  V30 54 1 8 48
M  V30 55 1 8 49
M  V30 56 1 11 50
M  V30 57 1 12 51
M  V30 58 1 14 52
M  V30 59 1 17 53
M  V30 60 1 20 54
M  V30 61 1 21 55
M  V30 62 1 23 56
M  V30 63 1 26 57
M  V30 64 1 27 58
M  V30 65 1 27 59
M  V30 66 1 28 60
M  V30 67 1 28 61
M  V30 68 1 29 62
M  V30 69 1 29 63
M  V30 70 1 30 64
M  V30 71 1 30 65
M  V30 72 1 35 66
M  V30 73 1 35 67
M  V30 74 1 36 68
M  V30 75 1 36 69
M  V30 76 1 37 70
M  V30 77 1 37 71
M  V30 78 1 38 72
M  V30 79 1 38 73
M  V30 END BOND
M  V30 END CTAB
M  END
>  <Dataset>  (674) 
ChEMBL_Kinases

>  <Ligand_Instance>  (674) 
nan

>  <PDB_ID>  (674) 
nan

>  <Standardized_SMILES>  (674) 
OC1CCN(C2CCN(c3ccc(Nc4ncc5c6ccncc6n(C6CCCC6)c5n4)nn3)CC2)CC1

>  <Name>  (674) 
nan

>  <Pocket>  (674) 
nan

>  <ATP_Site>  (674) 
nan

>  <Peripheral>  (674) 
nan

>  <Num_H_Atoms_ProtBoundConf>  (674) 
nan

>  <Num_Resolved_Atoms>  (674) 
nan

>  <Num_Not_Resolved_Atoms>  (674) 
nan

$$$$
CHEMBL3642012
     RDKit          3D

  0  0  0  0  0  0  0  0  0  0999 V3000
M  V30 BEGIN CTAB
M  V30 COUNTS 65 70 0 0 0
M  V30 BEGIN ATOM
M  V30 1 F 6.786294 -2.473199 4.154015 0
M  V30 2 C 6.807932 -1.421222 3.208227 0
M  V30 3 F 6.024539 -1.735388 2.139401 0
M  V30 4 F 8.133116 -1.449290 2.740869 0
M  V30 5 C 6.500654 -0.124548 3.889561 0
M  V30 6 N 6.462490 1.056289 3.177799 0
M  V30 7 C 5.512968 1.477197 2.271951 0
M  V30 8 C 5.201974 0.717201 1.034479 0
M  V30 9 C 4.528334 1.777522 0.116962 0
M  V30 10 N 3.192796 1.936500 0.722175 0
M  V30 11 C 1.997804 1.594919 -0.014427 0
M  V30 12 C 0.707094 1.547253 0.473937 0
M  V30 13 C -0.338247 1.209517 -0.385816 0
M  V30 14 C -0.112944 0.921071 -1.718736 0
M  V30 15 N -1.216620 0.581407 -2.557715 0
M  V30 16 C -2.493705 0.536996 -1.936295 0
M  V30 17 N -3.335986 1.543375 -1.633210 0
M  V30 18 C -4.524941 1.329530 -1.046622 0
M  V30 19 C -4.957670 0.059442 -0.717714 0
M  V30 20 C -6.086112 -0.486614 -0.129767 0
M  V30 21 C -7.236765 0.110940 0.361730 0
M  V30 22 C -8.194979 -0.713720 0.896718 0
M  V30 23 N -8.001853 -2.066293 0.932828 0
M  V30 24 C -6.868909 -2.607360 0.444170 0
M  V30 25 C -5.865328 -1.851008 -0.105786 0
M  V30 26 N -4.669816 -2.133442 -0.646733 0
M  V30 27 C -4.113297 -3.445613 -0.799828 0
M  V30 28 C -3.512524 -3.679077 -2.162024 0
M  V30 29 C -2.816000 -5.012285 -1.965977 0
M  V30 30 C -2.326367 -4.991704 -0.534901 0
M  V30 31 C -2.986058 -3.773324 0.128283 0
M  V30 32 C -4.090703 -0.968500 -1.031047 0
M  V30 33 N -2.911199 -0.716534 -1.616697 0
M  V30 34 N 1.165167 0.985080 -2.132341 0
M  V30 35 N 2.159420 1.305302 -1.317709 0
M  V30 36 C 3.211229 2.455233 2.057535 0
M  V30 37 C 4.223422 1.892238 2.985156 0
M  V30 38 H 7.327379 -0.007014 4.679813 0
M  V30 39 H 5.606710 -0.301701 4.563331 0
M  V30 40 H 7.374558 1.579657 3.187645 0
M  V30 41 H 5.887743 2.501769 1.882714 0
M  V30 42 H 6.088819 0.382533 0.508418 0
M  V30 43 H 4.381566 -0.036669 1.134254 0
M  V30 44 H 5.050876 2.733845 0.170498 0
M  V30 45 H 4.458181 1.358399 -0.894188 0
M  V30 46 H 0.595084 1.782951 1.521098 0
M  V30 47 H -1.317156 1.187326 0.051742 0
M  V30 48 H -0.971779 0.399487 -3.559674 0
M  V30 49 H -5.168822 2.158370 -0.819341 0
M  V30 50 H -7.325772 1.205189 0.301306 0
M  V30 51 H -9.115671 -0.261615 1.293108 0
M  V30 52 H -6.788901 -3.684005 0.506846 0
M  V30 53 H -4.898732 -4.224039 -0.618148 0
M  V30 54 H -2.710651 -2.958974 -2.377016 0
M  V30 55 H -4.291832 -3.723921 -2.926824 0
M  V30 56 H -3.463997 -5.882117 -2.193973 0
M  V30 57 H -1.950886 -5.069954 -2.692140 0
M  V30 58 H -2.623311 -5.919218 -0.023556 0
M  V30 59 H -1.211854 -4.928705 -0.471839 0
M  V30 60 H -2.232079 -2.948814 0.144549 0
M  V30 61 H -3.315724 -4.060891 1.153995 0
M  V30 62 H 2.225475 2.370187 2.553653 0
M  V30 63 H 3.359462 3.571803 1.939595 0
M  V30 64 H 4.520959 2.720374 3.674051 0
M  V30 65 H 3.874081 1.060044 3.632422 0
M  V30 END ATOM
M  V30 BEGIN BOND
M  V30 1 1 1 2
M  V30 2 1 2 3
M  V30 3 1 2 4
M  V30 4 1 2 5
M  V30 5 1 5 6
M  V30 6 1 6 7
M  V30 7 1 7 8
M  V30 8 1 8 9
M  V30 9 1 9 10
M  V30 10 1 10 11
M  V30 11 2 11 12
M  V30 12 1 12 13
M  V30 13 2 13 14
M  V30 14 1 14 15
M  V30 15 1 15 16
M  V30 16 2 16 17
M  V30 17 1 17 18
M  V30 18 2 18 19
M  V30 19 1 19 20
M  V30 20 2 20 21
M  V30 21 1 21 22
M  V30 22 2 22 23
M  V30 23 1 23 24
M  V30 24 2 24 25
M  V30 25 1 25 26
M  V30 26 1 26 27
M  V30 27 1 27 28
M  V30 28 1 28 29
M  V30 29 1 29 30
M  V30 30 1 30 31
M  V30 31 1 26 32
M  V30 32 2 32 33
M  V30 33 1 14 34
M  V30 34 2 34 35
M  V30 35 1 10 36
M  V30 36 1 36 37
M  V30 37 1 37 7
M  V30 38 1 35 11
M  V30 39 1 33 16
M  V30 40 1 32 19
M  V30 41 1 25 20
M  V30 42 1 31 27
M  V30 43 1 5 38
M  V30 44 1 5 39
M  V30 45 1 6 40
M  V30 46 1 7 41
M  V30 47 1 8 42
M  V30 48 1 8 43
M  V30 49 1 9 44
M  V30 50 1 9 45
M  V30 51 1 12 46
M  V30 52 1 13 47
M  V30 53 1 15 48
M  V30 54 1 18 49
M  V30 55 1 21 50
M  V30 56 1 22 51
M  V30 57 1 24 52
M  V30 58 1 27 53
M  V30 59 1 28 54
M  V30 60 1 28 55
M  V30 61 1 29 56
M  V30 62 1 29 57
M  V30 63 1 30 58
M  V30 64 1 30 59
M  V30 65 1 31 60
M  V30 66 1 31 61
M  V30 67 1 36 62
M  V30 68 1 36 63
M  V30 69 1 37 64
M  V30 70 1 37 65
M  V30 END BOND
M  V30 END CTAB
M  END
>  <Dataset>  (675) 
ChEMBL_Kinases

>  <Ligand_Instance>  (675) 
nan

>  <PDB_ID>  (675) 
nan

>  <Standardized_SMILES>  (675) 
FC(F)(F)CNC1CCN(c2ccc(Nc3ncc4c5ccncc5n(C5CCCC5)c4n3)nn2)CC1

>  <Name>  (675) 
nan

>  <Pocket>  (675) 
nan

>  <ATP_Site>  (675) 
nan

>  <Peripheral>  (675) 
nan

>  <Num_H_Atoms_ProtBoundConf>  (675) 
nan

>  <Num_Resolved_Atoms>  (675) 
nan

>  <Num_Not_Resolved_Atoms>  (675) 
nan

$$$$
CHEMBL3642013
     RDKit          3D

  0  0  0  0  0  0  0  0  0  0999 V3000
M  V30 BEGIN CTAB
M  V30 COUNTS 70 75 0 0 0
M  V30 BEGIN ATOM
M  V30 1 C 2.592079 -3.527555 2.084527 0
M  V30 2 N 3.938429 -3.119960 1.709442 0
M  V30 3 C 4.556362 -2.602054 2.902331 0
M  V30 4 C 3.964472 -1.307492 3.396542 0
M  V30 5 O 4.582776 -0.830306 4.552570 0
M  V30 6 C 3.935887 -2.236885 0.604738 0
M  V30 7 C 3.290095 -2.965612 -0.583701 0
M  V30 8 C 3.448028 -2.108834 -1.828353 0
M  V30 9 N 3.625924 -0.730593 -1.342553 0
M  V30 10 C 2.643963 0.321653 -1.305450 0
M  V30 11 C 2.864966 1.645853 -0.990021 0
M  V30 12 C 1.766312 2.479141 -0.997016 0
M  V30 13 C 0.497750 2.069857 -1.293504 0
M  V30 14 N -0.607917 2.994782 -1.269196 0
M  V30 15 C -1.882493 2.455021 -1.587222 0
M  V30 16 N -2.766384 2.757128 -2.585504 0
M  V30 17 C -3.926235 2.081559 -2.678717 0
M  V30 18 C -4.184377 1.092192 -1.747194 0
M  V30 19 C -5.318682 0.310097 -1.702607 0
M  V30 20 C -6.509653 0.146641 -2.397454 0
M  V30 21 C -7.452859 -0.790854 -2.031614 0
M  V30 22 N -7.142215 -1.524046 -0.970621 0
M  V30 23 C -6.015837 -1.426847 -0.248762 0
M  V30 24 C -5.076857 -0.495325 -0.610985 0
M  V30 25 N -3.905325 -0.263573 -0.004841 0
M  V30 26 C -3.124894 -0.715089 1.080031 0
M  V30 27 C -3.602530 -1.807215 1.946824 0
M  V30 28 C -4.539818 -1.230163 2.977581 0
M  V30 29 C -4.552072 0.266493 2.658715 0
M  V30 30 C -3.140513 0.442157 2.106344 0
M  V30 31 C -3.324013 0.753967 -0.725390 0
M  V30 32 N -2.184763 1.485299 -0.710357 0
M  V30 33 N 0.342247 0.767533 -1.593956 0
M  V30 34 C 1.369289 -0.105247 -1.607074 0
M  V30 35 C 5.003815 -0.559454 -0.854860 0
M  V30 36 C 5.242275 -1.673412 0.177928 0
M  V30 37 H 2.280546 -4.486294 1.624527 0
M  V30 38 H 1.924398 -2.675393 1.827677 0
M  V30 39 H 2.493630 -3.630992 3.198599 0
M  V30 40 H 5.661362 -2.536044 2.858590 0
M  V30 41 H 4.328663 -3.356703 3.698367 0
M  V30 42 H 4.089624 -0.516129 2.621775 0
M  V30 43 H 2.893756 -1.435907 3.666780 0
M  V30 44 H 4.516697 0.147377 4.559958 0
M  V30 45 H 3.217995 -1.395077 0.827245 0
M  V30 46 H 3.802005 -3.928495 -0.787529 0
M  V30 47 H 2.216939 -3.076854 -0.411056 0
M  V30 48 H 2.559862 -2.185148 -2.484055 0
M  V30 49 H 4.307409 -2.402459 -2.431823 0
M  V30 50 H 3.881906 1.912879 -0.765657 0
M  V30 51 H 1.968934 3.522589 -0.745013 0
M  V30 52 H -0.420937 3.972020 -1.030811 0
M  V30 53 H -4.613628 2.325833 -3.465766 0
M  V30 54 H -6.647360 0.803488 -3.243824 0
M  V30 55 H -8.372324 -0.891498 -2.598579 0
M  V30 56 H -5.902722 -2.086085 0.585883 0
M  V30 57 H -2.031253 -0.814485 0.822929 0
M  V30 58 H -2.671722 -2.094461 2.575479 0
M  V30 59 H -3.937696 -2.733318 1.494872 0
M  V30 60 H -5.517957 -1.705165 2.875772 0
M  V30 61 H -4.182288 -1.373396 4.034018 0
M  V30 62 H -4.709993 0.861475 3.568203 0
M  V30 63 H -5.325066 0.413777 1.878858 0
M  V30 64 H -3.025399 1.418538 1.625312 0
M  V30 65 H -2.443885 0.251286 2.924842 0
M  V30 66 H 0.986955 -1.078544 -1.874375 0
M  V30 67 H 5.185222 0.413143 -0.401347 0
M  V30 68 H 5.682351 -0.672518 -1.711644 0
M  V30 69 H 5.921226 -2.399195 -0.291524 0
M  V30 70 H 5.757290 -1.251424 1.061202 0
M  V30 END ATOM
M  V30 BEGIN BOND
M  V30 1 1 1 2
M  V30 2 1 2 3
M  V30 3 1 3 4
M  V30 4 1 4 5
M  V30 5 1 2 6
M  V30 6 1 6 7
M  V30 7 1 7 8
M  V30 8 1 8 9
M  V30 9 1 9 10
M  V30 10 2 10 11
M  V30 11 1 11 12
M  V30 12 2 12 13
M  V30 13 1 13 14
M  V30 14 1 14 15
M  V30 15 2 15 16
M  V30 16 1 16 17
M  V30 17 2 17 18
M  V30 18 1 18 19
M  V30 19 2 19 20
M  V30 20 1 20 21
M  V30 21 2 21 22
M  V30 22 1 22 23
M  V30 23 2 23 24
M  V30 24 1 24 25
M  V30 25 1 25 26
M  V30 26 1 26 27
M  V30 27 1 27 28
M  V30 28 1 28 29
M  V30 29 1 29 30
M  V30 30 1 25 31
M  V30 31 2 31 32
M  V30 32 1 13 33
M  V30 33 2 33 34
M  V30 34 1 9 35
M  V30 35 1 35 36
M  V30 36 1 36 6
M  V30 37 1 34 10
M  V30 38 1 32 15
M  V30 39 1 31 18
M  V30 40 1 24 19
M  V30 41 1 30 26
M  V30 42 1 1 37
M  V30 43 1 1 38
M  V30 44 1 1 39
M  V30 45 1 3 40
M  V30 46 1 3 41
M  V30 47 1 4 42
M  V30 48 1 4 43
M  V30 49 1 5 44
M  V30 50 1 6 45
M  V30 51 1 7 46
M  V30 52 1 7 47
M  V30 53 1 8 48
M  V30 54 1 8 49
M  V30 55 1 11 50
M  V30 56 1 12 51
M  V30 57 1 14 52
M  V30 58 1 17 53
M  V30 59 1 20 54
M  V30 60 1 21 55
M  V30 61 1 23 56
M  V30 62 1 26 57
M  V30 63 1 27 58
M  V30 64 1 27 59
M  V30 65 1 28 60
M  V30 66 1 28 61
M  V30 67 1 29 62
M  V30 68 1 29 63
M  V30 69 1 30 64
M  V30 70 1 30 65
M  V30 71 1 34 66
M  V30 72 1 35 67
M  V30 73 1 35 68
M  V30 74 1 36 69
M  V30 75 1 36 70
M  V30 END BOND
M  V30 END CTAB
M  END
>  <Dataset>  (676) 
ChEMBL_Kinases

>  <Ligand_Instance>  (676) 
nan

>  <PDB_ID>  (676) 
nan

>  <Standardized_SMILES>  (676) 
CN(CCO)C1CCN(c2ccc(Nc3ncc4c5ccncc5n(C5CCCC5)c4n3)nc2)CC1

>  <Name>  (676) 
nan

>  <Pocket>  (676) 
nan

>  <ATP_Site>  (676) 
nan

>  <Peripheral>  (676) 
nan

>  <Num_H_Atoms_ProtBoundConf>  (676) 
nan

>  <Num_Resolved_Atoms>  (676) 
nan

>  <Num_Not_Resolved_Atoms>  (676) 
nan

$$$$
CHEMBL3642014
     RDKit          3D

  0  0  0  0  0  0  0  0  0  0999 V3000
M  V30 BEGIN CTAB
M  V30 COUNTS 67 72 0 0 0
M  V30 BEGIN ATOM
M  V30 1 O 2.717230 -2.254993 3.652959 0
M  V30 2 C 2.247584 -1.115380 4.283166 0
M  V30 3 C 3.297633 -0.025786 4.219704 0
M  V30 4 N 3.622302 0.311627 2.869628 0
M  V30 5 C 4.608997 1.361021 2.766351 0
M  V30 6 C 4.115424 2.645695 3.409861 0
M  V30 7 C 2.807379 3.056471 2.764033 0
M  V30 8 N 2.864782 2.817116 1.318659 0
M  V30 9 C 1.814398 2.469844 0.425644 0
M  V30 10 C 0.970948 1.408174 0.709401 0
M  V30 11 C -0.035934 1.158057 -0.199327 0
M  V30 12 C -0.298813 1.845866 -1.359742 0
M  V30 13 N -1.335638 1.560235 -2.284381 0
M  V30 14 C -2.264365 0.517513 -2.284639 0
M  V30 15 N -3.265119 0.540667 -3.188867 0
M  V30 16 C -4.206645 -0.400947 -3.313051 0
M  V30 17 C -4.163690 -1.470153 -2.470622 0
M  V30 18 C -4.973141 -2.563381 -2.366022 0
M  V30 19 C -6.085335 -2.919233 -3.076026 0
M  V30 20 C -6.747325 -4.088172 -2.778094 0
M  V30 21 N -6.270458 -4.859111 -1.776773 0
M  V30 22 C -5.186380 -4.486302 -1.103405 0
M  V30 23 C -4.471246 -3.329990 -1.347033 0
M  V30 24 N -3.367431 -2.712233 -0.837613 0
M  V30 25 C -2.557314 -3.239320 0.240387 0
M  V30 26 C -1.148073 -2.738261 0.077001 0
M  V30 27 C -0.172794 -3.845849 0.256585 0
M  V30 28 C -0.980066 -5.015531 0.692637 0
M  V30 29 C -2.416149 -4.718085 0.267527 0
M  V30 30 C -3.166210 -1.557689 -1.522109 0
M  V30 31 N -2.284955 -0.554882 -1.495483 0
M  V30 32 N 0.557625 2.884662 -1.600136 0
M  V30 33 C 1.555362 3.160727 -0.734803 0
M  V30 34 C 4.247528 2.947216 0.839804 0
M  V30 35 C 4.916065 1.645547 1.315018 0
M  V30 36 H 2.088492 -2.490447 2.940370 0
M  V30 37 H 1.283661 -0.772187 3.824068 0
M  V30 38 H 1.983205 -1.369554 5.321980 0
M  V30 39 H 4.177195 -0.417624 4.788831 0
M  V30 40 H 2.846195 0.851466 4.719395 0
M  V30 41 H 4.033066 -0.516244 2.351090 0
M  V30 42 H 5.533069 1.070437 3.270682 0
M  V30 43 H 4.851389 3.465073 3.299477 0
M  V30 44 H 3.922689 2.543106 4.492229 0
M  V30 45 H 2.677031 4.138484 2.924410 0
M  V30 46 H 1.959419 2.499586 3.171929 0
M  V30 47 H 1.091801 0.798171 1.597966 0
M  V30 48 H -0.708148 0.338205 -0.002019 0
M  V30 49 H -1.398530 2.255706 -3.089101 0
M  V30 50 H -4.985106 -0.321858 -4.060399 0
M  V30 51 H -6.498739 -2.349945 -3.869718 0
M  V30 52 H -7.640444 -4.455398 -3.287421 0
M  V30 53 H -4.867177 -5.135568 -0.319227 0
M  V30 54 H -2.909119 -2.863741 1.232878 0
M  V30 55 H -0.934951 -1.884888 0.765025 0
M  V30 56 H -1.038868 -2.414826 -1.001012 0
M  V30 57 H 0.334776 -4.145825 -0.696735 0
M  V30 58 H 0.650489 -3.564193 0.950162 0
M  V30 59 H -0.885353 -5.090574 1.812275 0
M  V30 60 H -0.630543 -5.991155 0.293276 0
M  V30 61 H -2.553225 -5.244103 -0.676316 0
M  V30 62 H -3.024131 -5.137891 1.125978 0
M  V30 63 H 2.210404 4.007304 -0.984044 0
M  V30 64 H 4.312123 2.953883 -0.266489 0
M  V30 65 H 4.728554 3.804947 1.297070 0
M  V30 66 H 4.453224 0.829093 0.716243 0
M  V30 67 H 6.002138 1.675204 1.091679 0
M  V30 END ATOM
M  V30 BEGIN BOND
M  V30 1 1 1 2
M  V30 2 1 2 3
M  V30 3 1 3 4
M  V30 4 1 4 5
M  V30 5 1 5 6
M  V30 6 1 6 7
M  V30 7 1 7 8
M  V30 8 1 8 9
M  V30 9 2 9 10
M  V30 10 1 10 11
M  V30 11 2 11 12
M  V30 12 1 12 13
M  V30 13 1 13 14
M  V30 14 2 14 15
M  V30 15 1 15 16
M  V30 16 2 16 17
M  V30 17 1 17 18
M  V30 18 2 18 19
M  V30 19 1 19 20
M  V30 20 2 20 21
M  V30 21 1 21 22
M  V30 22 2 22 23
M  V30 23 1 23 24
M  V30 24 1 24 25
M  V30 25 1 25 26
M  V30 26 1 26 27
M  V30 27 1 27 28
M  V30 28 1 28 29
M  V30 29 1 24 30
M  V30 30 2 30 31
M  V30 31 1 12 32
M  V30 32 2 32 33
M  V30 33 1 8 34
M  V30 34 1 34 35
M  V30 35 1 35 5
M  V30 36 1 33 9
M  V30 37 1 31 14
M  V30 38 1 30 17
M  V30 39 1 23 18
M  V30 40 1 29 25
M  V30 41 1 1 36
M  V30 42 1 2 37
M  V30 43 1 2 38
M  V30 44 1 3 39
M  V30 45 1 3 40
M  V30 46 1 4 41
M  V30 47 1 5 42
M  V30 48 1 6 43
M  V30 49 1 6 44
M  V30 50 1 7 45
M  V30 51 1 7 46
M  V30 52 1 10 47
M  V30 53 1 11 48
M  V30 54 1 13 49
M  V30 55 1 16 50
M  V30 56 1 19 51
M  V30 57 1 20 52
M  V30 58 1 22 53
M  V30 59 1 25 54
M  V30 60 1 26 55
M  V30 61 1 26 56
M  V30 62 1 27 57
M  V30 63 1 27 58
M  V30 64 1 28 59
M  V30 65 1 28 60
M  V30 66 1 29 61
M  V30 67 1 29 62
M  V30 68 1 33 63
M  V30 69 1 34 64
M  V30 70 1 34 65
M  V30 71 1 35 66
M  V30 72 1 35 67
M  V30 END BOND
M  V30 END CTAB
M  END
>  <Dataset>  (677) 
ChEMBL_Kinases

>  <Ligand_Instance>  (677) 
nan

>  <PDB_ID>  (677) 
nan

>  <Standardized_SMILES>  (677) 
OCCNC1CCN(c2ccc(Nc3ncc4c5ccncc5n(C5CCCC5)c4n3)nc2)CC1

>  <Name>  (677) 
nan

>  <Pocket>  (677) 
nan

>  <ATP_Site>  (677) 
nan

>  <Peripheral>  (677) 
nan

>  <Num_H_Atoms_ProtBoundConf>  (677) 
nan

>  <Num_Resolved_Atoms>  (677) 
nan

>  <Num_Not_Resolved_Atoms>  (677) 
nan

$$$$
CHEMBL3642015
     RDKit          3D

  0  0  0  0  0  0  0  0  0  0999 V3000
M  V30 BEGIN CTAB
M  V30 COUNTS 70 75 0 0 0
M  V30 BEGIN ATOM
M  V30 1 C 3.761883 -3.564215 4.521829 0
M  V30 2 C 3.720595 -3.764088 3.036593 0 CFG=2
M  V30 3 O 4.778906 -4.580173 2.662124 0
M  V30 4 C 3.772268 -2.433189 2.288466 0
M  V30 5 N 3.699067 -2.638120 0.875252 0
M  V30 6 C 3.678851 -1.443799 0.079368 0
M  V30 7 C 3.583494 -1.866301 -1.391425 0
M  V30 8 C 3.730905 -0.642193 -2.281328 0
M  V30 9 N 3.564691 0.494024 -1.356380 0
M  V30 10 C 2.450338 1.348184 -1.139433 0
M  V30 11 C 2.362227 2.562529 -0.501084 0
M  V30 12 C 1.117515 3.145081 -0.406234 0
M  V30 13 C -0.013393 2.553080 -0.923577 0
M  V30 14 N -1.279318 3.191304 -0.771146 0
M  V30 15 C -2.437393 2.557595 -1.299011 0
M  V30 16 N -3.251928 2.837593 -2.359139 0
M  V30 17 C -4.307314 2.013177 -2.623766 0
M  V30 18 C -4.530940 0.910723 -1.814152 0
M  V30 19 C -5.498860 -0.054722 -1.860298 0
M  V30 20 C -6.578228 -0.258686 -2.719223 0
M  V30 21 C -7.412612 -1.350677 -2.511615 0
M  V30 22 N -7.173297 -2.206573 -1.480926 0
M  V30 23 C -6.112179 -1.987377 -0.654133 0
M  V30 24 C -5.258209 -0.916463 -0.822286 0
M  V30 25 N -4.175839 -0.510908 -0.142327 0
M  V30 26 C -3.558444 -1.097919 0.989296 0
M  V30 27 C -2.489197 -0.278147 1.629037 0
M  V30 28 C -2.456761 -0.875706 3.044508 0
M  V30 29 C -3.917969 -1.049399 3.388166 0
M  V30 30 C -4.492696 -1.553467 2.077069 0
M  V30 31 C -3.706288 0.625342 -0.740870 0
M  V30 32 N -2.661445 1.474933 -0.508985 0
M  V30 33 N 0.088549 1.348022 -1.555737 0
M  V30 34 C 1.308781 0.742302 -1.667154 0
M  V30 35 C 4.787579 0.656389 -0.562964 0
M  V30 36 C 4.901194 -0.599760 0.306632 0
M  V30 37 H 3.035940 -4.271646 4.991634 0
M  V30 38 H 3.486083 -2.546205 4.815172 0
M  V30 39 H 4.752931 -3.879227 4.909476 0
M  V30 40 H 2.759997 -4.286350 2.758254 0
M  V30 41 H 4.826332 -5.333753 3.300328 0
M  V30 42 H 4.732697 -1.928565 2.595378 0
M  V30 43 H 2.957388 -1.762141 2.604848 0
M  V30 44 H 4.492292 -3.231537 0.539611 0
M  V30 45 H 2.790882 -0.803127 0.298204 0
M  V30 46 H 4.391539 -2.572241 -1.590932 0
M  V30 47 H 2.585135 -2.294326 -1.527183 0
M  V30 48 H 2.932634 -0.683831 -3.039620 0
M  V30 49 H 4.706012 -0.617950 -2.769057 0
M  V30 50 H 3.296491 2.916122 -0.148015 0
M  V30 51 H 1.081483 4.097581 0.097765 0
M  V30 52 H -1.346643 4.095320 -0.288071 0
M  V30 53 H -4.891038 2.297813 -3.461828 0
M  V30 54 H -6.787717 0.422353 -3.556650 0
M  V30 55 H -8.273332 -1.569890 -3.145529 0
M  V30 56 H -5.960831 -2.692794 0.149903 0
M  V30 57 H -3.033614 -2.030666 0.624887 0
M  V30 58 H -2.713420 0.772390 1.757356 0
M  V30 59 H -1.477297 -0.429539 1.213526 0
M  V30 60 H -1.948397 -1.847427 3.052992 0
M  V30 61 H -2.002883 -0.167785 3.743462 0
M  V30 62 H -4.397232 -0.104671 3.641561 0
M  V30 63 H -4.051972 -1.777655 4.208904 0
M  V30 64 H -5.487093 -1.081876 1.872583 0
M  V30 65 H -4.599452 -2.656976 2.122412 0
M  V30 66 H 1.166648 -0.188537 -2.191557 0
M  V30 67 H 4.789561 1.564537 0.047206 0
M  V30 68 H 5.655315 0.645881 -1.246393 0
M  V30 69 H 4.980773 -0.328004 1.377572 0
M  V30 70 H 5.838026 -1.147992 0.055158 0
M  V30 END ATOM
M  V30 BEGIN BOND
M  V30 1 1 1 2
M  V30 2 1 2 3
M  V30 3 1 2 4
M  V30 4 1 4 5
M  V30 5 1 5 6
M  V30 6 1 6 7
M  V30 7 1 7 8
M  V30 8 1 8 9
M  V30 9 1 9 10
M  V30 10 2 10 11
M  V30 11 1 11 12
M  V30 12 2 12 13
M  V30 13 1 13 14
M  V30 14 1 14 15
M  V30 15 2 15 16
M  V30 16 1 16 17
M  V30 17 2 17 18
M  V30 18 1 18 19
M  V30 19 2 19 20
M  V30 20 1 20 21
M  V30 21 2 21 22
M  V30 22 1 22 23
M  V30 23 2 23 24
M  V30 24 1 24 25
M  V30 25 1 25 26
M  V30 26 1 26 27
M  V30 27 1 27 28
M  V30 28 1 28 29
M  V30 29 1 29 30
M  V30 30 1 25 31
M  V30 31 2 31 32
M  V30 32 1 13 33
M  V30 33 2 33 34
M  V30 34 1 9 35
M  V30 35 1 35 36
M  V30 36 1 36 6
M  V30 37 1 34 10
M  V30 38 1 32 15
M  V30 39 1 31 18
M  V30 40 1 24 19
M  V30 41 1 30 26
M  V30 42 1 1 37
M  V30 43 1 1 38
M  V30 44 1 1 39
M  V30 45 1 2 40 CFG=1
M  V30 46 1 3 41
M  V30 47 1 4 42
M  V30 48 1 4 43
M  V30 49 1 5 44
M  V30 50 1 6 45
M  V30 51 1 7 46
M  V30 52 1 7 47
M  V30 53 1 8 48
M  V30 54 1 8 49
M  V30 55 1 11 50
M  V30 56 1 12 51
M  V30 57 1 14 52
M  V30 58 1 17 53
M  V30 59 1 20 54
M  V30 60 1 21 55
M  V30 61 1 23 56
M  V30 62 1 26 57
M  V30 63 1 27 58
M  V30 64 1 27 59
M  V30 65 1 28 60
M  V30 66 1 28 61
M  V30 67 1 29 62
M  V30 68 1 29 63
M  V30 69 1 30 64
M  V30 70 1 30 65
M  V30 71 1 34 66
M  V30 72 1 35 67
M  V30 73 1 35 68
M  V30 74 1 36 69
M  V30 75 1 36 70
M  V30 END BOND
M  V30 END CTAB
M  END
>  <Dataset>  (678) 
ChEMBL_Kinases

>  <Ligand_Instance>  (678) 
nan

>  <PDB_ID>  (678) 
nan

>  <Standardized_SMILES>  (678) 
C[C@H](O)CNC1CCN(c2ccc(Nc3ncc4c5ccncc5n(C5CCCC5)c4n3)nc2)CC1

>  <Name>  (678) 
nan

>  <Pocket>  (678) 
nan

>  <ATP_Site>  (678) 
nan

>  <Peripheral>  (678) 
nan

>  <Num_H_Atoms_ProtBoundConf>  (678) 
nan

>  <Num_Resolved_Atoms>  (678) 
nan

>  <Num_Not_Resolved_Atoms>  (678) 
nan

$$$$
CHEMBL3642016
     RDKit          3D

  0  0  0  0  0  0  0  0  0  0999 V3000
M  V30 BEGIN CTAB
M  V30 COUNTS 70 75 0 0 0
M  V30 BEGIN ATOM
M  V30 1 C 2.554731 -3.800346 3.376191 0
M  V30 2 C 3.499193 -2.895852 2.636815 0 CFG=1
M  V30 3 O 4.559492 -2.540964 3.492460 0
M  V30 4 C 4.159763 -3.622077 1.459391 0
M  V30 5 N 5.099149 -2.769187 0.780231 0
M  V30 6 C 4.481513 -1.682690 0.074431 0
M  V30 7 C 3.552530 -2.251727 -0.990497 0
M  V30 8 C 3.482963 -1.246885 -2.135959 0
M  V30 9 N 3.568273 0.102206 -1.557495 0
M  V30 10 C 2.500577 1.013261 -1.302847 0
M  V30 11 C 2.594722 2.307722 -0.868217 0
M  V30 12 C 1.458157 3.058681 -0.651466 0
M  V30 13 C 0.228003 2.477451 -0.881099 0
M  V30 14 N -0.989121 3.212409 -0.648975 0
M  V30 15 C -2.228970 2.540380 -0.941900 0
M  V30 16 N -3.042239 2.884114 -1.972657 0
M  V30 17 C -4.174674 2.261252 -2.264029 0
M  V30 18 C -4.519012 1.205503 -1.453688 0
M  V30 19 C -5.577453 0.337367 -1.442519 0
M  V30 20 C -6.671931 0.300478 -2.318455 0
M  V30 21 C -7.645620 -0.659316 -2.146278 0
M  V30 22 N -7.519804 -1.551706 -1.124781 0
M  V30 23 C -6.471119 -1.515937 -0.285405 0
M  V30 24 C -5.442353 -0.573048 -0.394589 0
M  V30 25 N -4.298221 -0.267525 0.244275 0
M  V30 26 C -3.821517 -0.993886 1.376902 0
M  V30 27 C -2.488789 -0.527784 1.887477 0
M  V30 28 C -2.431102 -1.266050 3.228982 0
M  V30 29 C -3.784678 -0.918866 3.799478 0
M  V30 30 C -4.699792 -0.965214 2.583425 0
M  V30 31 C -3.728397 0.804775 -0.382851 0
M  V30 32 N -2.589952 1.487644 -0.147252 0
M  V30 33 N 0.172118 1.203618 -1.307421 0
M  V30 34 C 1.250840 0.430476 -1.533401 0
M  V30 35 C 4.982859 0.371021 -1.254898 0
M  V30 36 C 5.570669 -0.841322 -0.568921 0
M  V30 37 H 1.949493 -4.453923 2.688504 0
M  V30 38 H 1.771865 -3.189449 3.905360 0
M  V30 39 H 3.074657 -4.508189 4.069284 0
M  V30 40 H 2.958576 -1.998739 2.321416 0
M  V30 41 H 4.507633 -3.087661 4.319666 0
M  V30 42 H 4.671209 -4.532031 1.798832 0
M  V30 43 H 3.346502 -3.867935 0.735104 0
M  V30 44 H 5.832840 -2.479626 1.453372 0
M  V30 45 H 3.868392 -1.072210 0.761036 0
M  V30 46 H 3.900977 -3.237423 -1.298456 0
M  V30 47 H 2.555176 -2.351442 -0.528505 0
M  V30 48 H 2.531074 -1.395176 -2.672469 0
M  V30 49 H 4.281924 -1.425645 -2.869734 0
M  V30 50 H 3.591869 2.671284 -0.718582 0
M  V30 51 H 1.558784 4.077080 -0.310298 0
M  V30 52 H -0.999144 4.177361 -0.293965 0
M  V30 53 H -4.774491 2.587930 -3.100746 0
M  V30 54 H -6.763038 1.016187 -3.128769 0
M  V30 55 H -8.500016 -0.711759 -2.806336 0
M  V30 56 H -6.389799 -2.241792 0.525267 0
M  V30 57 H -3.704767 -2.060164 1.071074 0
M  V30 58 H -2.439050 0.536570 2.131801 0
M  V30 59 H -1.631147 -0.872153 1.295492 0
M  V30 60 H -2.270954 -2.348832 3.078062 0
M  V30 61 H -1.622733 -0.797660 3.817866 0
M  V30 62 H -3.727011 0.147536 4.130679 0
M  V30 63 H -4.106935 -1.564667 4.620142 0
M  V30 64 H -5.332529 -0.049842 2.539583 0
M  V30 65 H -5.366763 -1.868020 2.649965 0
M  V30 66 H 0.938569 -0.544228 -1.864597 0
M  V30 67 H 5.094338 1.307164 -0.673841 0
M  V30 68 H 5.480763 0.469593 -2.242980 0
M  V30 69 H 6.090097 -1.450816 -1.346349 0
M  V30 70 H 6.314605 -0.623622 0.197169 0
M  V30 END ATOM
M  V30 BEGIN BOND
M  V30 1 1 1 2
M  V30 2 1 2 3
M  V30 3 1 2 4
M  V30 4 1 4 5
M  V30 5 1 5 6
M  V30 6 1 6 7
M  V30 7 1 7 8
M  V30 8 1 8 9
M  V30 9 1 9 10
M  V30 10 2 10 11
M  V30 11 1 11 12
M  V30 12 2 12 13
M  V30 13 1 13 14
M  V30 14 1 14 15
M  V30 15 2 15 16
M  V30 16 1 16 17
M  V30 17 2 17 18
M  V30 18 1 18 19
M  V30 19 2 19 20
M  V30 20 1 20 21
M  V30 21 2 21 22
M  V30 22 1 22 23
M  V30 23 2 23 24
M  V30 24 1 24 25
M  V30 25 1 25 26
M  V30 26 1 26 27
M  V30 27 1 27 28
M  V30 28 1 28 29
M  V30 29 1 29 30
M  V30 30 1 25 31
M  V30 31 2 31 32
M  V30 32 1 13 33
M  V30 33 2 33 34
M  V30 34 1 9 35
M  V30 35 1 35 36
M  V30 36 1 36 6
M  V30 37 1 34 10
M  V30 38 1 32 15
M  V30 39 1 31 18
M  V30 40 1 24 19
M  V30 41 1 30 26
M  V30 42 1 1 37
M  V30 43 1 1 38
M  V30 44 1 1 39
M  V30 45 1 2 40 CFG=3
M  V30 46 1 3 41
M  V30 47 1 4 42
M  V30 48 1 4 43
M  V30 49 1 5 44
M  V30 50 1 6 45
M  V30 51 1 7 46
M  V30 52 1 7 47
M  V30 53 1 8 48
M  V30 54 1 8 49
M  V30 55 1 11 50
M  V30 56 1 12 51
M  V30 57 1 14 52
M  V30 58 1 17 53
M  V30 59 1 20 54
M  V30 60 1 21 55
M  V30 61 1 23 56
M  V30 62 1 26 57
M  V30 63 1 27 58
M  V30 64 1 27 59
M  V30 65 1 28 60
M  V30 66 1 28 61
M  V30 67 1 29 62
M  V30 68 1 29 63
M  V30 69 1 30 64
M  V30 70 1 30 65
M  V30 71 1 34 66
M  V30 72 1 35 67
M  V30 73 1 35 68
M  V30 74 1 36 69
M  V30 75 1 36 70
M  V30 END BOND
M  V30 END CTAB
M  END
>  <Dataset>  (679) 
ChEMBL_Kinases

>  <Ligand_Instance>  (679) 
nan

>  <PDB_ID>  (679) 
nan

>  <Standardized_SMILES>  (679) 
C[C@@H](O)CNC1CCN(c2ccc(Nc3ncc4c5ccncc5n(C5CCCC5)c4n3)nc2)CC1

>  <Name>  (679) 
nan

>  <Pocket>  (679) 
nan

>  <ATP_Site>  (679) 
nan

>  <Peripheral>  (679) 
nan

>  <Num_H_Atoms_ProtBoundConf>  (679) 
nan

>  <Num_Resolved_Atoms>  (679) 
nan

>  <Num_Not_Resolved_Atoms>  (679) 
nan

$$$$
CHEMBL3642026
     RDKit          3D

  0  0  0  0  0  0  0  0  0  0999 V3000
M  V30 BEGIN CTAB
M  V30 COUNTS 69 74 0 0 0
M  V30 BEGIN ATOM
M  V30 1 C 6.053850 3.450087 3.296453 0
M  V30 2 N 5.758408 3.029811 1.950034 0
M  V30 3 C 6.672627 3.672115 1.043697 0
M  V30 4 C 6.341084 5.136134 1.027168 0
M  V30 5 O 7.063946 5.863609 0.269307 0
M  V30 6 O 5.566208 6.174485 1.470906 0
M  V30 7 C 5.738285 1.606000 1.861577 0
M  V30 8 C 4.658958 1.068528 2.774327 0
M  V30 9 C 3.351419 1.677585 2.348729 0
M  V30 10 N 3.051887 1.490165 0.944930 0
M  V30 11 C 1.751224 1.099580 0.497055 0
M  V30 12 C 0.778480 0.461551 1.251896 0
M  V30 13 C -0.469305 0.147336 0.720999 0
M  V30 14 C -0.736051 0.488471 -0.604748 0
M  V30 15 N -2.027930 0.159418 -1.138974 0
M  V30 16 C -2.923007 -0.527325 -0.273067 0
M  V30 17 N -3.529464 -0.179859 0.875093 0
M  V30 18 C -4.351456 -1.062623 1.472268 0
M  V30 19 C -4.548112 -2.307396 0.882104 0
M  V30 20 C -5.353774 -3.320992 1.361999 0
M  V30 21 C -6.189221 -3.594260 2.415109 0
M  V30 22 C -6.861603 -4.791706 2.569041 0
M  V30 23 N -6.630379 -5.683828 1.590921 0
M  V30 24 C -5.836088 -5.481333 0.549058 0
M  V30 25 C -5.173251 -4.291401 0.403751 0
M  V30 26 N -4.347952 -3.968831 -0.597178 0
M  V30 27 C -3.796241 -4.474428 -1.792782 0
M  V30 28 C -4.262660 -5.772841 -2.330153 0
M  V30 29 C -5.616892 -5.565291 -2.970947 0
M  V30 30 C -5.778995 -4.049135 -2.930743 0
M  V30 31 C -4.321007 -3.559102 -2.927876 0
M  V30 32 C -3.937428 -2.692534 -0.299985 0
M  V30 33 N -3.129091 -1.718068 -0.810848 0
M  V30 34 N 0.206097 1.103496 -1.328143 0
M  V30 35 C 1.407293 1.402076 -0.806087 0
M  V30 36 C 4.102605 1.696438 -0.006493 0
M  V30 37 C 5.428518 1.104164 0.478227 0
M  V30 38 H 5.153788 3.831625 3.847148 0
M  V30 39 H 6.462570 2.613807 3.905827 0
M  V30 40 H 6.866148 4.228576 3.312630 0
M  V30 41 H 7.703997 3.515888 1.437402 0
M  V30 42 H 6.594951 3.310018 0.010467 0
M  V30 43 H 4.780174 6.556539 0.952182 0
M  V30 44 H 6.747242 1.197266 2.142192 0
M  V30 45 H 4.644099 -0.052831 2.704225 0
M  V30 46 H 4.913707 1.287503 3.816340 0
M  V30 47 H 3.448298 2.775471 2.551946 0
M  V30 48 H 2.501876 1.350484 2.963522 0
M  V30 49 H 1.009782 0.214058 2.254047 0
M  V30 50 H -1.160945 -0.341441 1.362272 0
M  V30 51 H -2.284808 0.412241 -2.110564 0
M  V30 52 H -4.833641 -0.794179 2.380167 0
M  V30 53 H -6.300597 -2.807513 3.140580 0
M  V30 54 H -7.514246 -4.974494 3.413689 0
M  V30 55 H -5.756779 -6.292905 -0.140751 0
M  V30 56 H -2.680326 -4.354730 -1.856393 0
M  V30 57 H -4.184363 -6.656682 -1.715256 0
M  V30 58 H -3.560794 -5.987591 -3.214788 0
M  V30 59 H -6.377507 -6.093298 -2.380283 0
M  V30 60 H -5.623052 -5.882718 -4.042478 0
M  V30 61 H -6.177644 -3.799137 -1.926130 0
M  V30 62 H -6.337893 -3.659679 -3.777429 0
M  V30 63 H -3.803520 -3.750460 -3.863946 0
M  V30 64 H -4.364232 -2.515025 -2.648929 0
M  V30 65 H 2.028477 1.897385 -1.537382 0
M  V30 66 H 3.804360 1.172843 -0.963770 0
M  V30 67 H 4.290101 2.735325 -0.271122 0
M  V30 68 H 6.231738 1.267517 -0.236956 0
M  V30 69 H 5.276899 0.000261 0.559241 0
M  V30 END ATOM
M  V30 BEGIN BOND
M  V30 1 1 1 2
M  V30 2 1 2 3
M  V30 3 1 3 4
M  V30 4 2 4 5
M  V30 5 1 4 6
M  V30 6 1 2 7
M  V30 7 1 7 8
M  V30 8 1 8 9
M  V30 9 1 9 10
M  V30 10 1 10 11
M  V30 11 2 11 12
M  V30 12 1 12 13
M  V30 13 2 13 14
M  V30 14 1 14 15
M  V30 15 1 15 16
M  V30 16 2 16 17
M  V30 17 1 17 18
M  V30 18 2 18 19
M  V30 19 1 19 20
M  V30 20 2 20 21
M  V30 21 1 21 22
M  V30 22 2 22 23
M  V30 23 1 23 24
M  V30 24 2 24 25
M  V30 25 1 25 26
M  V30 26 1 26 27
M  V30 27 1 27 28
M  V30 28 1 28 29
M  V30 29 1 29 30
M  V30 30 1 30 31
M  V30 31 1 26 32
M  V30 32 2 32 33
M  V30 33 1 14 34
M  V30 34 2 34 35
M  V30 35 1 10 36
M  V30 36 1 36 37
M  V30 37 1 37 7
M  V30 38 1 35 11
M  V30 39 1 33 16
M  V30 40 1 32 19
M  V30 41 1 25 20
M  V30 42 1 31 27
M  V30 43 1 1 38
M  V30 44 1 1 39
M  V30 45 1 1 40
M  V30 46 1 3 41
M  V30 47 1 3 42
M  V30 48 1 6 43
M  V30 49 1 7 44
M  V30 50 1 8 45
M  V30 51 1 8 46
M  V30 52 1 9 47
M  V30 53 1 9 48
M  V30 54 1 12 49
M  V30 55 1 13 50
M  V30 56 1 15 51
M  V30 57 1 18 52
M  V30 58 1 21 53
M  V30 59 1 22 54
M  V30 60 1 24 55
M  V30 61 1 27 56
M  V30 62 1 28 57
M  V30 63 1 28 58
M  V30 64 1 29 59
M  V30 65 1 29 60
M  V30 66 1 30 61
M  V30 67 1 30 62
M  V30 68 1 31 63
M  V30 69 1 31 64
M  V30 70 1 35 65
M  V30 71 1 36 66
M  V30 72 1 36 67
M  V30 73 1 37 68
M  V30 74 1 37 69
M  V30 END BOND
M  V30 END CTAB
M  END
>  <Dataset>  (680) 
ChEMBL_Kinases

>  <Ligand_Instance>  (680) 
nan

>  <PDB_ID>  (680) 
nan

>  <Standardized_SMILES>  (680) 
CN(CC(=O)O)C1CCN(c2ccc(Nc3ncc4c5ccncc5n(C5CCCC5)c4n3)nc2)CC1

>  <Name>  (680) 
nan

>  <Pocket>  (680) 
nan

>  <ATP_Site>  (680) 
nan

>  <Peripheral>  (680) 
nan

>  <Num_H_Atoms_ProtBoundConf>  (680) 
nan

>  <Num_Resolved_Atoms>  (680) 
nan

>  <Num_Not_Resolved_Atoms>  (680) 
nan

$$$$
CHEMBL3642018
     RDKit          3D

  0  0  0  0  0  0  0  0  0  0999 V3000
M  V30 BEGIN CTAB
M  V30 COUNTS 74 80 0 0 0
M  V30 BEGIN ATOM
M  V30 1 O 3.476632 -2.465581 2.182275 0
M  V30 2 C 4.741714 -3.036919 1.966040 0
M  V30 3 C 4.606266 -4.296555 1.134152 0
M  V30 4 C 4.285152 -3.951934 -0.309748 0
M  V30 5 N 5.126660 -2.954663 -0.876839 0
M  V30 6 C 4.489086 -1.910121 -1.553511 0
M  V30 7 C 3.682414 -2.459970 -2.711721 0
M  V30 8 C 2.985589 -1.331141 -3.471296 0
M  V30 9 N 3.114662 -0.082338 -2.745143 0
M  V30 10 C 2.109306 0.706466 -2.123154 0
M  V30 11 C 2.311935 1.881864 -1.433004 0
M  V30 12 C 1.236155 2.540126 -0.880861 0
M  V30 13 C -0.068880 2.106897 -0.963883 0
M  V30 14 N -1.142061 2.826107 -0.373984 0
M  V30 15 C -2.500472 2.410898 -0.439142 0
M  V30 16 N -3.333081 2.801343 -1.446031 0
M  V30 17 C -4.610410 2.420450 -1.520117 0
M  V30 18 C -5.050588 1.595892 -0.505068 0
M  V30 19 C -6.236723 0.991264 -0.196835 0
M  V30 20 C -7.473046 0.983059 -0.808863 0
M  V30 21 C -8.576293 0.300084 -0.340804 0
M  V30 22 N -8.419950 -0.414184 0.810380 0
M  V30 23 C -7.233733 -0.430434 1.433885 0
M  V30 24 C -6.104479 0.255825 0.973965 0
M  V30 25 N -4.849224 0.394620 1.399849 0
M  V30 26 C -4.280912 -0.205723 2.587526 0
M  V30 27 C -4.341421 -1.714023 2.559046 0
M  V30 28 C -4.569379 -2.166719 3.968654 0
M  V30 29 C -4.958141 -0.963256 4.782002 0
M  V30 30 C -4.951035 0.232454 3.858196 0
M  V30 31 C -4.205813 1.199248 0.517255 0
M  V30 32 N -2.912126 1.613321 0.549759 0
M  V30 33 N -0.233868 0.958090 -1.643022 0
M  V30 34 C 0.797797 0.288695 -2.195804 0
M  V30 35 C 4.521865 0.271089 -2.743587 0
M  V30 36 C 5.312765 -0.734414 -1.936390 0
M  V30 37 C 6.181729 -2.639249 0.025053 0
M  V30 38 C 5.691625 -2.039258 1.332576 0
M  V30 39 H 3.058419 -2.799319 3.022713 0
M  V30 40 H 5.151903 -3.300519 2.955090 0
M  V30 41 H 3.720896 -4.846369 1.528423 0
M  V30 42 H 5.464753 -4.963059 1.229281 0
M  V30 43 H 4.421258 -4.900245 -0.885989 0
M  V30 44 H 3.195602 -3.724915 -0.384554 0
M  V30 45 H 3.698772 -1.507339 -0.849601 0
M  V30 46 H 2.863869 -3.079636 -2.289670 0
M  V30 47 H 4.289152 -3.089778 -3.390535 0
M  V30 48 H 3.442775 -1.250094 -4.483340 0
M  V30 49 H 1.919255 -1.553752 -3.652538 0
M  V30 50 H 3.305793 2.252319 -1.344188 0
M  V30 51 H 1.464089 3.450772 -0.355904 0
M  V30 52 H -0.911676 3.707505 0.133646 0
M  V30 53 H -5.298075 2.697318 -2.283595 0
M  V30 54 H -7.607935 1.548771 -1.726158 0
M  V30 55 H -9.535858 0.307120 -0.835979 0
M  V30 56 H -7.164347 -1.008663 2.337891 0
M  V30 57 H -3.199623 0.080531 2.651684 0
M  V30 58 H -3.352515 -2.136605 2.214654 0
M  V30 59 H -5.089436 -2.100901 1.838702 0
M  V30 60 H -5.361441 -2.943558 3.955896 0
M  V30 61 H -3.635355 -2.628840 4.395210 0
M  V30 62 H -4.232101 -0.829212 5.616248 0
M  V30 63 H -5.952620 -1.124776 5.254123 0
M  V30 64 H -5.963973 0.636955 3.655438 0
M  V30 65 H -4.373596 1.066908 4.328109 0
M  V30 66 H 0.436420 -0.600119 -2.688389 0
M  V30 67 H 4.720284 1.312855 -2.420240 0
M  V30 68 H 4.919498 0.233583 -3.791837 0
M  V30 69 H 6.248135 -0.928910 -2.446207 0
M  V30 70 H 5.587985 -0.185236 -0.991187 0
M  V30 71 H 6.669200 -3.598406 0.310117 0
M  V30 72 H 6.997263 -2.032411 -0.424678 0
M  V30 73 H 5.128883 -1.103472 1.180503 0
M  V30 74 H 6.590845 -1.855018 1.966522 0
M  V30 END ATOM
M  V30 BEGIN BOND
M  V30 1 1 1 2
M  V30 2 1 2 3
M  V30 3 1 3 4
M  V30 4 1 4 5
M  V30 5 1 5 6
M  V30 6 1 6 7
M  V30 7 1 7 8
M  V30 8 1 8 9
M  V30 9 1 9 10
M  V30 10 2 10 11
M  V30 11 1 11 12
M  V30 12 2 12 13
M  V30 13 1 13 14
M  V30 14 1 14 15
M  V30 15 2 15 16
M  V30 16 1 16 17
M  V30 17 2 17 18
M  V30 18 1 18 19
M  V30 19 2 19 20
M  V30 20 1 20 21
M  V30 21 2 21 22
M  V30 22 1 22 23
M  V30 23 2 23 24
M  V30 24 1 24 25
M  V30 25 1 25 26
M  V30 26 1 26 27
M  V30 27 1 27 28
M  V30 28 1 28 29
M  V30 29 1 29 30
M  V30 30 1 25 31
M  V30 31 2 31 32
M  V30 32 1 13 33
M  V30 33 2 33 34
M  V30 34 1 9 35
M  V30 35 1 35 36
M  V30 36 1 5 37
M  V30 37 1 37 38
M  V30 38 1 38 2
M  V30 39 1 36 6
M  V30 40 1 34 10
M  V30 41 1 32 15
M  V30 42 1 31 18
M  V30 43 1 24 19
M  V30 44 1 30 26
M  V30 45 1 1 39
M  V30 46 1 2 40
M  V30 47 1 3 41
M  V30 48 1 3 42
M  V30 49 1 4 43
M  V30 50 1 4 44
M  V30 51 1 6 45
M  V30 52 1 7 46
M  V30 53 1 7 47
M  V30 54 1 8 48
M  V30 55 1 8 49
M  V30 56 1 11 50
M  V30 57 1 12 51
M  V30 58 1 14 52
M  V30 59 1 17 53
M  V30 60 1 20 54
M  V30 61 1 21 55
M  V30 62 1 23 56
M  V30 63 1 26 57
M  V30 64 1 27 58
M  V30 65 1 27 59
M  V30 66 1 28 60
M  V30 67 1 28 61
M  V30 68 1 29 62
M  V30 69 1 29 63
M  V30 70 1 30 64
M  V30 71 1 30 65
M  V30 72 1 34 66
M  V30 73 1 35 67
M  V30 74 1 35 68
M  V30 75 1 36 69
M  V30 76 1 36 70
M  V30 77 1 37 71
M  V30 78 1 37 72
M  V30 79 1 38 73
M  V30 80 1 38 74
M  V30 END BOND
M  V30 END CTAB
M  END
>  <Dataset>  (681) 
ChEMBL_Kinases

>  <Ligand_Instance>  (681) 
nan

>  <PDB_ID>  (681) 
nan

>  <Standardized_SMILES>  (681) 
OC1CCN(C2CCN(c3ccc(Nc4ncc5c6ccncc6n(C6CCCC6)c5n4)nc3)CC2)CC1

>  <Name>  (681) 
nan

>  <Pocket>  (681) 
nan

>  <ATP_Site>  (681) 
nan

>  <Peripheral>  (681) 
nan

>  <Num_H_Atoms_ProtBoundConf>  (681) 
nan

>  <Num_Resolved_Atoms>  (681) 
nan

>  <Num_Not_Resolved_Atoms>  (681) 
nan

$$$$
CHEMBL3642019
     RDKit          3D

  0  0  0  0  0  0  0  0  0  0999 V3000
M  V30 BEGIN CTAB
M  V30 COUNTS 66 71 0 0 0
M  V30 BEGIN ATOM
M  V30 1 C 5.277174 -1.518903 2.678712 0
M  V30 2 C 4.033121 -0.765427 2.271088 0
M  V30 3 N 4.302592 0.419260 1.532611 0
M  V30 4 C 4.932743 1.487218 2.232070 0
M  V30 5 C 4.123471 1.991871 3.404344 0
M  V30 6 C 2.740751 2.405681 2.994908 0
M  V30 7 N 2.663058 2.718736 1.583215 0
M  V30 8 C 1.590141 2.329994 0.743440 0
M  V30 9 C 0.474085 1.668335 1.195190 0
M  V30 10 C -0.568211 1.281437 0.400219 0
M  V30 11 C -0.519250 1.562193 -0.945243 0
M  V30 12 N -1.563409 1.191374 -1.838280 0
M  V30 13 C -2.703783 0.505660 -1.333732 0
M  V30 14 N -3.839444 1.098864 -0.873299 0
M  V30 15 C -4.874057 0.385532 -0.412748 0
M  V30 16 C -4.797420 -1.008223 -0.399585 0
M  V30 17 C -5.667414 -1.973126 -0.000354 0
M  V30 18 C -6.937867 -1.975403 0.536382 0
M  V30 19 C -7.504612 -3.202182 0.815908 0
M  V30 20 N -6.849238 -4.364741 0.577124 0
M  V30 21 C -5.605573 -4.378994 0.052285 0
M  V30 22 C -5.015825 -3.161883 -0.236666 0
M  V30 23 N -3.791462 -2.958618 -0.760633 0
M  V30 24 C -2.800261 -3.928752 -1.147661 0
M  V30 25 C -2.212346 -3.693068 -2.493387 0
M  V30 26 C -0.860518 -4.368002 -2.366402 0
M  V30 27 C -0.399337 -4.178782 -0.953656 0
M  V30 28 C -1.663523 -4.051639 -0.168421 0
M  V30 29 C -3.653174 -1.624759 -0.862931 0
M  V30 30 N -2.671986 -0.851325 -1.302704 0
M  V30 31 N 0.566077 2.212484 -1.420611 0
M  V30 32 C 1.577115 2.579981 -0.608414 0
M  V30 33 C 3.814451 3.465128 1.188818 0
M  V30 34 C 5.087141 2.645413 1.250316 0
M  V30 35 H 6.075169 -0.845651 2.994470 0
M  V30 36 H 5.610711 -2.166629 1.839994 0
M  V30 37 H 4.952937 -2.219061 3.483403 0
M  V30 38 H 3.483208 -1.455427 1.579993 0
M  V30 39 H 3.376236 -0.568810 3.135815 0
M  V30 40 H 4.608920 0.275498 0.568509 0
M  V30 41 H 5.919294 1.147308 2.598595 0
M  V30 42 H 4.702537 2.868068 3.802096 0
M  V30 43 H 4.075275 1.223597 4.189135 0
M  V30 44 H 2.441906 3.303673 3.589297 0
M  V30 45 H 2.053263 1.602042 3.314148 0
M  V30 46 H 0.357630 1.411800 2.237958 0
M  V30 47 H -1.436562 0.768669 0.742558 0
M  V30 48 H -1.501072 1.412801 -2.834319 0
M  V30 49 H -5.766497 0.878980 -0.051786 0
M  V30 50 H -7.438079 -1.027528 0.716632 0
M  V30 51 H -8.495316 -3.184870 1.233755 0
M  V30 52 H -5.132485 -5.351659 -0.115748 0
M  V30 53 H -3.311793 -4.919989 -1.167513 0
M  V30 54 H -2.012649 -2.646293 -2.760610 0
M  V30 55 H -2.751145 -4.167951 -3.338721 0
M  V30 56 H -1.053351 -5.453404 -2.525704 0
M  V30 57 H -0.125766 -3.969741 -3.099265 0
M  V30 58 H 0.274251 -3.316123 -0.794447 0
M  V30 59 H 0.137073 -5.095566 -0.568838 0
M  V30 60 H -1.817032 -4.862030 0.578613 0
M  V30 61 H -1.668865 -3.096470 0.425002 0
M  V30 62 H 2.383691 3.089573 -1.104621 0
M  V30 63 H 3.742205 3.873317 0.163061 0
M  V30 64 H 3.902016 4.366966 1.853649 0
M  V30 65 H 5.881795 3.304442 1.654372 0
M  V30 66 H 5.406067 2.300835 0.245849 0
M  V30 END ATOM
M  V30 BEGIN BOND
M  V30 1 1 1 2
M  V30 2 1 2 3
M  V30 3 1 3 4
M  V30 4 1 4 5
M  V30 5 1 5 6
M  V30 6 1 6 7
M  V30 7 1 7 8
M  V30 8 2 8 9
M  V30 9 1 9 10
M  V30 10 2 10 11
M  V30 11 1 11 12
M  V30 12 1 12 13
M  V30 13 2 13 14
M  V30 14 1 14 15
M  V30 15 2 15 16
M  V30 16 1 16 17
M  V30 17 2 17 18
M  V30 18 1 18 19
M  V30 19 2 19 20
M  V30 20 1 20 21
M  V30 21 2 21 22
M  V30 22 1 22 23
M  V30 23 1 23 24
M  V30 24 1 24 25
M  V30 25 1 25 26
M  V30 26 1 26 27
M  V30 27 1 27 28
M  V30 28 1 23 29
M  V30 29 2 29 30
M  V30 30 1 11 31
M  V30 31 2 31 32
M  V30 32 1 7 33
M  V30 33 1 33 34
M  V30 34 1 34 4
M  V30 35 1 32 8
M  V30 36 1 30 13
M  V30 37 1 29 16
M  V30 38 1 22 17
M  V30 39 1 28 24
M  V30 40 1 1 35
M  V30 41 1 1 36
M  V30 42 1 1 37
M  V30 43 1 2 38
M  V30 44 1 2 39
M  V30 45 1 3 40
M  V30 46 1 4 41
M  V30 47 1 5 42
M  V30 48 1 5 43
M  V30 49 1 6 44
M  V30 50 1 6 45
M  V30 51 1 9 46
M  V30 52 1 10 47
M  V30 53 1 12 48
M  V30 54 1 15 49
M  V30 55 1 18 50
M  V30 56 1 19 51
M  V30 57 1 21 52
M  V30 58 1 24 53
M  V30 59 1 25 54
M  V30 60 1 25 55
M  V30 61 1 26 56
M  V30 62 1 26 57
M  V30 63 1 27 58
M  V30 64 1 27 59
M  V30 65 1 28 60
M  V30 66 1 28 61
M  V30 67 1 32 62
M  V30 68 1 33 63
M  V30 69 1 33 64
M  V30 70 1 34 65
M  V30 71 1 34 66
M  V30 END BOND
M  V30 END CTAB
M  END
>  <Dataset>  (682) 
ChEMBL_Kinases

>  <Ligand_Instance>  (682) 
nan

>  <PDB_ID>  (682) 
nan

>  <Standardized_SMILES>  (682) 
CCNC1CCN(c2ccc(Nc3ncc4c5ccncc5n(C5CCCC5)c4n3)nc2)CC1

>  <Name>  (682) 
nan

>  <Pocket>  (682) 
nan

>  <ATP_Site>  (682) 
nan

>  <Peripheral>  (682) 
nan

>  <Num_H_Atoms_ProtBoundConf>  (682) 
nan

>  <Num_Resolved_Atoms>  (682) 
nan

>  <Num_Not_Resolved_Atoms>  (682) 
nan

$$$$
CHEMBL3642020
     RDKit          3D

  0  0  0  0  0  0  0  0  0  0999 V3000
M  V30 BEGIN CTAB
M  V30 COUNTS 67 73 0 0 0
M  V30 BEGIN ATOM
M  V30 1 C 3.164679 -6.946864 4.152030 0
M  V30 2 C 3.655559 -5.759916 3.653377 0
M  V30 3 C 2.932189 -4.588052 3.596026 0
M  V30 4 C 3.061214 -3.275160 3.193716 0
M  V30 5 C 4.185568 -2.680356 2.628161 0
M  V30 6 N 4.157878 -1.366426 2.282680 0
M  V30 7 C 3.007835 -0.677458 2.510282 0
M  V30 8 N 2.740464 0.692001 2.236863 0
M  V30 9 C 2.212796 1.086117 0.993038 0
M  V30 10 C 1.931910 2.393470 0.675746 0
M  V30 11 C 1.415533 2.804084 -0.531203 0
M  V30 12 C 1.151091 1.871231 -1.507360 0
M  V30 13 N 0.613300 2.241770 -2.766448 0
M  V30 14 C 0.233462 3.603573 -3.062991 0
M  V30 15 C -0.993159 3.541793 -3.963224 0
M  V30 16 C -1.790822 2.304343 -3.500302 0
M  V30 17 N -3.160422 2.509953 -3.804087 0
M  V30 18 C -3.966439 1.402623 -3.359175 0
M  V30 19 C -3.905507 0.085583 -4.001319 0
M  V30 20 C -5.182008 0.970707 -4.149045 0
M  V30 21 C -1.111851 1.137700 -4.136297 0
M  V30 22 C 0.392997 1.341363 -3.856999 0
M  V30 23 C 1.440231 0.569133 -1.168034 0
M  V30 24 N 1.944900 0.174912 0.013948 0
M  V30 25 N 1.941994 -1.274534 3.055317 0
M  V30 26 C 1.894526 -2.573915 3.423890 0
M  V30 27 N 0.998233 -3.446858 3.983202 0
M  V30 28 C -0.263268 -2.924507 4.294483 0
M  V30 29 C -1.296665 -3.762386 4.914650 0
M  V30 30 C -2.468572 -2.756313 5.001986 0
M  V30 31 C -2.173854 -1.693233 3.962581 0
M  V30 32 C -0.992923 -2.253791 3.156312 0
M  V30 33 C 1.638319 -4.623888 4.071821 0
M  V30 34 C 1.153968 -5.810959 4.568152 0
M  V30 35 N 1.888036 -6.922028 4.605078 0
M  V30 36 H 3.816171 -7.796781 4.148227 0
M  V30 37 H 4.671698 -5.682295 3.265922 0
M  V30 38 H 5.081206 -3.250015 2.459702 0
M  V30 39 H 2.928590 1.426791 2.946815 0
M  V30 40 H 2.153960 3.116873 1.476239 0
M  V30 41 H 1.244185 3.842304 -0.653027 0
M  V30 42 H 1.035138 4.153462 -3.558914 0
M  V30 43 H -0.133749 4.057419 -2.117033 0
M  V30 44 H -0.696798 3.406759 -5.013105 0
M  V30 45 H -1.687947 4.394350 -3.784882 0
M  V30 46 H -1.601925 2.197430 -2.389855 0
M  V30 47 H -3.524471 3.367574 -3.335144 0
M  V30 48 H -4.189831 1.459036 -2.239062 0
M  V30 49 H -4.021014 -0.825087 -3.367387 0
M  V30 50 H -3.338757 -0.057951 -4.934648 0
M  V30 51 H -6.062424 0.567426 -3.609385 0
M  V30 52 H -5.305523 1.435313 -5.130298 0
M  V30 53 H -1.282521 1.057351 -5.224619 0
M  V30 54 H -1.360528 0.147821 -3.681575 0
M  V30 55 H 0.797144 1.818078 -4.791167 0
M  V30 56 H 0.924629 0.382762 -3.763488 0
M  V30 57 H 1.268833 -0.238367 -1.863329 0
M  V30 58 H -0.097577 -2.071255 5.026670 0
M  V30 59 H -1.062914 -4.131648 5.944921 0
M  V30 60 H -1.709293 -4.599220 4.347853 0
M  V30 61 H -2.475510 -2.362255 6.019888 0
M  V30 62 H -3.430619 -3.217529 4.787760 0
M  V30 63 H -3.025942 -1.455000 3.333642 0
M  V30 64 H -1.741746 -0.829131 4.526756 0
M  V30 65 H -1.351830 -2.926204 2.371845 0
M  V30 66 H -0.413511 -1.387966 2.786344 0
M  V30 67 H 0.152450 -5.893970 4.952251 0
M  V30 END ATOM
M  V30 BEGIN BOND
M  V30 1 2 1 2
M  V30 2 1 2 3
M  V30 3 1 3 4
M  V30 4 2 4 5
M  V30 5 1 5 6
M  V30 6 2 6 7
M  V30 7 1 7 8
M  V30 8 1 8 9
M  V30 9 2 9 10
M  V30 10 1 10 11
M  V30 11 2 11 12
M  V30 12 1 12 13
M  V30 13 1 13 14
M  V30 14 1 14 15
M  V30 15 1 15 16
M  V30 16 1 16 17
M  V30 17 1 17 18
M  V30 18 1 18 19
M  V30 19 1 19 20
M  V30 20 1 16 21
M  V30 21 1 21 22
M  V30 22 1 12 23
M  V30 23 2 23 24
M  V30 24 1 7 25
M  V30 25 2 25 26
M  V30 26 1 26 27
M  V30 27 1 27 28
M  V30 28 1 28 29
M  V30 29 1 29 30
M  V30 30 1 30 31
M  V30 31 1 31 32
M  V30 32 1 27 33
M  V30 33 1 33 34
M  V30 34 2 34 35
M  V30 35 1 35 1
M  V30 36 2 33 3
M  V30 37 1 26 4
M  V30 38 1 32 28
M  V30 39 1 24 9
M  V30 40 1 22 13
M  V30 41 1 20 18
M  V30 42 1 1 36
M  V30 43 1 2 37
M  V30 44 1 5 38
M  V30 45 1 8 39
M  V30 46 1 10 40
M  V30 47 1 11 41
M  V30 48 1 14 42
M  V30 49 1 14 43
M  V30 50 1 15 44
M  V30 51 1 15 45
M  V30 52 1 16 46
M  V30 53 1 17 47
M  V30 54 1 18 48
M  V30 55 1 19 49
M  V30 56 1 19 50
M  V30 57 1 20 51
M  V30 58 1 20 52
M  V30 59 1 21 53
M  V30 60 1 21 54
M  V30 61 1 22 55
M  V30 62 1 22 56
M  V30 63 1 23 57
M  V30 64 1 28 58
M  V30 65 1 29 59
M  V30 66 1 29 60
M  V30 67 1 30 61
M  V30 68 1 30 62
M  V30 69 1 31 63
M  V30 70 1 31 64
M  V30 71 1 32 65
M  V30 72 1 32 66
M  V30 73 1 34 67
M  V30 END BOND
M  V30 END CTAB
M  END
>  <Dataset>  (683) 
ChEMBL_Kinases

>  <Ligand_Instance>  (683) 
nan

>  <PDB_ID>  (683) 
nan

>  <Standardized_SMILES>  (683) 
c1cc2c3cnc(Nc4ccc(N5CCC(NC6CC6)CC5)cn4)nc3n(C3CCCC3)c2cn1

>  <Name>  (683) 
nan

>  <Pocket>  (683) 
nan

>  <ATP_Site>  (683) 
nan

>  <Peripheral>  (683) 
nan

>  <Num_H_Atoms_ProtBoundConf>  (683) 
nan

>  <Num_Resolved_Atoms>  (683) 
nan

>  <Num_Not_Resolved_Atoms>  (683) 
nan

$$$$
CHEMBL3935874
     RDKit          3D

  0  0  0  0  0  0  0  0  0  0999 V3000
M  V30 BEGIN CTAB
M  V30 COUNTS 49 53 0 0 0
M  V30 BEGIN ATOM
M  V30 1 N 4.290746 -3.674471 -1.093749 0
M  V30 2 C 3.514616 -4.236521 0.027083 0 CFG=1
M  V30 3 C 4.014371 -3.706121 1.308175 0
M  V30 4 C 3.058376 -3.024033 2.211790 0
M  V30 5 C 1.696634 -2.771658 1.623347 0
M  V30 6 N 1.742952 -2.667427 0.179801 0
M  V30 7 C 1.581133 -1.696395 -0.854552 0
M  V30 8 S 1.653192 -1.998416 -2.544329 0
M  V30 9 N 1.330364 -0.238770 -3.064811 0
M  V30 10 C 1.211744 0.337752 -1.860256 0
M  V30 11 C 1.338162 -0.395087 -0.712474 0
M  V30 12 N 1.212052 0.424254 0.437763 0
M  V30 13 C 0.850838 1.818119 0.548776 0
M  V30 14 N 1.551454 2.951159 0.459399 0
M  V30 15 C 0.699356 4.000726 0.635778 0
M  V30 16 C -0.585299 3.553434 0.845559 0
M  V30 17 C -1.816411 4.103163 1.077733 0
M  V30 18 C -2.946171 3.324086 1.255793 0
M  V30 19 C -2.757865 1.963225 1.185284 0
M  V30 20 C -3.771426 0.911579 1.344448 0
M  V30 21 C -3.911060 0.527580 2.686558 0
M  V30 22 F -3.182900 1.076684 3.710063 0
M  V30 23 C -4.806410 -0.445651 3.046810 0
M  V30 24 C -5.539907 -1.005770 2.033720 0
M  V30 25 C -5.443248 -0.668907 0.716572 0
M  V30 26 C -4.528234 0.322206 0.360923 0
M  V30 27 F -4.290805 0.787383 -0.883484 0
M  V30 28 N -1.539665 1.437159 0.955784 0
M  V30 29 N -0.442404 2.200984 0.783232 0
M  V30 30 C 2.074345 -4.025839 -0.295894 0
M  V30 31 H 3.857379 -4.077739 -1.942497 0
M  V30 32 H 5.270676 -4.015286 -0.936377 0
M  V30 33 H 3.719971 -5.350225 -0.079693 0
M  V30 34 H 4.922053 -3.063550 1.123981 0
M  V30 35 H 4.440296 -4.572659 1.899560 0
M  V30 36 H 3.476592 -2.013942 2.473191 0
M  V30 37 H 2.919073 -3.527413 3.188110 0
M  V30 38 H 1.173306 -1.929165 2.086889 0
M  V30 39 H 1.009736 -3.651132 1.847706 0
M  V30 40 H 1.024569 1.354426 -2.173272 0
M  V30 41 H 1.353002 0.237166 1.438855 0
M  V30 42 H 0.969575 5.045789 0.617734 0
M  V30 43 H -1.927585 5.157836 1.123362 0
M  V30 44 H -3.939220 3.646644 1.441184 0
M  V30 45 H -4.986257 -0.811694 4.049776 0
M  V30 46 H -6.262568 -1.781261 2.259817 0
M  V30 47 H -6.000663 -1.085289 -0.101120 0
M  V30 48 H 1.910166 -4.064487 -1.374872 0
M  V30 49 H 1.404272 -4.789894 0.178425 0
M  V30 END ATOM
M  V30 BEGIN BOND
M  V30 1 1 1 2
M  V30 2 1 2 3
M  V30 3 1 3 4
M  V30 4 1 4 5
M  V30 5 1 5 6
M  V30 6 1 6 7
M  V30 7 1 7 8
M  V30 8 1 8 9
M  V30 9 2 9 10
M  V30 10 1 10 11
M  V30 11 1 11 12
M  V30 12 1 12 13
M  V30 13 2 13 14
M  V30 14 1 14 15
M  V30 15 2 15 16
M  V30 16 1 16 17
M  V30 17 2 17 18
M  V30 18 1 18 19
M  V30 19 1 19 20
M  V30 20 2 20 21
M  V30 21 1 21 22
M  V30 22 1 21 23
M  V30 23 2 23 24
M  V30 24 1 24 25
M  V30 25 2 25 26
M  V30 26 1 26 27
M  V30 27 2 19 28
M  V30 28 1 28 29
M  V30 29 1 6 30
M  V30 30 1 30 2
M  V30 31 2 11 7
M  V30 32 1 29 13
M  V30 33 1 29 16
M  V30 34 1 26 20
M  V30 35 1 1 31
M  V30 36 1 1 32
M  V30 37 1 2 33 CFG=1
M  V30 38 1 3 34
M  V30 39 1 3 35
M  V30 40 1 4 36
M  V30 41 1 4 37
M  V30 42 1 5 38
M  V30 43 1 5 39
M  V30 44 1 10 40
M  V30 45 1 12 41
M  V30 46 1 15 42
M  V30 47 1 17 43
M  V30 48 1 18 44
M  V30 49 1 23 45
M  V30 50 1 24 46
M  V30 51 1 25 47
M  V30 52 1 30 48
M  V30 53 1 30 49
M  V30 END BOND
M  V30 END CTAB
M  END
>  <Dataset>  (684) 
ChEMBL_Kinases

>  <Ligand_Instance>  (684) 
nan

>  <PDB_ID>  (684) 
nan

>  <Standardized_SMILES>  (684) 
N[C@H]1CCCN(c2sncc2Nc2ncc3ccc(-c4c(F)cccc4F)nn23)C1

>  <Name>  (684) 
nan

>  <Pocket>  (684) 
nan

>  <ATP_Site>  (684) 
nan

>  <Peripheral>  (684) 
nan

>  <Num_H_Atoms_ProtBoundConf>  (684) 
nan

>  <Num_Resolved_Atoms>  (684) 
nan

>  <Num_Not_Resolved_Atoms>  (684) 
nan

$$$$
CHEMBL3642021
     RDKit          3D

  0  0  0  0  0  0  0  0  0  0999 V3000
M  V30 BEGIN CTAB
M  V30 COUNTS 69 74 0 0 0
M  V30 BEGIN ATOM
M  V30 1 C 4.208264 -2.431234 5.128931 0
M  V30 2 C 5.491431 -2.941473 4.542829 0
M  V30 3 C 5.656560 -2.848394 3.072246 0
M  V30 4 N 5.656433 -1.607579 2.432599 0
M  V30 5 C 4.492997 -0.810614 2.337924 0
M  V30 6 C 3.331230 -1.514530 1.678260 0
M  V30 7 C 3.191153 -1.213219 0.203166 0
M  V30 8 N 3.132619 0.219314 -0.017540 0
M  V30 9 C 2.036516 1.033319 -0.446894 0
M  V30 10 C 1.994259 2.408428 -0.495348 0
M  V30 11 C 0.841444 3.021081 -0.936620 0
M  V30 12 C -0.302569 2.367052 -1.344620 0
M  V30 13 N -1.477007 3.036489 -1.791907 0
M  V30 14 C -2.567872 2.171611 -2.177782 0
M  V30 15 N -3.111189 2.306768 -3.420789 0
M  V30 16 C -4.135226 1.487829 -3.788345 0
M  V30 17 C -4.559946 0.550889 -2.841348 0
M  V30 18 C -5.587765 -0.370744 -3.036669 0
M  V30 19 C -6.479518 -0.713127 -4.049581 0
M  V30 20 C -7.373361 -1.738437 -3.813906 0
M  V30 21 N -7.388558 -2.397456 -2.632378 0
M  V30 22 C -6.518092 -2.058363 -1.652698 0
M  V30 23 C -5.604468 -1.043544 -1.833152 0
M  V30 24 N -4.695643 -0.604919 -0.970965 0
M  V30 25 C -4.289020 -0.926612 0.359068 0
M  V30 26 C -2.764570 -0.865728 0.499782 0
M  V30 27 C -2.392553 -1.905822 1.536406 0
M  V30 28 C -3.720872 -2.256975 2.175857 0
M  V30 29 C -4.630705 -2.210191 0.942863 0
M  V30 30 C -4.026536 0.399316 -1.585240 0
M  V30 31 N -3.005443 1.266863 -1.313150 0
M  V30 32 N -0.202487 1.010236 -1.275333 0
M  V30 33 C 0.898385 0.366850 -0.852374 0
M  V30 34 C 4.444361 0.706092 0.292543 0
M  V30 35 C 4.838189 0.517089 1.704150 0
M  V30 36 H 4.259222 -1.391718 5.520506 0
M  V30 37 H 3.371864 -2.472195 4.404972 0
M  V30 38 H 3.900185 -3.052437 6.019107 0
M  V30 39 H 6.386853 -2.505671 5.094091 0
M  V30 40 H 5.544269 -4.027896 4.870771 0
M  V30 41 H 6.684597 -3.310866 2.859155 0
M  V30 42 H 4.988554 -3.618586 2.557633 0
M  V30 43 H 6.134658 -1.682827 1.517049 0
M  V30 44 H 4.150201 -0.543702 3.363100 0
M  V30 45 H 2.382735 -1.234179 2.175421 0
M  V30 46 H 3.423636 -2.594338 1.772085 0
M  V30 47 H 2.221057 -1.665159 -0.084451 0
M  V30 48 H 4.036878 -1.673078 -0.351657 0
M  V30 49 H 2.876072 2.929062 -0.180461 0
M  V30 50 H 0.860671 4.112135 -0.953928 0
M  V30 51 H -1.445222 4.067667 -1.800776 0
M  V30 52 H -4.589436 1.564132 -4.759603 0
M  V30 53 H -6.393207 -0.132865 -4.956973 0
M  V30 54 H -8.064578 -1.991638 -4.620819 0
M  V30 55 H -6.570345 -2.615890 -0.730554 0
M  V30 56 H -4.704207 -0.123040 1.036007 0
M  V30 57 H -2.279938 -1.123774 -0.461955 0
M  V30 58 H -2.474674 0.110645 0.912570 0
M  V30 59 H -1.658016 -1.546716 2.280990 0
M  V30 60 H -2.026829 -2.847446 1.037832 0
M  V30 61 H -3.967349 -1.456500 2.883214 0
M  V30 62 H -3.710629 -3.270973 2.617173 0
M  V30 63 H -5.641838 -2.286308 1.404459 0
M  V30 64 H -4.324414 -3.104295 0.363908 0
M  V30 65 H 0.698071 -0.688762 -0.903073 0
M  V30 66 H 4.532490 1.804029 0.075759 0
M  V30 67 H 5.186730 0.162583 -0.362525 0
M  V30 68 H 5.964052 0.623123 1.740984 0
M  V30 69 H 4.476281 1.371439 2.334328 0
M  V30 END ATOM
M  V30 BEGIN BOND
M  V30 1 1 1 2
M  V30 2 1 2 3
M  V30 3 1 3 4
M  V30 4 1 4 5
M  V30 5 1 5 6
M  V30 6 1 6 7
M  V30 7 1 7 8
M  V30 8 1 8 9
M  V30 9 2 9 10
M  V30 10 1 10 11
M  V30 11 2 11 12
M  V30 12 1 12 13
M  V30 13 1 13 14
M  V30 14 2 14 15
M  V30 15 1 15 16
M  V30 16 2 16 17
M  V30 17 1 17 18
M  V30 18 2 18 19
M  V30 19 1 19 20
M  V30 20 2 20 21
M  V30 21 1 21 22
M  V30 22 2 22 23
M  V30 23 1 23 24
M  V30 24 1 24 25
M  V30 25 1 25 26
M  V30 26 1 26 27
M  V30 27 1 27 28
M  V30 28 1 28 29
M  V30 29 1 24 30
M  V30 30 2 30 31
M  V30 31 1 12 32
M  V30 32 2 32 33
M  V30 33 1 8 34
M  V30 34 1 34 35
M  V30 35 1 35 5
M  V30 36 1 33 9
M  V30 37 1 31 14
M  V30 38 1 30 17
M  V30 39 1 23 18
M  V30 40 1 29 25
M  V30 41 1 1 36
M  V30 42 1 1 37
M  V30 43 1 1 38
M  V30 44 1 2 39
M  V30 45 1 2 40
M  V30 46 1 3 41
M  V30 47 1 3 42
M  V30 48 1 4 43
M  V30 49 1 5 44
M  V30 50 1 6 45
M  V30 51 1 6 46
M  V30 52 1 7 47
M  V30 53 1 7 48
M  V30 54 1 10 49
M  V30 55 1 11 50
M  V30 56 1 13 51
M  V30 57 1 16 52
M  V30 58 1 19 53
M  V30 59 1 20 54
M  V30 60 1 22 55
M  V30 61 1 25 56
M  V30 62 1 26 57
M  V30 63 1 26 58
M  V30 64 1 27 59
M  V30 65 1 27 60
M  V30 66 1 28 61
M  V30 67 1 28 62
M  V30 68 1 29 63
M  V30 69 1 29 64
M  V30 70 1 33 65
M  V30 71 1 34 66
M  V30 72 1 34 67
M  V30 73 1 35 68
M  V30 74 1 35 69
M  V30 END BOND
M  V30 END CTAB
M  END
>  <Dataset>  (685) 
ChEMBL_Kinases

>  <Ligand_Instance>  (685) 
nan

>  <PDB_ID>  (685) 
nan

>  <Standardized_SMILES>  (685) 
CCCNC1CCN(c2ccc(Nc3ncc4c5ccncc5n(C5CCCC5)c4n3)nc2)CC1

>  <Name>  (685) 
nan

>  <Pocket>  (685) 
nan

>  <ATP_Site>  (685) 
nan

>  <Peripheral>  (685) 
nan

>  <Num_H_Atoms_ProtBoundConf>  (685) 
nan

>  <Num_Resolved_Atoms>  (685) 
nan

>  <Num_Not_Resolved_Atoms>  (685) 
nan

$$$$
CHEMBL3642022
     RDKit          3D

  0  0  0  0  0  0  0  0  0  0999 V3000
M  V30 BEGIN CTAB
M  V30 COUNTS 66 71 0 0 0
M  V30 BEGIN ATOM
M  V30 1 F 5.144465 -3.221592 3.375221 0
M  V30 2 C 5.673807 -1.926806 3.247623 0
M  V30 3 C 4.670023 -1.015293 2.629222 0
M  V30 4 N 5.140048 0.363353 2.467816 0
M  V30 5 C 4.061049 1.096011 1.855101 0
M  V30 6 C 3.812318 0.485848 0.482915 0
M  V30 7 C 3.241633 1.591361 -0.411472 0
M  V30 8 N 2.409068 2.389017 0.462836 0
M  V30 9 C 1.005759 2.248106 0.615964 0
M  V30 10 C 0.263214 1.474962 -0.244170 0
M  V30 11 C -1.107275 1.400646 0.049169 0
M  V30 12 C -1.745322 2.021932 1.098225 0
M  V30 13 N -3.160986 1.840308 1.302137 0
M  V30 14 C -3.769351 0.990308 0.333489 0
M  V30 15 N -4.601441 1.351859 -0.657445 0
M  V30 16 C -5.080202 0.439513 -1.526598 0
M  V30 17 C -4.679312 -0.874389 -1.354241 0
M  V30 18 C -4.960328 -2.030755 -2.035483 0
M  V30 19 C -5.755249 -2.222677 -3.124394 0
M  V30 20 C -5.864716 -3.519319 -3.617459 0
M  V30 21 N -5.188369 -4.498534 -3.000045 0
M  V30 22 C -4.407791 -4.302409 -1.929204 0
M  V30 23 C -4.260802 -3.030170 -1.392908 0
M  V30 24 N -3.557193 -2.567373 -0.347607 0
M  V30 25 C -2.691087 -3.279836 0.571814 0
M  V30 26 C -1.744207 -4.206302 -0.177478 0
M  V30 27 C -0.351859 -3.942748 0.354178 0
M  V30 28 C -0.636673 -3.279993 1.689557 0
M  V30 29 C -1.822262 -2.352748 1.375793 0
M  V30 30 C -3.824468 -1.233224 -0.333185 0
M  V30 31 N -3.372405 -0.287399 0.511548 0
M  V30 32 N -0.956759 2.780572 1.922356 0
M  V30 33 C 0.371834 2.874556 1.668496 0
M  V30 34 C 3.259248 3.344671 1.147822 0
M  V30 35 C 4.417089 2.541527 1.718132 0
M  V30 36 H 6.585571 -2.076498 2.613495 0
M  V30 37 H 6.037830 -1.615678 4.243203 0
M  V30 38 H 4.318447 -1.471590 1.691955 0
M  V30 39 H 3.774836 -0.986669 3.307505 0
M  V30 40 H 5.929572 0.285456 1.777868 0
M  V30 41 H 3.175884 0.954678 2.525671 0
M  V30 42 H 4.733847 0.078780 0.045227 0
M  V30 43 H 3.076849 -0.312794 0.563140 0
M  V30 44 H 4.057817 2.150385 -0.908044 0
M  V30 45 H 2.613088 1.126899 -1.187006 0
M  V30 46 H 0.661640 0.955880 -1.079813 0
M  V30 47 H -1.648856 0.770588 -0.676543 0
M  V30 48 H -3.620257 2.321641 2.104820 0
M  V30 49 H -5.738625 0.688978 -2.318316 0
M  V30 50 H -6.292642 -1.422144 -3.606394 0
M  V30 51 H -6.500059 -3.673704 -4.482490 0
M  V30 52 H -3.888654 -5.128975 -1.473453 0
M  V30 53 H -3.297085 -3.890487 1.237547 0
M  V30 54 H -2.004944 -5.271088 -0.019956 0
M  V30 55 H -1.785852 -4.001236 -1.257407 0
M  V30 56 H 0.209065 -4.874640 0.481422 0
M  V30 57 H 0.218906 -3.290916 -0.321634 0
M  V30 58 H 0.239932 -2.711209 1.994027 0
M  V30 59 H -0.910610 -4.039147 2.425133 0
M  V30 60 H -1.382135 -1.527440 0.775396 0
M  V30 61 H -2.249894 -2.038861 2.329759 0
M  V30 62 H 0.843511 3.504235 2.406717 0
M  V30 63 H 3.679177 3.985941 0.335368 0
M  V30 64 H 2.758602 3.927388 1.920633 0
M  V30 65 H 4.726415 2.949480 2.689857 0
M  V30 66 H 5.303911 2.615461 1.051830 0
M  V30 END ATOM
M  V30 BEGIN BOND
M  V30 1 1 1 2
M  V30 2 1 2 3
M  V30 3 1 3 4
M  V30 4 1 4 5
M  V30 5 1 5 6
M  V30 6 1 6 7
M  V30 7 1 7 8
M  V30 8 1 8 9
M  V30 9 2 9 10
M  V30 10 1 10 11
M  V30 11 2 11 12
M  V30 12 1 12 13
M  V30 13 1 13 14
M  V30 14 2 14 15
M  V30 15 1 15 16
M  V30 16 2 16 17
M  V30 17 1 17 18
M  V30 18 2 18 19
M  V30 19 1 19 20
M  V30 20 2 20 21
M  V30 21 1 21 22
M  V30 22 2 22 23
M  V30 23 1 23 24
M  V30 24 1 24 25
M  V30 25 1 25 26
M  V30 26 1 26 27
M  V30 27 1 27 28
M  V30 28 1 28 29
M  V30 29 1 24 30
M  V30 30 2 30 31
M  V30 31 1 12 32
M  V30 32 2 32 33
M  V30 33 1 8 34
M  V30 34 1 34 35
M  V30 35 1 35 5
M  V30 36 1 33 9
M  V30 37 1 31 14
M  V30 38 1 30 17
M  V30 39 1 23 18
M  V30 40 1 29 25
M  V30 41 1 2 36
M  V30 42 1 2 37
M  V30 43 1 3 38
M  V30 44 1 3 39
M  V30 45 1 4 40
M  V30 46 1 5 41
M  V30 47 1 6 42
M  V30 48 1 6 43
M  V30 49 1 7 44
M  V30 50 1 7 45
M  V30 51 1 10 46
M  V30 52 1 11 47
M  V30 53 1 13 48
M  V30 54 1 16 49
M  V30 55 1 19 50
M  V30 56 1 20 51
M  V30 57 1 22 52
M  V30 58 1 25 53
M  V30 59 1 26 54
M  V30 60 1 26 55
M  V30 61 1 27 56
M  V30 62 1 27 57
M  V30 63 1 28 58
M  V30 64 1 28 59
M  V30 65 1 29 60
M  V30 66 1 29 61
M  V30 67 1 33 62
M  V30 68 1 34 63
M  V30 69 1 34 64
M  V30 70 1 35 65
M  V30 71 1 35 66
M  V30 END BOND
M  V30 END CTAB
M  END
>  <Dataset>  (686) 
ChEMBL_Kinases

>  <Ligand_Instance>  (686) 
nan

>  <PDB_ID>  (686) 
nan

>  <Standardized_SMILES>  (686) 
FCCNC1CCN(c2ccc(Nc3ncc4c5ccncc5n(C5CCCC5)c4n3)nc2)CC1

>  <Name>  (686) 
nan

>  <Pocket>  (686) 
nan

>  <ATP_Site>  (686) 
nan

>  <Peripheral>  (686) 
nan

>  <Num_H_Atoms_ProtBoundConf>  (686) 
nan

>  <Num_Resolved_Atoms>  (686) 
nan

>  <Num_Not_Resolved_Atoms>  (686) 
nan

$$$$
CHEMBL3642023
     RDKit          3D

  0  0  0  0  0  0  0  0  0  0999 V3000
M  V30 BEGIN CTAB
M  V30 COUNTS 70 76 0 0 0
M  V30 BEGIN ATOM
M  V30 1 C 3.774367 1.548445 7.900857 0
M  V30 2 C 4.260766 0.606735 6.985241 0
M  V30 3 C 3.505730 0.433725 5.846762 0
M  V30 4 C 3.706802 -0.420178 4.752771 0
M  V30 5 C 4.663422 -1.346552 4.431278 0
M  V30 6 N 4.590738 -2.040902 3.291024 0
M  V30 7 C 3.594838 -1.880027 2.400765 0
M  V30 8 N 3.517287 -2.669196 1.222442 0
M  V30 9 C 2.683331 -2.478624 0.094651 0
M  V30 10 C 1.845773 -1.414868 -0.144263 0
M  V30 11 C 1.013421 -1.243175 -1.229024 0
M  V30 12 C 1.043452 -2.272780 -2.165122 0
M  V30 13 N 0.186102 -2.086883 -3.311264 0
M  V30 14 C -0.047455 -0.870518 -4.041571 0
M  V30 15 C -1.487304 -0.462469 -3.835334 0
M  V30 16 C -2.349588 -1.514850 -4.480122 0
M  V30 17 N -3.721514 -1.223563 -4.015047 0
M  V30 18 C -4.651634 -2.165995 -4.577272 0
M  V30 19 C -6.085526 -1.924340 -4.100064 0
M  V30 20 C -6.208357 -0.882495 -5.190671 0
M  V30 21 C -5.116022 -1.631905 -5.943173 0
M  V30 22 C -1.968152 -2.918298 -4.204313 0
M  V30 23 C -0.569352 -3.199353 -3.798333 0
M  V30 24 C 1.862208 -3.334494 -1.951861 0
M  V30 25 N 2.648294 -3.430423 -0.866942 0
M  V30 26 N 2.687336 -0.971714 2.748180 0
M  V30 27 C 2.677937 -0.232519 3.865504 0
M  V30 28 N 1.851795 0.699831 4.372108 0
M  V30 29 C 0.619643 1.201857 3.803315 0
M  V30 30 C -0.570396 0.849880 4.670878 0
M  V30 31 C -1.369782 2.118982 4.822573 0
M  V30 32 C -0.804339 3.142885 3.893978 0
M  V30 33 C 0.593072 2.669642 3.556340 0
M  V30 34 C 2.337095 1.110532 5.563050 0
M  V30 35 C 1.940170 2.022876 6.534166 0
M  V30 36 N 2.638408 2.217772 7.642316 0
M  V30 37 H 4.309111 1.750892 8.830155 0
M  V30 38 H 5.174297 0.068702 7.196240 0
M  V30 39 H 5.481113 -1.515084 5.104075 0
M  V30 40 H 4.166113 -3.488343 1.200400 0
M  V30 41 H 1.830944 -0.621043 0.582255 0
M  V30 42 H 0.391948 -0.354397 -1.316701 0
M  V30 43 H 0.650400 -0.060806 -3.762827 0
M  V30 44 H 0.090220 -1.134940 -5.130323 0
M  V30 45 H -1.702934 0.500378 -4.354491 0
M  V30 46 H -1.702109 -0.390544 -2.749082 0
M  V30 47 H -2.298816 -1.358750 -5.580709 0
M  V30 48 H -3.678859 -1.420226 -2.985469 0
M  V30 49 H -4.347122 -3.206483 -4.655156 0
M  V30 50 H -6.752965 -2.806240 -4.225551 0
M  V30 51 H -6.108804 -1.504909 -3.064934 0
M  V30 52 H -7.212965 -0.955382 -5.671547 0
M  V30 53 H -5.929207 0.131737 -4.858936 0
M  V30 54 H -5.530972 -2.406240 -6.604377 0
M  V30 55 H -4.347939 -0.997089 -6.410563 0
M  V30 56 H -2.290606 -3.572522 -5.062541 0
M  V30 57 H -2.634517 -3.280218 -3.360605 0
M  V30 58 H -0.552980 -4.056529 -3.054300 0
M  V30 59 H -0.018800 -3.628010 -4.678753 0
M  V30 60 H 1.854555 -4.113863 -2.701217 0
M  V30 61 H 0.472232 0.679902 2.832153 0
M  V30 62 H -0.249210 0.406573 5.640571 0
M  V30 63 H -1.226683 0.086201 4.214796 0
M  V30 64 H -1.392062 2.482861 5.871386 0
M  V30 65 H -2.453491 1.956376 4.574474 0
M  V30 66 H -1.437599 3.266175 2.978819 0
M  V30 67 H -0.694326 4.164421 4.351899 0
M  V30 68 H 1.380204 3.245898 4.081193 0
M  V30 69 H 0.716094 2.895137 2.457222 0
M  V30 70 H 1.034942 2.594999 6.387128 0
M  V30 END ATOM
M  V30 BEGIN BOND
M  V30 1 2 1 2
M  V30 2 1 2 3
M  V30 3 1 3 4
M  V30 4 2 4 5
M  V30 5 1 5 6
M  V30 6 2 6 7
M  V30 7 1 7 8
M  V30 8 1 8 9
M  V30 9 2 9 10
M  V30 10 1 10 11
M  V30 11 2 11 12
M  V30 12 1 12 13
M  V30 13 1 13 14
M  V30 14 1 14 15
M  V30 15 1 15 16
M  V30 16 1 16 17
M  V30 17 1 17 18
M  V30 18 1 18 19
M  V30 19 1 19 20
M  V30 20 1 20 21
M  V30 21 1 16 22
M  V30 22 1 22 23
M  V30 23 1 12 24
M  V30 24 2 24 25
M  V30 25 1 7 26
M  V30 26 2 26 27
M  V30 27 1 27 28
M  V30 28 1 28 29
M  V30 29 1 29 30
M  V30 30 1 30 31
M  V30 31 1 31 32
M  V30 32 1 32 33
M  V30 33 1 28 34
M  V30 34 1 34 35
M  V30 35 2 35 36
M  V30 36 1 36 1
M  V30 37 2 34 3
M  V30 38 1 27 4
M  V30 39 1 33 29
M  V30 40 1 25 9
M  V30 41 1 23 13
M  V30 42 1 21 18
M  V30 43 1 1 37
M  V30 44 1 2 38
M  V30 45 1 5 39
M  V30 46 1 8 40
M  V30 47 1 10 41
M  V30 48 1 11 42
M  V30 49 1 14 43
M  V30 50 1 14 44
M  V30 51 1 15 45
M  V30 52 1 15 46
M  V30 53 1 16 47
M  V30 54 1 17 48
M  V30 55 1 18 49
M  V30 56 1 19 50
M  V30 57 1 19 51
M  V30 58 1 20 52
M  V30 59 1 20 53
M  V30 60 1 21 54
M  V30 61 1 21 55
M  V30 62 1 22 56
M  V30 63 1 22 57
M  V30 64 1 23 58
M  V30 65 1 23 59
M  V30 66 1 24 60
M  V30 67 1 29 61
M  V30 68 1 30 62
M  V30 69 1 30 63
M  V30 70 1 31 64
M  V30 71 1 31 65
M  V30 72 1 32 66
M  V30 73 1 32 67
M  V30 74 1 33 68
M  V30 75 1 33 69
M  V30 76 1 35 70
M  V30 END BOND
M  V30 END CTAB
M  END
>  <Dataset>  (687) 
ChEMBL_Kinases

>  <Ligand_Instance>  (687) 
nan

>  <PDB_ID>  (687) 
nan

>  <Standardized_SMILES>  (687) 
c1cc2c3cnc(Nc4ccc(N5CCC(NC6CCC6)CC5)cn4)nc3n(C3CCCC3)c2cn1

>  <Name>  (687) 
nan

>  <Pocket>  (687) 
nan

>  <ATP_Site>  (687) 
nan

>  <Peripheral>  (687) 
nan

>  <Num_H_Atoms_ProtBoundConf>  (687) 
nan

>  <Num_Resolved_Atoms>  (687) 
nan

>  <Num_Not_Resolved_Atoms>  (687) 
nan

$$$$
CHEMBL3642024
     RDKit          3D

  0  0  0  0  0  0  0  0  0  0999 V3000
M  V30 BEGIN CTAB
M  V30 COUNTS 69 74 0 0 0
M  V30 BEGIN ATOM
M  V30 1 C 2.456375 -0.699284 4.550444 0
M  V30 2 C 2.326732 -0.274898 3.101193 0
M  V30 3 C 2.422277 -1.583143 2.297328 0
M  V30 4 N 3.419691 0.540402 2.650182 0
M  V30 5 C 3.612930 1.750048 3.395486 0
M  V30 6 C 2.408155 2.664994 3.366304 0
M  V30 7 C 2.393753 3.515624 2.113703 0
M  V30 8 N 3.090618 2.750541 1.073509 0
M  V30 9 C 2.483963 2.016517 0.006778 0
M  V30 10 C 3.097531 1.530497 -1.128108 0
M  V30 11 C 2.361678 0.830497 -2.061902 0
M  V30 12 C 1.003730 0.590377 -1.903028 0
M  V30 13 N 0.217959 -0.120201 -2.884876 0
M  V30 14 C -1.171099 -0.310454 -2.540283 0
M  V30 15 N -1.961495 0.790619 -2.496813 0
M  V30 16 C -3.263438 0.715871 -2.187579 0
M  V30 17 C -3.762613 -0.536855 -1.916170 0
M  V30 18 C -4.997074 -1.048397 -1.569335 0
M  V30 19 C -6.170468 -0.330630 -1.386863 0
M  V30 20 C -7.347460 -0.989170 -1.033584 0
M  V30 21 N -7.243578 -2.315934 -0.894048 0
M  V30 22 C -6.111903 -3.018218 -1.068664 0
M  V30 23 C -4.922864 -2.414997 -1.417909 0
M  V30 24 N -3.634898 -2.782760 -1.668035 0
M  V30 25 C -3.344992 -4.179062 -1.571469 0
M  V30 26 C -1.972249 -4.598404 -1.950639 0
M  V30 27 C -1.493256 -5.540151 -0.847366 0
M  V30 28 C -2.139900 -4.832638 0.352177 0
M  V30 29 C -3.546086 -4.647851 -0.153480 0
M  V30 30 C -2.960620 -1.658243 -1.960442 0
M  V30 31 N -1.658978 -1.550056 -2.272804 0
M  V30 32 N 0.457550 1.088881 -0.774181 0
M  V30 33 C 1.134149 1.775465 0.160791 0
M  V30 34 C 4.530667 2.848999 1.318228 0
M  V30 35 C 4.764806 2.549614 2.783439 0
M  V30 36 H 1.921770 -1.659464 4.665307 0
M  V30 37 H 3.504111 -0.804329 4.867047 0
M  V30 38 H 1.925744 0.026628 5.231573 0
M  V30 39 H 1.342306 0.164306 2.917386 0
M  V30 40 H 2.139219 -1.334269 1.261487 0
M  V30 41 H 3.500920 -1.851366 2.258088 0
M  V30 42 H 1.820424 -2.381737 2.743532 0
M  V30 43 H 4.291281 -0.004668 2.608954 0
M  V30 44 H 3.902136 1.548496 4.443408 0
M  V30 45 H 2.419703 3.371770 4.243544 0
M  V30 46 H 1.461311 2.111046 3.452700 0
M  V30 47 H 1.331083 3.669848 1.826626 0
M  V30 48 H 2.871763 4.499659 2.306931 0
M  V30 49 H 4.138717 1.734800 -1.213163 0
M  V30 50 H 2.837121 0.455844 -2.938093 0
M  V30 51 H 0.740604 -0.421288 -3.738990 0
M  V30 52 H -3.917929 1.562291 -2.141179 0
M  V30 53 H -6.200331 0.740277 -1.511476 0
M  V30 54 H -8.256636 -0.422069 -0.894211 0
M  V30 55 H -6.108498 -4.094107 -0.937371 0
M  V30 56 H -4.077925 -4.736666 -2.232727 0
M  V30 57 H -1.976073 -5.207855 -2.891751 0
M  V30 58 H -1.210861 -3.834197 -2.039520 0
M  V30 59 H -0.403140 -5.567165 -0.746172 0
M  V30 60 H -1.988690 -6.527372 -0.922596 0
M  V30 61 H -1.706922 -3.832736 0.486887 0
M  V30 62 H -2.090513 -5.474024 1.253794 0
M  V30 63 H -4.074743 -5.612962 -0.093738 0
M  V30 64 H -4.004734 -3.867805 0.488820 0
M  V30 65 H 0.471863 2.054474 0.947625 0
M  V30 66 H 4.870532 3.885823 1.136398 0
M  V30 67 H 5.079300 2.082924 0.736104 0
M  V30 68 H 5.661050 1.907492 2.885186 0
M  V30 69 H 4.915282 3.485021 3.361933 0
M  V30 END ATOM
M  V30 BEGIN BOND
M  V30 1 1 1 2
M  V30 2 1 2 3
M  V30 3 1 2 4
M  V30 4 1 4 5
M  V30 5 1 5 6
M  V30 6 1 6 7
M  V30 7 1 7 8
M  V30 8 1 8 9
M  V30 9 2 9 10
M  V30 10 1 10 11
M  V30 11 2 11 12
M  V30 12 1 12 13
M  V30 13 1 13 14
M  V30 14 2 14 15
M  V30 15 1 15 16
M  V30 16 2 16 17
M  V30 17 1 17 18
M  V30 18 2 18 19
M  V30 19 1 19 20
M  V30 20 2 20 21
M  V30 21 1 21 22
M  V30 22 2 22 23
M  V30 23 1 23 24
M  V30 24 1 24 25
M  V30 25 1 25 26
M  V30 26 1 26 27
M  V30 27 1 27 28
M  V30 28 1 28 29
M  V30 29 1 24 30
M  V30 30 2 30 31
M  V30 31 1 12 32
M  V30 32 2 32 33
M  V30 33 1 8 34
M  V30 34 1 34 35
M  V30 35 1 35 5
M  V30 36 1 33 9
M  V30 37 1 31 14
M  V30 38 1 30 17
M  V30 39 1 23 18
M  V30 40 1 29 25
M  V30 41 1 1 36
M  V30 42 1 1 37
M  V30 43 1 1 38
M  V30 44 1 2 39
M  V30 45 1 3 40
M  V30 46 1 3 41
M  V30 47 1 3 42
M  V30 48 1 4 43
M  V30 49 1 5 44
M  V30 50 1 6 45
M  V30 51 1 6 46
M  V30 52 1 7 47
M  V30 53 1 7 48
M  V30 54 1 10 49
M  V30 55 1 11 50
M  V30 56 1 13 51
M  V30 57 1 16 52
M  V30 58 1 19 53
M  V30 59 1 20 54
M  V30 60 1 22 55
M  V30 61 1 25 56
M  V30 62 1 26 57
M  V30 63 1 26 58
M  V30 64 1 27 59
M  V30 65 1 27 60
M  V30 66 1 28 61
M  V30 67 1 28 62
M  V30 68 1 29 63
M  V30 69 1 29 64
M  V30 70 1 33 65
M  V30 71 1 34 66
M  V30 72 1 34 67
M  V30 73 1 35 68
M  V30 74 1 35 69
M  V30 END BOND
M  V30 END CTAB
M  END
>  <Dataset>  (688) 
ChEMBL_Kinases

>  <Ligand_Instance>  (688) 
nan

>  <PDB_ID>  (688) 
nan

>  <Standardized_SMILES>  (688) 
CC(C)NC1CCN(c2ccc(Nc3ncc4c5ccncc5n(C5CCCC5)c4n3)nc2)CC1

>  <Name>  (688) 
nan

>  <Pocket>  (688) 
nan

>  <ATP_Site>  (688) 
nan

>  <Peripheral>  (688) 
nan

>  <Num_H_Atoms_ProtBoundConf>  (688) 
nan

>  <Num_Resolved_Atoms>  (688) 
nan

>  <Num_Not_Resolved_Atoms>  (688) 
nan

$$$$
CHEMBL3642025
     RDKit          3D

  0  0  0  0  0  0  0  0  0  0999 V3000
M  V30 BEGIN CTAB
M  V30 COUNTS 66 71 0 0 0
M  V30 BEGIN ATOM
M  V30 1 F 3.088071 -1.705608 5.876340 0
M  V30 2 C 3.799787 -0.631171 5.313566 0
M  V30 3 F 3.758532 0.361994 6.266130 0
M  V30 4 F 5.138559 -0.986288 5.169183 0
M  V30 5 C 3.161403 -0.216725 4.006136 0
M  V30 6 N 3.786789 0.855665 3.344383 0
M  V30 7 C 5.064918 0.682794 2.781493 0
M  V30 8 C 5.165737 -0.424953 1.765618 0
M  V30 9 C 4.275839 -0.179449 0.576388 0
M  V30 10 N 3.695215 1.150389 0.588580 0
M  V30 11 C 2.314491 1.384872 0.317983 0
M  V30 12 C 1.330071 0.423914 0.535629 0
M  V30 13 C -0.003164 0.618963 0.252277 0
M  V30 14 C -0.427477 1.816812 -0.276394 0
M  V30 15 N -1.801581 2.084603 -0.598763 0
M  V30 16 C -2.861694 1.147761 -0.417850 0
M  V30 17 N -3.973229 1.526405 0.256409 0
M  V30 18 C -5.007685 0.636072 0.434176 0
M  V30 19 C -4.961304 -0.638543 -0.049000 0
M  V30 20 C -5.866616 -1.686763 0.009072 0
M  V30 21 C -7.127713 -1.870517 0.548643 0
M  V30 22 C -7.750211 -3.099547 0.401636 0
M  V30 23 N -7.115514 -4.105188 -0.268866 0
M  V30 24 C -5.878852 -3.901736 -0.789078 0
M  V30 25 C -5.196652 -2.704096 -0.682092 0
M  V30 26 N -4.001287 -2.277214 -1.104960 0
M  V30 27 C -3.015849 -3.030156 -1.854613 0
M  V30 28 C -2.503720 -2.348484 -3.073163 0
M  V30 29 C -1.206118 -3.120002 -3.359682 0
M  V30 30 C -0.638070 -3.402004 -1.999598 0
M  V30 31 C -1.806910 -3.361123 -1.052091 0
M  V30 32 C -3.813508 -0.999377 -0.733047 0
M  V30 33 N -2.800742 -0.116724 -0.902646 0
M  V30 34 N 0.502170 2.760069 -0.494290 0
M  V30 35 C 1.808041 2.567086 -0.216214 0
M  V30 36 C 4.599623 2.238439 0.907195 0
M  V30 37 C 5.495056 1.952305 2.059660 0
M  V30 38 H 2.959465 -1.106671 3.356807 0
M  V30 39 H 2.131178 0.124540 4.291046 0
M  V30 40 H 3.513499 1.812689 3.603159 0
M  V30 41 H 5.812104 0.487075 3.568454 0
M  V30 42 H 6.215362 -0.439233 1.401333 0
M  V30 43 H 4.956874 -1.433106 2.154039 0
M  V30 44 H 4.820487 -0.281115 -0.386815 0
M  V30 45 H 3.446775 -0.906438 0.514016 0
M  V30 46 H 1.549072 -0.548111 0.956059 0
M  V30 47 H -0.772815 -0.131027 0.425825 0
M  V30 48 H -2.047856 3.025529 -0.994494 0
M  V30 49 H -5.881461 0.970274 0.977307 0
M  V30 50 H -7.593607 -1.033481 1.080414 0
M  V30 51 H -8.750845 -3.269973 0.820148 0
M  V30 52 H -5.428924 -4.736310 -1.311452 0
M  V30 53 H -3.480355 -4.004230 -2.168214 0
M  V30 54 H -3.186913 -2.425385 -3.936673 0
M  V30 55 H -2.189912 -1.311618 -2.877497 0
M  V30 56 H -1.434304 -4.061101 -3.861928 0
M  V30 57 H -0.546382 -2.433130 -3.943957 0
M  V30 58 H 0.146120 -2.652440 -1.743280 0
M  V30 59 H -0.131902 -4.391949 -2.020787 0
M  V30 60 H -1.628663 -2.481703 -0.371726 0
M  V30 61 H -1.922853 -4.299319 -0.469028 0
M  V30 62 H 2.556081 3.324254 -0.395143 0
M  V30 63 H 5.240756 2.388719 -0.011177 0
M  V30 64 H 4.043534 3.189035 1.079917 0
M  V30 65 H 5.372852 2.767594 2.831387 0
M  V30 66 H 6.563008 1.879853 1.811350 0
M  V30 END ATOM
M  V30 BEGIN BOND
M  V30 1 1 1 2
M  V30 2 1 2 3
M  V30 3 1 2 4
M  V30 4 1 2 5
M  V30 5 1 5 6
M  V30 6 1 6 7
M  V30 7 1 7 8
M  V30 8 1 8 9
M  V30 9 1 9 10
M  V30 10 1 10 11
M  V30 11 2 11 12
M  V30 12 1 12 13
M  V30 13 2 13 14
M  V30 14 1 14 15
M  V30 15 1 15 16
M  V30 16 2 16 17
M  V30 17 1 17 18
M  V30 18 2 18 19
M  V30 19 1 19 20
M  V30 20 2 20 21
M  V30 21 1 21 22
M  V30 22 2 22 23
M  V30 23 1 23 24
M  V30 24 2 24 25
M  V30 25 1 25 26
M  V30 26 1 26 27
M  V30 27 1 27 28
M  V30 28 1 28 29
M  V30 29 1 29 30
M  V30 30 1 30 31
M  V30 31 1 26 32
M  V30 32 2 32 33
M  V30 33 1 14 34
M  V30 34 2 34 35
M  V30 35 1 10 36
M  V30 36 1 36 37
M  V30 37 1 37 7
M  V30 38 1 35 11
M  V30 39 1 33 16
M  V30 40 1 32 19
M  V30 41 1 25 20
M  V30 42 1 31 27
M  V30 43 1 5 38
M  V30 44 1 5 39
M  V30 45 1 6 40
M  V30 46 1 7 41
M  V30 47 1 8 42
M  V30 48 1 8 43
M  V30 49 1 9 44
M  V30 50 1 9 45
M  V30 51 1 12 46
M  V30 52 1 13 47
M  V30 53 1 15 48
M  V30 54 1 18 49
M  V30 55 1 21 50
M  V30 56 1 22 51
M  V30 57 1 24 52
M  V30 58 1 27 53
M  V30 59 1 28 54
M  V30 60 1 28 55
M  V30 61 1 29 56
M  V30 62 1 29 57
M  V30 63 1 30 58
M  V30 64 1 30 59
M  V30 65 1 31 60
M  V30 66 1 31 61
M  V30 67 1 35 62
M  V30 68 1 36 63
M  V30 69 1 36 64
M  V30 70 1 37 65
M  V30 71 1 37 66
M  V30 END BOND
M  V30 END CTAB
M  END
>  <Dataset>  (689) 
ChEMBL_Kinases

>  <Ligand_Instance>  (689) 
nan

>  <PDB_ID>  (689) 
nan

>  <Standardized_SMILES>  (689) 
FC(F)(F)CNC1CCN(c2ccc(Nc3ncc4c5ccncc5n(C5CCCC5)c4n3)nc2)CC1

>  <Name>  (689) 
nan

>  <Pocket>  (689) 
nan

>  <ATP_Site>  (689) 
nan

>  <Peripheral>  (689) 
nan

>  <Num_H_Atoms_ProtBoundConf>  (689) 
nan

>  <Num_Resolved_Atoms>  (689) 
nan

>  <Num_Not_Resolved_Atoms>  (689) 
nan

$$$$
CHEMBL3642017
     RDKit          3D

  0  0  0  0  0  0  0  0  0  0999 V3000
M  V30 BEGIN CTAB
M  V30 COUNTS 71 77 0 0 0
M  V30 BEGIN ATOM
M  V30 1 O 1.397198 -1.879532 4.145499 0
M  V30 2 C 2.753409 -1.545526 4.183002 0 CFG=1
M  V30 3 C 3.600822 -2.737805 3.822118 0
M  V30 4 C 4.749832 -2.151298 3.069539 0
M  V30 5 N 4.493045 -0.758529 2.897759 0
M  V30 6 C 5.109405 -0.116761 1.793951 0
M  V30 7 C 4.749511 -0.569651 0.429282 0
M  V30 8 C 3.503391 0.015681 -0.154661 0
M  V30 9 N 3.056509 1.239912 0.475532 0
M  V30 10 C 1.674278 1.568058 0.257591 0
M  V30 11 C 0.970546 0.929593 -0.741955 0
M  V30 12 C -0.362496 1.197437 -0.981184 0
M  V30 13 C -1.058427 2.119597 -0.229264 0
M  V30 14 N -2.434406 2.383824 -0.460041 0
M  V30 15 C -3.123670 1.689926 -1.492909 0
M  V30 16 N -3.571642 2.025039 -2.739150 0
M  V30 17 C -4.190945 1.137470 -3.518164 0
M  V30 18 C -4.379038 -0.141968 -3.048678 0
M  V30 19 C -4.982168 -1.196719 -3.673908 0
M  V30 20 C -5.582849 -1.376954 -4.901162 0
M  V30 21 C -6.086386 -2.659508 -5.140412 0
M  V30 22 N -5.988964 -3.641690 -4.236250 0
M  V30 23 C -5.412941 -3.488710 -3.044989 0
M  V30 24 C -4.903176 -2.249764 -2.760759 0
M  V30 25 N -4.277431 -1.819434 -1.648854 0
M  V30 26 C -3.922928 -2.483409 -0.419877 0
M  V30 27 C -2.446795 -2.358847 -0.109583 0
M  V30 28 C -2.400462 -2.820418 1.331524 0
M  V30 29 C -3.585196 -2.080849 1.923510 0
M  V30 30 C -4.596869 -1.964747 0.801485 0
M  V30 31 C -3.945890 -0.523526 -1.803406 0
M  V30 32 N -3.334605 0.420328 -1.081453 0
M  V30 33 N -0.368626 2.740871 0.743515 0
M  V30 34 C 0.926606 2.479126 0.973713 0
M  V30 35 C 3.945918 2.060234 1.241916 0
M  V30 36 C 5.019579 1.365189 1.989696 0
M  V30 37 C 3.094279 -0.541471 3.099910 0
M  V30 38 H 1.004777 -1.611928 5.017699 0
M  V30 39 H 3.050854 -1.189831 5.195292 0
M  V30 40 H 3.038746 -3.382814 3.105156 0
M  V30 41 H 3.925085 -3.299945 4.728910 0
M  V30 42 H 5.714822 -2.224942 3.652166 0
M  V30 43 H 4.969783 -2.704127 2.126962 0
M  V30 44 H 6.216499 -0.350061 1.899086 0
M  V30 45 H 5.598069 -0.276125 -0.260475 0
M  V30 46 H 4.771513 -1.678293 0.389103 0
M  V30 47 H 3.632961 0.260590 -1.232698 0
M  V30 48 H 2.651127 -0.707954 -0.140576 0
M  V30 49 H 1.372097 0.196999 -1.407604 0
M  V30 50 H -0.957873 0.714623 -1.766886 0
M  V30 51 H -2.902245 3.090408 0.148782 0
M  V30 52 H -4.486185 1.535379 -4.465277 0
M  V30 53 H -5.665151 -0.593614 -5.626308 0
M  V30 54 H -6.576851 -2.865491 -6.103227 0
M  V30 55 H -5.346866 -4.306682 -2.327632 0
M  V30 56 H -4.117588 -3.572301 -0.497074 0
M  V30 57 H -1.836514 -3.026372 -0.762729 0
M  V30 58 H -2.065347 -1.331645 -0.116550 0
M  V30 59 H -1.448757 -2.542471 1.825814 0
M  V30 60 H -2.627811 -3.898081 1.421236 0
M  V30 61 H -4.005878 -2.634862 2.784524 0
M  V30 62 H -3.298013 -1.034327 2.195865 0
M  V30 63 H -4.929867 -0.925430 0.626680 0
M  V30 64 H -5.457609 -2.652287 1.054273 0
M  V30 65 H 1.389996 3.027578 1.775580 0
M  V30 66 H 4.409321 2.793187 0.524738 0
M  V30 67 H 3.336295 2.703016 1.918845 0
M  V30 68 H 4.890509 1.581878 3.091713 0
M  V30 69 H 6.012082 1.863589 1.766946 0
M  V30 70 H 2.826910 0.452256 3.489612 0
M  V30 71 H 2.459965 -0.804519 2.244767 0
M  V30 END ATOM
M  V30 BEGIN BOND
M  V30 1 1 1 2
M  V30 2 1 2 3
M  V30 3 1 3 4
M  V30 4 1 4 5
M  V30 5 1 5 6
M  V30 6 1 6 7
M  V30 7 1 7 8
M  V30 8 1 8 9
M  V30 9 1 9 10
M  V30 10 2 10 11
M  V30 11 1 11 12
M  V30 12 2 12 13
M  V30 13 1 13 14
M  V30 14 1 14 15
M  V30 15 2 15 16
M  V30 16 1 16 17
M  V30 17 2 17 18
M  V30 18 1 18 19
M  V30 19 2 19 20
M  V30 20 1 20 21
M  V30 21 2 21 22
M  V30 22 1 22 23
M  V30 23 2 23 24
M  V30 24 1 24 25
M  V30 25 1 25 26
M  V30 26 1 26 27
M  V30 27 1 27 28
M  V30 28 1 28 29
M  V30 29 1 29 30
M  V30 30 1 25 31
M  V30 31 2 31 32
M  V30 32 1 13 33
M  V30 33 2 33 34
M  V30 34 1 9 35
M  V30 35 1 35 36
M  V30 36 1 5 37
M  V30 37 1 37 2
M  V30 38 1 36 6
M  V30 39 1 34 10
M  V30 40 1 32 15
M  V30 41 1 31 18
M  V30 42 1 24 19
M  V30 43 1 30 26
M  V30 44 1 1 38
M  V30 45 1 2 39 CFG=1
M  V30 46 1 3 40
M  V30 47 1 3 41
M  V30 48 1 4 42
M  V30 49 1 4 43
M  V30 50 1 6 44
M  V30 51 1 7 45
M  V30 52 1 7 46
M  V30 53 1 8 47
M  V30 54 1 8 48
M  V30 55 1 11 49
M  V30 56 1 12 50
M  V30 57 1 14 51
M  V30 58 1 17 52
M  V30 59 1 20 53
M  V30 60 1 21 54
M  V30 61 1 23 55
M  V30 62 1 26 56
M  V30 63 1 27 57
M  V30 64 1 27 58
M  V30 65 1 28 59
M  V30 66 1 28 60
M  V30 67 1 29 61
M  V30 68 1 29 62
M  V30 69 1 30 63
M  V30 70 1 30 64
M  V30 71 1 34 65
M  V30 72 1 35 66
M  V30 73 1 35 67
M  V30 74 1 36 68
M  V30 75 1 36 69
M  V30 76 1 37 70
M  V30 77 1 37 71
M  V30 END BOND
M  V30 END CTAB
M  END
>  <Dataset>  (690) 
ChEMBL_Kinases

>  <Ligand_Instance>  (690) 
nan

>  <PDB_ID>  (690) 
nan

>  <Standardized_SMILES>  (690) 
O[C@H]1CCN(C2CCN(c3ccc(Nc4ncc5c6ccncc6n(C6CCCC6)c5n4)nc3)CC2)C1

>  <Name>  (690) 
nan

>  <Pocket>  (690) 
nan

>  <ATP_Site>  (690) 
nan

>  <Peripheral>  (690) 
nan

>  <Num_H_Atoms_ProtBoundConf>  (690) 
nan

>  <Num_Resolved_Atoms>  (690) 
nan

>  <Num_Not_Resolved_Atoms>  (690) 
nan

$$$$
CHEMBL4064316
     RDKit          3D

  0  0  0  0  0  0  0  0  0  0999 V3000
M  V30 BEGIN CTAB
M  V30 COUNTS 33 35 0 0 0
M  V30 BEGIN ATOM
M  V30 1 C -2.600725 -1.959465 2.805323 0
M  V30 2 C -1.740567 -2.403111 1.703799 0
M  V30 3 C -2.615035 -3.127213 0.676972 0
M  V30 4 N -0.891859 -1.430155 1.085263 0
M  V30 5 C 0.470310 -1.402238 0.972995 0
M  V30 6 C 0.919250 -0.290876 0.303224 0
M  V30 7 C 2.331777 -0.029590 0.053413 0
M  V30 8 C 3.259306 -0.208442 1.083459 0
M  V30 9 C 4.594139 0.059003 0.777303 0
M  V30 10 N 4.993184 0.474382 -0.457314 0
M  V30 11 C 4.089277 0.642470 -1.439951 0
M  V30 12 C 2.745864 0.395453 -1.207297 0
M  V30 13 C -0.221219 0.411457 -0.019407 0
M  V30 14 C -0.339707 1.607265 -0.697513 0
M  V30 15 C -1.606931 2.133493 -0.910042 0
M  V30 16 N -2.657880 1.436691 -0.435755 0
M  V30 17 C -2.514021 0.272027 0.222686 0
M  V30 18 C -1.279986 -0.302463 0.465268 0
M  V30 19 H -2.174675 -1.205888 3.494826 0
M  V30 20 H -3.629599 -1.672444 2.436887 0
M  V30 21 H -2.828977 -2.842237 3.445481 0
M  V30 22 H -1.062462 -3.195333 2.091916 0
M  V30 23 H -2.977522 -2.455441 -0.120354 0
M  V30 24 H -2.065124 -3.991920 0.225622 0
M  V30 25 H -3.446129 -3.605873 1.244475 0
M  V30 26 H 1.067661 -2.213736 1.396675 0
M  V30 27 H 2.981968 -0.535779 2.073198 0
M  V30 28 H 5.306918 -0.081826 1.580406 0
M  V30 29 H 4.381421 0.973482 -2.435466 0
M  V30 30 H 2.046435 0.542363 -2.025087 0
M  V30 31 H 0.531220 2.139439 -1.064590 0
M  V30 32 H -1.702984 3.081181 -1.447319 0
M  V30 33 H -3.422346 -0.196747 0.556017 0
M  V30 END ATOM
M  V30 BEGIN BOND
M  V30 1 1 1 2
M  V30 2 1 2 3
M  V30 3 1 2 4
M  V30 4 1 4 5
M  V30 5 2 5 6
M  V30 6 1 6 7
M  V30 7 2 7 8
M  V30 8 1 8 9
M  V30 9 2 9 10
M  V30 10 1 10 11
M  V30 11 2 11 12
M  V30 12 1 6 13
M  V30 13 2 13 14
M  V30 14 1 14 15
M  V30 15 2 15 16
M  V30 16 1 16 17
M  V30 17 2 17 18
M  V30 18 1 18 4
M  V30 19 1 12 7
M  V30 20 1 18 13
M  V30 21 1 1 19
M  V30 22 1 1 20
M  V30 23 1 1 21
M  V30 24 1 2 22
M  V30 25 1 3 23
M  V30 26 1 3 24
M  V30 27 1 3 25
M  V30 28 1 5 26
M  V30 29 1 8 27
M  V30 30 1 9 28
M  V30 31 1 11 29
M  V30 32 1 12 30
M  V30 33 1 14 31
M  V30 34 1 15 32
M  V30 35 1 17 33
M  V30 END BOND
M  V30 END CTAB
M  END
>  <Dataset>  (691) 
ChEMBL_Kinases

>  <Ligand_Instance>  (691) 
nan

>  <PDB_ID>  (691) 
nan

>  <Standardized_SMILES>  (691) 
CC(C)n1cc(-c2ccncc2)c2ccncc21

>  <Name>  (691) 
nan

>  <Pocket>  (691) 
nan

>  <ATP_Site>  (691) 
nan

>  <Peripheral>  (691) 
nan

>  <Num_H_Atoms_ProtBoundConf>  (691) 
nan

>  <Num_Resolved_Atoms>  (691) 
nan

>  <Num_Not_Resolved_Atoms>  (691) 
nan

$$$$
CHEMBL3917542
     RDKit          3D

  0  0  0  0  0  0  0  0  0  0999 V3000
M  V30 BEGIN CTAB
M  V30 COUNTS 30 32 0 0 0
M  V30 BEGIN ATOM
M  V30 1 N -1.551000 -1.296072 4.943045 0
M  V30 2 C -1.292289 -2.473334 4.187913 0
M  V30 3 O -1.684662 -3.337604 5.014175 0
M  V30 4 C -0.732908 -2.600604 2.846305 0
M  V30 5 C -0.375336 -1.485944 2.132702 0
M  V30 6 C 0.139694 -1.726552 0.882605 0
M  V30 7 C 0.547733 -0.598535 0.050952 0
M  V30 8 C 0.485172 0.744852 0.361016 0
M  V30 9 N 0.951688 1.500210 -0.654149 0
M  V30 10 C 1.084601 2.848400 -0.806973 0
M  V30 11 C 1.613471 3.309087 -2.005455 0
M  V30 12 Cl 1.782956 5.035534 -2.199453 0
M  V30 13 C 1.987788 2.422920 -2.999642 0
M  V30 14 C 1.845359 1.059637 -2.826072 0
M  V30 15 C 1.310510 0.621127 -1.610746 0
M  V30 16 N 1.069481 -0.639214 -1.191002 0
M  V30 17 C 0.285664 -3.003348 0.382797 0
M  V30 18 C -0.090368 -4.116286 1.140376 0
M  V30 19 C -0.618781 -3.906789 2.418458 0
M  V30 20 O -0.991176 -5.002336 3.169509 0
M  V30 21 H -1.226655 -0.306353 5.002520 0
M  V30 22 H -1.231639 -0.323691 5.000738 0
M  V30 23 H -0.504870 -0.509557 2.557374 0
M  V30 24 H 0.114943 1.139339 1.286317 0
M  V30 25 H 0.762701 3.460561 0.029945 0
M  V30 26 H 2.400675 2.814038 -3.931505 0
M  V30 27 H 2.131923 0.353426 -3.590533 0
M  V30 28 H 0.686591 -3.230615 -0.595157 0
M  V30 29 H 0.008105 -5.134642 0.784297 0
M  V30 30 H -1.706497 -5.634796 2.802549 0
M  V30 END ATOM
M  V30 BEGIN BOND
M  V30 1 1 1 2
M  V30 2 2 2 3
M  V30 3 1 2 4
M  V30 4 2 4 5
M  V30 5 1 5 6
M  V30 6 1 6 7
M  V30 7 2 7 8
M  V30 8 1 8 9
M  V30 9 1 9 10
M  V30 10 2 10 11
M  V30 11 1 11 12
M  V30 12 1 11 13
M  V30 13 2 13 14
M  V30 14 1 14 15
M  V30 15 2 15 16
M  V30 16 2 6 17
M  V30 17 1 17 18
M  V30 18 2 18 19
M  V30 19 1 19 20
M  V30 20 1 19 4
M  V30 21 1 16 7
M  V30 22 1 15 9
M  V30 23 1 1 21
M  V30 24 1 1 22
M  V30 25 1 5 23
M  V30 26 1 8 24
M  V30 27 1 10 25
M  V30 28 1 13 26
M  V30 29 1 14 27
M  V30 30 1 17 28
M  V30 31 1 18 29
M  V30 32 1 20 30
M  V30 END BOND
M  V30 END CTAB
M  END
>  <Dataset>  (692) 
ChEMBL_Kinases

>  <Ligand_Instance>  (692) 
nan

>  <PDB_ID>  (692) 
nan

>  <Standardized_SMILES>  (692) 
NC(=O)c1cc(-c2cn3cc(Cl)ccc3n2)ccc1O

>  <Name>  (692) 
nan

>  <Pocket>  (692) 
nan

>  <ATP_Site>  (692) 
nan

>  <Peripheral>  (692) 
nan

>  <Num_H_Atoms_ProtBoundConf>  (692) 
nan

>  <Num_Resolved_Atoms>  (692) 
nan

>  <Num_Not_Resolved_Atoms>  (692) 
nan

$$$$
CHEMBL3918714
     RDKit          3D

  0  0  0  0  0  0  0  0  0  0999 V3000
M  V30 BEGIN CTAB
M  V30 COUNTS 49 52 0 0 0
M  V30 BEGIN ATOM
M  V30 1 C 0.972673 -5.568860 1.125250 0
M  V30 2 C 1.288615 -4.123864 0.936009 0
M  V30 3 N 2.574963 -3.753139 0.832147 0
M  V30 4 C 2.828135 -2.442568 0.662332 0
M  V30 5 C 4.176834 -2.135385 0.562966 0
M  V30 6 C 4.516148 -0.809480 0.387064 0
M  V30 7 C 3.501440 0.134187 0.319912 0
M  V30 8 C 2.167841 -0.201907 0.422109 0
M  V30 9 C 1.186909 0.871440 0.338634 0
M  V30 10 C -0.186306 0.902607 0.406516 0
M  V30 11 C -0.681380 2.182496 0.273810 0
M  V30 12 C 0.443601 2.964066 0.118251 0
M  V30 13 N 1.522051 2.162354 0.161243 0
M  V30 14 C -0.041636 4.362463 -0.029378 0 CFG=2
M  V30 15 C 0.434255 5.219898 1.142081 0
M  V30 16 N -1.465098 4.295447 0.053372 0
M  V30 17 C -1.918640 2.947304 0.243899 0
M  V30 18 O -3.097249 2.565594 0.352769 0
M  V30 19 C 1.806315 -1.518766 0.597789 0
M  V30 20 N 0.523242 -1.899200 0.702575 0
M  V30 21 C 0.237619 -3.201076 0.872875 0
M  V30 22 N -1.102597 -3.719089 0.998257 0
M  V30 23 C -2.298849 -2.903260 0.953220 0
M  V30 24 C -3.558423 -3.764321 1.136341 0
M  V30 25 C -2.347653 -1.884320 2.052196 0
M  V30 26 C -2.370812 -2.194440 -0.386362 0
M  V30 27 H 1.885236 -6.159499 1.179832 0
M  V30 28 H 0.350598 -5.694037 2.047867 0
M  V30 29 H 0.358731 -5.885845 0.267213 0
M  V30 30 H 4.954056 -2.885288 0.617755 0
M  V30 31 H 5.562120 -0.560046 0.308528 0
M  V30 32 H 3.885474 1.137831 0.181032 0
M  V30 33 H -0.794069 0.031806 0.546803 0
M  V30 34 H 2.477477 2.592128 0.058275 0
M  V30 35 H 0.337009 4.772162 -0.984188 0
M  V30 36 H 0.088583 6.251011 0.896245 0
M  V30 37 H 1.517761 5.185206 1.291722 0
M  V30 38 H -0.050288 4.828621 2.058460 0
M  V30 39 H -2.053474 5.160998 -0.022904 0
M  V30 40 H -1.248142 -4.725551 1.128519 0
M  V30 41 H -3.541206 -4.045519 2.209534 0
M  V30 42 H -4.416389 -3.130125 0.879563 0
M  V30 43 H -3.510367 -4.630347 0.472444 0
M  V30 44 H -2.851051 -2.325810 2.958677 0
M  V30 45 H -1.350515 -1.482620 2.324082 0
M  V30 46 H -2.978440 -1.030105 1.723660 0
M  V30 47 H -2.733966 -1.144166 -0.248321 0
M  V30 48 H -3.071943 -2.707280 -1.102276 0
M  V30 49 H -1.336294 -2.149152 -0.782800 0
M  V30 END ATOM
M  V30 BEGIN BOND
M  V30 1 1 1 2
M  V30 2 2 2 3
M  V30 3 1 3 4
M  V30 4 2 4 5
M  V30 5 1 5 6
M  V30 6 2 6 7
M  V30 7 1 7 8
M  V30 8 1 8 9
M  V30 9 2 9 10
M  V30 10 1 10 11
M  V30 11 2 11 12
M  V30 12 1 12 13
M  V30 13 1 12 14
M  V30 14 1 14 15
M  V30 15 1 14 16
M  V30 16 1 16 17
M  V30 17 2 17 18
M  V30 18 2 8 19
M  V30 19 1 19 20
M  V30 20 2 20 21
M  V30 21 1 21 22
M  V30 22 1 22 23
M  V30 23 1 23 24
M  V30 24 1 23 25
M  V30 25 1 23 26
M  V30 26 1 21 2
M  V30 27 1 19 4
M  V30 28 1 13 9
M  V30 29 1 17 11
M  V30 30 1 1 27
M  V30 31 1 1 28
M  V30 32 1 1 29
M  V30 33 1 5 30
M  V30 34 1 6 31
M  V30 35 1 7 32
M  V30 36 1 10 33
M  V30 37 1 13 34
M  V30 38 1 14 35 CFG=3
M  V30 39 1 15 36
M  V30 40 1 15 37
M  V30 41 1 15 38
M  V30 42 1 16 39
M  V30 43 1 22 40
M  V30 44 1 24 41
M  V30 45 1 24 42
M  V30 46 1 24 43
M  V30 47 1 25 44
M  V30 48 1 25 45
M  V30 49 1 25 46
M  V30 50 1 26 47
M  V30 51 1 26 48
M  V30 52 1 26 49
M  V30 END BOND
M  V30 END CTAB
M  END
>  <Dataset>  (693) 
ChEMBL_Kinases

>  <Ligand_Instance>  (693) 
nan

>  <PDB_ID>  (693) 
nan

>  <Standardized_SMILES>  (693) 
Cc1nc2cccc(-c3cc4c([nH]3)[C@H](C)NC4=O)c2nc1NC(C)(C)C

>  <Name>  (693) 
nan

>  <Pocket>  (693) 
nan

>  <ATP_Site>  (693) 
nan

>  <Peripheral>  (693) 
nan

>  <Num_H_Atoms_ProtBoundConf>  (693) 
nan

>  <Num_Resolved_Atoms>  (693) 
nan

>  <Num_Not_Resolved_Atoms>  (693) 
nan

$$$$
CHEMBL4064277
     RDKit          3D

  0  0  0  0  0  0  0  0  0  0999 V3000
M  V30 BEGIN CTAB
M  V30 COUNTS 43 45 0 0 0
M  V30 BEGIN ATOM
M  V30 1 O 1.493975 -2.087762 2.131685 0
M  V30 2 C 0.465502 -2.459006 1.508876 0
M  V30 3 N 0.272152 -1.949847 0.217184 0
M  V30 4 C 1.325055 -1.065400 -0.168558 0
M  V30 5 C 2.475337 -1.493684 -0.815130 0
M  V30 6 C 3.460929 -0.586971 -1.163549 0
M  V30 7 C 4.689698 -1.093511 -1.862136 0
M  V30 8 F 5.013323 -2.371914 -1.463205 0
M  V30 9 F 5.749825 -0.231051 -1.664011 0
M  V30 10 F 4.470869 -1.162426 -3.229106 0
M  V30 11 C 3.274207 0.745237 -0.854788 0
M  V30 12 C 2.123287 1.178220 -0.207145 0
M  V30 13 C 1.144727 0.257394 0.135469 0
M  V30 14 N 0.026252 0.842727 0.791407 0
M  V30 15 C -1.349145 0.808947 0.323810 0
M  V30 16 C -1.581416 2.226269 -0.210994 0
M  V30 17 C -1.317874 3.266483 0.813205 0
M  V30 18 C -0.648575 2.837790 2.067213 0
M  V30 19 C 0.117692 1.565682 2.041103 0
M  V30 20 C -0.438530 -3.386218 2.180499 0
M  V30 21 C -0.111799 -3.799742 3.455810 0
M  V30 22 C -0.984717 -4.679085 4.071942 0
M  V30 23 N -2.113724 -5.133861 3.484815 0
M  V30 24 C -2.428753 -4.731332 2.247449 0
M  V30 25 C -1.591050 -3.849943 1.580090 0
M  V30 26 H -0.569316 -2.238548 -0.322937 0
M  V30 27 H 2.534847 -2.564897 -1.017903 0
M  V30 28 H 4.077248 1.409996 -1.150613 0
M  V30 29 H 2.053302 2.249643 0.000910 0
M  V30 30 H -2.075465 0.636017 1.119966 0
M  V30 31 H -1.473205 0.133793 -0.545814 0
M  V30 32 H -0.884707 2.335625 -1.075209 0
M  V30 33 H -2.591068 2.284975 -0.632035 0
M  V30 34 H -2.309151 3.745277 1.062577 0
M  V30 35 H -0.757829 4.096034 0.327817 0
M  V30 36 H 0.040066 3.649230 2.399806 0
M  V30 37 H -1.412474 2.766231 2.885174 0
M  V30 38 H -0.239895 0.841787 2.816260 0
M  V30 39 H 1.198757 1.712665 2.254271 0
M  V30 40 H 0.772688 -3.463389 3.956169 0
M  V30 41 H -0.728792 -5.008694 5.082424 0
M  V30 42 H -3.335239 -5.077730 1.738031 0
M  V30 43 H -1.862048 -3.534391 0.577963 0
M  V30 END ATOM
M  V30 BEGIN BOND
M  V30 1 2 1 2
M  V30 2 1 2 3
M  V30 3 1 3 4
M  V30 4 2 4 5
M  V30 5 1 5 6
M  V30 6 1 6 7
M  V30 7 1 7 8
M  V30 8 1 7 9
M  V30 9 1 7 10
M  V30 10 2 6 11
M  V30 11 1 11 12
M  V30 12 2 12 13
M  V30 13 1 13 14
M  V30 14 1 14 15
M  V30 15 1 15 16
M  V30 16 1 16 17
M  V30 17 1 17 18
M  V30 18 1 18 19
M  V30 19 1 2 20
M  V30 20 2 20 21
M  V30 21 1 21 22
M  V30 22 2 22 23
M  V30 23 1 23 24
M  V30 24 2 24 25
M  V30 25 1 13 4
M  V30 26 1 19 14
M  V30 27 1 25 20
M  V30 28 1 3 26
M  V30 29 1 5 27
M  V30 30 1 11 28
M  V30 31 1 12 29
M  V30 32 1 15 30
M  V30 33 1 15 31
M  V30 34 1 16 32
M  V30 35 1 16 33
M  V30 36 1 17 34
M  V30 37 1 17 35
M  V30 38 1 18 36
M  V30 39 1 18 37
M  V30 40 1 19 38
M  V30 41 1 19 39
M  V30 42 1 21 40
M  V30 43 1 22 41
M  V30 44 1 24 42
M  V30 45 1 25 43
M  V30 END BOND
M  V30 END CTAB
M  END
>  <Dataset>  (694) 
ChEMBL_Kinases

>  <Ligand_Instance>  (694) 
nan

>  <PDB_ID>  (694) 
nan

>  <Standardized_SMILES>  (694) 
O=C(Nc1cc(C(F)(F)F)ccc1N1CCCCC1)c1ccncc1

>  <Name>  (694) 
nan

>  <Pocket>  (694) 
nan

>  <ATP_Site>  (694) 
nan

>  <Peripheral>  (694) 
nan

>  <Num_H_Atoms_ProtBoundConf>  (694) 
nan

>  <Num_Resolved_Atoms>  (694) 
nan

>  <Num_Not_Resolved_Atoms>  (694) 
nan

$$$$
CHEMBL3919646
     RDKit          3D

  0  0  0  0  0  0  0  0  0  0999 V3000
M  V30 BEGIN CTAB
M  V30 COUNTS 52 56 0 0 0
M  V30 BEGIN ATOM
M  V30 1 N 3.094517 -2.231222 1.854298 0
M  V30 2 C 3.112650 -1.484186 3.101699 0 CFG=1
M  V30 3 C 4.397999 -0.785753 3.376492 0
M  V30 4 C 4.277885 0.707992 3.403177 0
M  V30 5 C 3.583317 1.298347 2.210245 0
M  V30 6 N 2.403786 0.473887 1.909024 0
M  V30 7 C 1.920812 0.746709 0.599860 0
M  V30 8 C 2.797585 0.752476 -0.477991 0
M  V30 9 C 2.405136 0.978745 -1.779668 0
M  V30 10 N 1.125835 1.207352 -2.058317 0
M  V30 11 C 0.214795 1.215374 -1.051700 0
M  V30 12 C 0.607066 0.990050 0.248904 0
M  V30 13 N -0.376325 1.015525 1.247217 0
M  V30 14 C -1.779319 1.241626 1.227590 0
M  V30 15 N -2.502055 2.268271 1.740688 0
M  V30 16 C -3.817884 2.069272 1.470962 0
M  V30 17 C -3.916504 0.881263 0.767262 0
M  V30 18 C -5.035735 0.243365 0.257518 0
M  V30 19 C -4.812039 -0.939552 -0.414065 0
M  V30 20 C -3.526375 -1.425532 -0.548412 0
M  V30 21 C -3.111740 -2.643364 -1.233026 0
M  V30 22 C -2.826415 -2.560500 -2.589606 0
M  V30 23 F -2.928411 -1.379311 -3.290413 0
M  V30 24 C -2.419652 -3.606329 -3.390353 0
M  V30 25 C -2.300230 -4.835353 -2.731070 0
M  V30 26 C -2.574024 -4.980353 -1.365496 0
M  V30 27 C -2.979524 -3.888317 -0.614022 0
M  V30 28 F -3.255685 -3.985881 0.698698 0
M  V30 29 N -2.545442 -0.720569 -0.014646 0
M  V30 30 N -2.650040 0.417233 0.645231 0
M  V30 31 C 2.011258 -0.421644 2.973343 0
M  V30 32 H 3.515799 -3.187917 1.976987 0
M  V30 33 H 2.064073 -2.385995 1.639566 0
M  V30 34 H 2.773498 -2.136358 3.961035 0
M  V30 35 H 4.706218 -1.076422 4.420189 0
M  V30 36 H 5.192115 -1.148536 2.706543 0
M  V30 37 H 3.737354 0.980594 4.357171 0
M  V30 38 H 5.322300 1.097178 3.534488 0
M  V30 39 H 3.139361 2.270362 2.584033 0
M  V30 40 H 4.222752 1.487389 1.354554 0
M  V30 41 H 3.857527 0.573602 -0.385620 0
M  V30 42 H 3.106979 0.980340 -2.619345 0
M  V30 43 H -0.809220 1.401855 -1.316166 0
M  V30 44 H -0.177490 0.863995 2.266819 0
M  V30 45 H -4.601715 2.760759 1.782447 0
M  V30 46 H -6.041635 0.627256 0.364990 0
M  V30 47 H -5.594849 -1.538382 -0.860823 0
M  V30 48 H -2.199025 -3.544609 -4.433052 0
M  V30 49 H -1.979105 -5.717490 -3.306317 0
M  V30 50 H -2.457901 -5.968842 -0.908308 0
M  V30 51 H 1.889840 0.157848 3.918703 0
M  V30 52 H 1.102221 -1.012794 2.772371 0
M  V30 END ATOM
M  V30 BEGIN BOND
M  V30 1 1 1 2
M  V30 2 1 2 3
M  V30 3 1 3 4
M  V30 4 1 4 5
M  V30 5 1 5 6
M  V30 6 1 6 7
M  V30 7 2 7 8
M  V30 8 1 8 9
M  V30 9 2 9 10
M  V30 10 1 10 11
M  V30 11 2 11 12
M  V30 12 1 12 13
M  V30 13 1 13 14
M  V30 14 2 14 15
M  V30 15 1 15 16
M  V30 16 2 16 17
M  V30 17 1 17 18
M  V30 18 2 18 19
M  V30 19 1 19 20
M  V30 20 1 20 21
M  V30 21 2 21 22
M  V30 22 1 22 23
M  V30 23 1 22 24
M  V30 24 2 24 25
M  V30 25 1 25 26
M  V30 26 2 26 27
M  V30 27 1 27 28
M  V30 28 2 20 29
M  V30 29 1 29 30
M  V30 30 1 6 31
M  V30 31 1 31 2
M  V30 32 1 12 7
M  V30 33 1 30 14
M  V30 34 1 30 17
M  V30 35 1 27 21
M  V30 36 1 1 32
M  V30 37 1 1 33
M  V30 38 1 2 34 CFG=1
M  V30 39 1 3 35
M  V30 40 1 3 36
M  V30 41 1 4 37
M  V30 42 1 4 38
M  V30 43 1 5 39
M  V30 44 1 5 40
M  V30 45 1 8 41
M  V30 46 1 9 42
M  V30 47 1 11 43
M  V30 48 1 13 44
M  V30 49 1 16 45
M  V30 50 1 18 46
M  V30 51 1 19 47
M  V30 52 1 24 48
M  V30 53 1 25 49
M  V30 54 1 26 50
M  V30 55 1 31 51
M  V30 56 1 31 52
M  V30 END BOND
M  V30 END CTAB
M  END
>  <Dataset>  (695) 
ChEMBL_Kinases

>  <Ligand_Instance>  (695) 
nan

>  <PDB_ID>  (695) 
nan

>  <Standardized_SMILES>  (695) 
N[C@H]1CCCN(c2ccncc2Nc2ncc3ccc(-c4c(F)cccc4F)nn23)C1

>  <Name>  (695) 
nan

>  <Pocket>  (695) 
nan

>  <ATP_Site>  (695) 
nan

>  <Peripheral>  (695) 
nan

>  <Num_H_Atoms_ProtBoundConf>  (695) 
nan

>  <Num_Resolved_Atoms>  (695) 
nan

>  <Num_Not_Resolved_Atoms>  (695) 
nan

$$$$
CHEMBL3919725
     RDKit          3D

  0  0  0  0  0  0  0  0  0  0999 V3000
M  V30 BEGIN CTAB
M  V30 COUNTS 54 58 0 0 0
M  V30 BEGIN ATOM
M  V30 1 C 2.448494 -4.039404 -2.455024 0
M  V30 2 C 3.229679 -3.842888 -1.195905 0 CFG=1
M  V30 3 N 4.650869 -3.982263 -1.391693 0
M  V30 4 C 5.306853 -2.782297 -1.062299 0
M  V30 5 O 6.540604 -2.485757 -1.091959 0
M  V30 6 C 4.287968 -1.826933 -0.640295 0
M  V30 7 C 4.038257 -0.547324 -0.191468 0
M  V30 8 C 2.685689 -0.365736 0.008341 0
M  V30 9 C 2.107766 0.884132 0.480783 0
M  V30 10 C 2.897250 1.980913 0.762848 0
M  V30 11 C 2.407468 3.187028 1.211377 0
M  V30 12 C 1.050116 3.337231 1.399294 0
M  V30 13 C 0.238066 2.282343 1.133330 0
M  V30 14 C -1.123504 2.391254 1.307720 0
M  V30 15 O -1.560540 3.472767 1.709784 0
M  V30 16 N -2.008696 1.419497 1.076432 0
M  V30 17 C -3.422391 1.399400 1.212623 0
M  V30 18 C -4.233061 2.548493 1.693942 0
M  V30 19 C -3.908658 1.501084 2.691056 0
M  V30 20 C -1.419500 0.266919 0.635576 0
M  V30 21 N -2.192627 -0.914897 0.325585 0
M  V30 22 C -2.706822 -2.112769 0.922232 0
M  V30 23 C -3.461261 -2.901825 -0.097471 0
M  V30 24 C -1.499372 -2.965101 1.320920 0
M  V30 25 C -3.523070 -1.826968 2.160482 0
M  V30 26 N -0.104099 0.094547 0.444849 0
M  V30 27 C 0.762821 1.088259 0.685211 0
M  V30 28 N 2.139912 -1.544918 -0.325044 0
M  V30 29 C 3.057540 -2.443334 -0.716801 0
M  V30 30 H 1.500677 -3.434449 -2.384209 0
M  V30 31 H 3.010314 -3.742707 -3.339942 0
M  V30 32 H 2.091409 -5.093366 -2.473125 0
M  V30 33 H 2.901506 -4.552553 -0.381907 0
M  V30 34 H 5.113568 -4.858459 -1.731635 0
M  V30 35 H 4.829991 0.194010 -0.028102 0
M  V30 36 H 3.975942 1.923258 0.633949 0
M  V30 37 H 3.080094 4.008547 1.414309 0
M  V30 38 H 0.664308 4.268192 1.746397 0
M  V30 39 H -3.968871 0.607279 0.645966 0
M  V30 40 H -3.822634 3.553603 1.875068 0
M  V30 41 H -5.313526 2.583230 1.419738 0
M  V30 42 H -3.146392 1.701991 3.456246 0
M  V30 43 H -4.665840 0.774735 3.025893 0
M  V30 44 H -2.379221 -0.708288 -0.701110 0
M  V30 45 H -4.339631 -3.425576 0.303281 0
M  V30 46 H -2.841214 -3.678166 -0.609368 0
M  V30 47 H -3.860704 -2.253924 -0.929577 0
M  V30 48 H -1.005446 -2.505208 2.194689 0
M  V30 49 H -1.836436 -3.982628 1.645490 0
M  V30 50 H -0.757090 -3.014278 0.504789 0
M  V30 51 H -2.924748 -1.225823 2.872338 0
M  V30 52 H -3.735033 -2.803747 2.625982 0
M  V30 53 H -4.491387 -1.370281 1.900629 0
M  V30 54 H 1.125570 -1.760297 -0.291520 0
M  V30 END ATOM
M  V30 BEGIN BOND
M  V30 1 1 1 2
M  V30 2 1 2 3
M  V30 3 1 3 4
M  V30 4 2 4 5
M  V30 5 1 4 6
M  V30 6 1 6 7
M  V30 7 2 7 8
M  V30 8 1 8 9
M  V30 9 2 9 10
M  V30 10 1 10 11
M  V30 11 2 11 12
M  V30 12 1 12 13
M  V30 13 1 13 14
M  V30 14 2 14 15
M  V30 15 1 14 16
M  V30 16 1 16 17
M  V30 17 1 17 18
M  V30 18 1 18 19
M  V30 19 1 16 20
M  V30 20 1 20 21
M  V30 21 1 21 22
M  V30 22 1 22 23
M  V30 23 1 22 24
M  V30 24 1 22 25
M  V30 25 2 20 26
M  V30 26 1 26 27
M  V30 27 1 8 28
M  V30 28 1 28 29
M  V30 29 1 29 2
M  V30 30 2 29 6
M  V30 31 1 27 9
M  V30 32 2 27 13
M  V30 33 1 19 17
M  V30 34 1 1 30
M  V30 35 1 1 31
M  V30 36 1 1 32
M  V30 37 1 2 33 CFG=1
M  V30 38 1 3 34
M  V30 39 1 7 35
M  V30 40 1 10 36
M  V30 41 1 11 37
M  V30 42 1 12 38
M  V30 43 1 17 39
M  V30 44 1 18 40
M  V30 45 1 18 41
M  V30 46 1 19 42
M  V30 47 1 19 43
M  V30 48 1 21 44
M  V30 49 1 23 45
M  V30 50 1 23 46
M  V30 51 1 23 47
M  V30 52 1 24 48
M  V30 53 1 24 49
M  V30 54 1 24 50
M  V30 55 1 25 51
M  V30 56 1 25 52
M  V30 57 1 25 53
M  V30 58 1 28 54
M  V30 END BOND
M  V30 END CTAB
M  END
>  <Dataset>  (696) 
ChEMBL_Kinases

>  <Ligand_Instance>  (696) 
nan

>  <PDB_ID>  (696) 
nan

>  <Standardized_SMILES>  (696) 
C[C@H]1NC(=O)c2cc(-c3cccc4c(=O)n(C5CC5)c(NC(C)(C)C)nc34)[nH]c21

>  <Name>  (696) 
nan

>  <Pocket>  (696) 
nan

>  <ATP_Site>  (696) 
nan

>  <Peripheral>  (696) 
nan

>  <Num_H_Atoms_ProtBoundConf>  (696) 
nan

>  <Num_Resolved_Atoms>  (696) 
nan

>  <Num_Not_Resolved_Atoms>  (696) 
nan

$$$$
CHEMBL4064068
     RDKit          3D

  0  0  0  0  0  0  0  0  0  0999 V3000
M  V30 BEGIN CTAB
M  V30 COUNTS 48 52 0 0 0
M  V30 BEGIN ATOM
M  V30 1 O -1.466008 -3.279592 4.004374 0
M  V30 2 C -0.966883 -2.947090 2.888190 0
M  V30 3 C -0.868335 -1.496220 2.816607 0
M  V30 4 N 0.320531 -0.913077 2.611552 0
M  V30 5 C 0.487525 0.420980 2.537199 0
M  V30 6 N 1.846644 0.800366 2.310447 0
M  V30 7 C 1.966513 0.808784 0.872176 0
M  V30 8 C 1.850913 1.782487 -0.096175 0
M  V30 9 C 2.067391 1.188725 -1.320232 0
M  V30 10 C 2.037802 1.863453 -2.637044 0
M  V30 11 C 2.500544 3.259915 -2.818834 0
M  V30 12 C 1.017607 2.995265 -2.753435 0
M  V30 13 N 2.310554 -0.118526 -1.105401 0
M  V30 14 N 2.247991 -0.333782 0.202717 0
M  V30 15 C -0.626022 1.219868 2.680344 0
M  V30 16 C -0.361927 2.574975 2.591406 0
M  V30 17 C -1.470761 3.413688 2.732677 0
M  V30 18 Cl -1.292275 5.162369 2.646979 0
M  V30 19 C -2.722998 2.860015 2.945339 0
M  V30 20 C -2.926896 1.499417 3.025332 0
M  V30 21 C -1.858991 0.643358 2.891401 0
M  V30 22 N -1.957051 -0.688477 2.955362 0
M  V30 23 N -0.545385 -3.800758 1.825332 0
M  V30 24 C 0.026580 -3.392555 0.544464 0
M  V30 25 C -0.560047 -4.170573 -0.596961 0
M  V30 26 N -1.747743 -4.920192 -0.166176 0
M  V30 27 C -1.233805 -5.924040 0.752562 0
M  V30 28 C -0.656295 -5.238623 1.943019 0
M  V30 29 H 2.515157 1.002229 3.091537 0
M  V30 30 H 1.630829 2.787752 0.161961 0
M  V30 31 H 2.136954 1.190407 -3.531249 0
M  V30 32 H 2.837771 3.541387 -3.837364 0
M  V30 33 H 3.000494 3.835082 -2.024684 0
M  V30 34 H 0.383108 3.001663 -3.638545 0
M  V30 35 H 0.565546 3.383494 -1.821659 0
M  V30 36 H 2.514766 -0.876764 -1.788005 0
M  V30 37 H 0.623929 2.972442 2.427414 0
M  V30 38 H -3.614902 3.477965 3.063618 0
M  V30 39 H -3.905101 1.049091 3.195599 0
M  V30 40 H -0.277117 -2.326246 0.426829 0
M  V30 41 H 1.123545 -3.519966 0.546740 0
M  V30 42 H -0.896502 -3.479802 -1.390467 0
M  V30 43 H 0.190437 -4.858215 -1.059023 0
M  V30 44 H -2.100554 -5.372679 -1.045420 0
M  V30 45 H -0.437455 -6.534029 0.266506 0
M  V30 46 H -2.058683 -6.588653 1.100752 0
M  V30 47 H -1.259816 -5.442080 2.866415 0
M  V30 48 H 0.352447 -5.680448 2.200549 0
M  V30 END ATOM
M  V30 BEGIN BOND
M  V30 1 2 1 2
M  V30 2 1 2 3
M  V30 3 2 3 4
M  V30 4 1 4 5
M  V30 5 1 5 6
M  V30 6 1 6 7
M  V30 7 1 7 8
M  V30 8 2 8 9
M  V30 9 1 9 10
M  V30 10 1 10 11
M  V30 11 1 11 12
M  V30 12 1 9 13
M  V30 13 1 13 14
M  V30 14 2 5 15
M  V30 15 1 15 16
M  V30 16 2 16 17
M  V30 17 1 17 18
M  V30 18 1 17 19
M  V30 19 2 19 20
M  V30 20 1 20 21
M  V30 21 2 21 22
M  V30 22 1 2 23
M  V30 23 1 23 24
M  V30 24 1 24 25
M  V30 25 1 25 26
M  V30 26 1 26 27
M  V30 27 1 27 28
M  V30 28 1 22 3
M  V30 29 1 28 23
M  V30 30 2 14 7
M  V30 31 1 21 15
M  V30 32 1 12 10
M  V30 33 1 6 29
M  V30 34 1 8 30
M  V30 35 1 10 31
M  V30 36 1 11 32
M  V30 37 1 11 33
M  V30 38 1 12 34
M  V30 39 1 12 35
M  V30 40 1 13 36
M  V30 41 1 16 37
M  V30 42 1 19 38
M  V30 43 1 20 39
M  V30 44 1 24 40
M  V30 45 1 24 41
M  V30 46 1 25 42
M  V30 47 1 25 43
M  V30 48 1 26 44
M  V30 49 1 27 45
M  V30 50 1 27 46
M  V30 51 1 28 47
M  V30 52 1 28 48
M  V30 END BOND
M  V30 END CTAB
M  END
>  <Dataset>  (697) 
ChEMBL_Kinases

>  <Ligand_Instance>  (697) 
nan

>  <PDB_ID>  (697) 
nan

>  <Standardized_SMILES>  (697) 
O=C(c1nc(Nc2cc(C3CC3)[nH]n2)c2cc(Cl)ccc2n1)N1CCNCC1

>  <Name>  (697) 
nan

>  <Pocket>  (697) 
nan

>  <ATP_Site>  (697) 
nan

>  <Peripheral>  (697) 
nan

>  <Num_H_Atoms_ProtBoundConf>  (697) 
nan

>  <Num_Resolved_Atoms>  (697) 
nan

>  <Num_Not_Resolved_Atoms>  (697) 
nan

$$$$
CHEMBL4063964
     RDKit          3D

  0  0  0  0  0  0  0  0  0  0999 V3000
M  V30 BEGIN CTAB
M  V30 COUNTS 72 76 0 0 0
M  V30 BEGIN ATOM
M  V30 1 C 8.208238 -8.401888 3.251883 0
M  V30 2 C 8.815146 -7.624990 2.402798 0
M  V30 3 C 8.175436 -6.383818 1.997576 0
M  V30 4 O 8.789945 -5.670142 1.187297 0
M  V30 5 N 6.912637 -5.973859 2.481038 0
M  V30 6 C 6.172659 -4.810549 2.184450 0
M  V30 7 C 4.950381 -4.628444 2.765612 0
M  V30 8 C 4.180568 -3.517678 2.520373 0
M  V30 9 C 4.582846 -2.506659 1.671907 0
M  V30 10 C 3.687934 -1.372909 1.478502 0
M  V30 11 O 2.587863 -1.387987 2.069767 0
M  V30 12 N 3.943350 -0.239459 0.675679 0
M  V30 13 C 2.794930 0.631518 0.767769 0
M  V30 14 C 2.511991 1.654523 1.651937 0
M  V30 15 C 1.320291 2.333027 1.507519 0
M  V30 16 C 0.414568 2.020741 0.515512 0
M  V30 17 N -0.738896 2.844511 0.555522 0
M  V30 18 C -2.120417 2.533118 0.733988 0
M  V30 19 C -3.125479 2.236396 -0.164453 0
M  V30 20 C -4.381671 1.974081 0.325429 0
M  V30 21 C -5.376990 1.667949 -0.697922 0
M  V30 22 C -5.260633 0.557208 -1.528672 0
M  V30 23 C -4.261449 -0.499505 -1.632118 0
M  V30 24 C -3.442609 -0.840484 -2.688664 0
M  V30 25 C -2.560628 -1.870747 -2.598816 0
M  V30 26 C -2.478977 -2.602527 -1.412730 0
M  V30 27 F -1.598297 -3.636583 -1.313482 0
M  V30 28 C -3.286869 -2.288288 -0.329239 0
M  V30 29 C -4.186197 -1.224799 -0.444226 0
M  V30 30 N -6.336978 0.581874 -2.338875 0
M  V30 31 C -7.113634 1.643574 -2.058485 0
M  V30 32 S -8.633635 2.026210 -2.913994 0
M  V30 33 C -8.216419 3.086204 -4.335580 0
M  V30 34 N -6.513982 2.287682 -1.061911 0
M  V30 35 C -6.997268 3.500201 -0.429607 0
M  V30 36 C -4.672683 1.996574 1.671437 0
M  V30 37 C -3.649107 2.295743 2.541971 0
M  V30 38 N -2.402636 2.556966 2.072430 0
M  V30 39 C 0.701738 0.998393 -0.365408 0
M  V30 40 C -0.308756 0.729794 -1.393880 0
M  V30 41 C 1.890570 0.300116 -0.243900 0
M  V30 42 C 5.812669 -2.667998 1.073689 0
M  V30 43 C 6.551508 -3.797188 1.347801 0
M  V30 44 H 7.872863 -9.165433 3.932110 0
M  V30 45 H 7.303763 -8.425374 3.801324 0
M  V30 46 H 9.771624 -7.943706 2.038702 0
M  V30 47 H 6.508890 -6.667724 3.152998 0
M  V30 48 H 4.569595 -5.399220 3.455070 0
M  V30 49 H 3.218135 -3.471673 3.038057 0
M  V30 50 H 4.856518 -0.202590 0.173535 0
M  V30 51 H 3.307434 1.782129 2.366428 0
M  V30 52 H 1.189821 3.121016 2.252262 0
M  V30 53 H -0.664133 3.872546 0.442669 0
M  V30 54 H -2.762185 2.255144 -1.164925 0
M  V30 55 H -3.597623 -0.204538 -3.548934 0
M  V30 56 H -1.946759 -2.097712 -3.442441 0
M  V30 57 H -3.181356 -2.890205 0.565886 0
M  V30 58 H -4.767163 -1.070345 0.466425 0
M  V30 59 H -7.420211 3.817130 -4.072454 0
M  V30 60 H -7.726690 2.404002 -5.089061 0
M  V30 61 H -9.106497 3.568230 -4.777720 0
M  V30 62 H -8.045798 3.385220 -0.068320 0
M  V30 63 H -6.928487 4.293612 -1.227802 0
M  V30 64 H -6.385344 3.788778 0.446070 0
M  V30 65 H -5.696864 1.776000 1.961599 0
M  V30 66 H -3.895917 2.308811 3.595864 0
M  V30 67 H -0.574706 1.667023 -1.924484 0
M  V30 68 H 0.195161 0.106582 -2.188158 0
M  V30 69 H -1.183161 0.162585 -1.062732 0
M  V30 70 H 1.988816 -0.472364 -0.995737 0
M  V30 71 H 6.145343 -1.886829 0.405868 0
M  V30 72 H 7.496141 -3.839128 0.838616 0
M  V30 END ATOM
M  V30 BEGIN BOND
M  V30 1 2 1 2
M  V30 2 1 2 3
M  V30 3 2 3 4
M  V30 4 1 3 5
M  V30 5 1 5 6
M  V30 6 2 6 7
M  V30 7 1 7 8
M  V30 8 2 8 9
M  V30 9 1 9 10
M  V30 10 2 10 11
M  V30 11 1 10 12
M  V30 12 1 12 13
M  V30 13 2 13 14
M  V30 14 1 14 15
M  V30 15 2 15 16
M  V30 16 1 16 17
M  V30 17 1 17 18
M  V30 18 2 18 19
M  V30 19 1 19 20
M  V30 20 1 20 21
M  V30 21 2 21 22
M  V30 22 1 22 23
M  V30 23 2 23 24
M  V30 24 1 24 25
M  V30 25 2 25 26
M  V30 26 1 26 27
M  V30 27 1 26 28
M  V30 28 2 28 29
M  V30 29 1 22 30
M  V30 30 2 30 31
M  V30 31 1 31 32
M  V30 32 1 32 33
M  V30 33 1 31 34
M  V30 34 1 34 35
M  V30 35 2 20 36
M  V30 36 1 36 37
M  V30 37 2 37 38
M  V30 38 1 16 39
M  V30 39 1 39 40
M  V30 40 2 39 41
M  V30 41 1 9 42
M  V30 42 2 42 43
M  V30 43 1 43 6
M  V30 44 1 41 13
M  V30 45 1 38 18
M  V30 46 1 34 21
M  V30 47 1 29 23
M  V30 48 1 1 44
M  V30 49 1 1 45
M  V30 50 1 2 46
M  V30 51 1 5 47
M  V30 52 1 7 48
M  V30 53 1 8 49
M  V30 54 1 12 50
M  V30 55 1 14 51
M  V30 56 1 15 52
M  V30 57 1 17 53
M  V30 58 1 19 54
M  V30 59 1 24 55
M  V30 60 1 25 56
M  V30 61 1 28 57
M  V30 62 1 29 58
M  V30 63 1 33 59
M  V30 64 1 33 60
M  V30 65 1 33 61
M  V30 66 1 35 62
M  V30 67 1 35 63
M  V30 68 1 35 64
M  V30 69 1 36 65
M  V30 70 1 37 66
M  V30 71 1 40 67
M  V30 72 1 40 68
M  V30 73 1 40 69
M  V30 74 1 41 70
M  V30 75 1 42 71
M  V30 76 1 43 72
M  V30 END BOND
M  V30 END CTAB
M  END
>  <Dataset>  (698) 
ChEMBL_Kinases

>  <Ligand_Instance>  (698) 
nan

>  <PDB_ID>  (698) 
nan

>  <Standardized_SMILES>  (698) 
C=CC(=O)Nc1ccc(C(=O)Nc2ccc(Nc3cc(-c4c(-c5ccc(F)cc5)nc(SC)n4C)ccn3)c(C)c2)cc1

>  <Name>  (698) 
nan

>  <Pocket>  (698) 
nan

>  <ATP_Site>  (698) 
nan

>  <Peripheral>  (698) 
nan

>  <Num_H_Atoms_ProtBoundConf>  (698) 
nan

>  <Num_Resolved_Atoms>  (698) 
nan

>  <Num_Not_Resolved_Atoms>  (698) 
nan

$$$$
CHEMBL4063774
     RDKit          3D

  0  0  0  0  0  0  0  0  0  0999 V3000
M  V30 BEGIN CTAB
M  V30 COUNTS 55 58 0 0 0
M  V30 BEGIN ATOM
M  V30 1 C 3.322418 -4.822616 -0.368434 0
M  V30 2 N 2.075746 -4.149371 -0.612241 0
M  V30 3 C 1.225961 -3.450735 0.202946 0
M  V30 4 C 1.548948 -3.292829 1.664290 0
M  V30 5 N 2.348158 -2.162871 1.966201 0
M  V30 6 C 2.081373 -0.777515 1.851742 0
M  V30 7 C 3.037066 0.175810 2.186486 0
M  V30 8 C 2.815265 1.527668 2.098170 0
M  V30 9 C 1.598623 1.953823 1.660935 0
M  V30 10 C 0.589047 1.097666 1.306560 0
M  V30 11 C -0.720217 1.513478 0.834459 0
M  V30 12 O -1.583698 0.645704 0.540849 0
M  V30 13 N -1.083564 2.870114 0.683543 0
M  V30 14 C -2.328166 3.433308 0.231515 0
M  V30 15 C -3.315849 3.343105 1.333983 0
M  V30 16 C -3.375075 4.395317 2.225521 0
M  V30 17 C -4.256831 4.441048 3.299200 0
M  V30 18 C -5.120690 3.393140 3.497624 0
M  V30 19 C -6.141974 3.243037 4.581009 0
M  V30 20 F -5.816067 2.175969 5.374701 0
M  V30 21 F -7.371444 2.997234 4.000700 0
M  V30 22 F -6.190115 4.398439 5.333266 0
M  V30 23 C -5.081800 2.326677 2.618942 0
M  V30 24 C -4.193543 2.309015 1.559598 0
M  V30 25 C 0.885157 -0.246188 1.421423 0
M  V30 26 N 0.209186 -3.050643 -0.610773 0
M  V30 27 N 0.440491 -3.485152 -1.835662 0
M  V30 28 C 1.602346 -4.177728 -1.872253 0
M  V30 29 C 2.097206 -4.770473 -3.105419 0
M  V30 30 C 1.731794 -6.112312 -3.305038 0
M  V30 31 C 2.158250 -6.755161 -4.450302 0
M  V30 32 N 2.911652 -6.159502 -5.393112 0
M  V30 33 C 3.259383 -4.884707 -5.204548 0
M  V30 34 C 2.869724 -4.204557 -4.100240 0
M  V30 35 H 4.218027 -4.310419 -0.740169 0
M  V30 36 H 3.301056 -5.917225 -0.641727 0
M  V30 37 H 3.465550 -4.873168 0.734128 0
M  V30 38 H 0.577665 -3.244271 2.249188 0
M  V30 39 H 1.993191 -4.249666 1.995009 0
M  V30 40 H 3.316342 -2.403027 2.344186 0
M  V30 41 H 4.009429 -0.170959 2.535838 0
M  V30 42 H 3.620500 2.192733 2.380930 0
M  V30 43 H 1.448830 3.009909 1.600243 0
M  V30 44 H -0.371520 3.576035 0.926380 0
M  V30 45 H -2.743046 2.768377 -0.582848 0
M  V30 46 H -2.227103 4.441970 -0.182150 0
M  V30 47 H -2.733252 5.274655 2.156622 0
M  V30 48 H -4.335680 5.233030 4.010736 0
M  V30 49 H -5.734927 1.451630 2.704316 0
M  V30 50 H -4.166787 1.482949 0.879813 0
M  V30 51 H 0.095356 -0.932214 1.150557 0
M  V30 52 H 1.126969 -6.649728 -2.584950 0
M  V30 53 H 1.866310 -7.806592 -4.596846 0
M  V30 54 H 3.863845 -4.376371 -5.942185 0
M  V30 55 H 3.125565 -3.176775 -3.905463 0
M  V30 END ATOM
M  V30 BEGIN BOND
M  V30 1 1 1 2
M  V30 2 1 2 3
M  V30 3 1 3 4
M  V30 4 1 4 5
M  V30 5 1 5 6
M  V30 6 2 6 7
M  V30 7 1 7 8
M  V30 8 2 8 9
M  V30 9 1 9 10
M  V30 10 1 10 11
M  V30 11 2 11 12
M  V30 12 1 11 13
M  V30 13 1 13 14
M  V30 14 1 14 15
M  V30 15 2 15 16
M  V30 16 1 16 17
M  V30 17 2 17 18
M  V30 18 1 18 19
M  V30 19 1 19 20
M  V30 20 1 19 21
M  V30 21 1 19 22
M  V30 22 1 18 23
M  V30 23 2 23 24
M  V30 24 2 10 25
M  V30 25 2 3 26
M  V30 26 1 26 27
M  V30 27 2 27 28
M  V30 28 1 28 29
M  V30 29 2 29 30
M  V30 30 1 30 31
M  V30 31 2 31 32
M  V30 32 1 32 33
M  V30 33 2 33 34
M  V30 34 1 28 2
M  V30 35 1 34 29
M  V30 36 1 25 6
M  V30 37 1 24 15
M  V30 38 1 1 35
M  V30 39 1 1 36
M  V30 40 1 1 37
M  V30 41 1 4 38
M  V30 42 1 4 39
M  V30 43 1 5 40
M  V30 44 1 7 41
M  V30 45 1 8 42
M  V30 46 1 9 43
M  V30 47 1 13 44
M  V30 48 1 14 45
M  V30 49 1 14 46
M  V30 50 1 16 47
M  V30 51 1 17 48
M  V30 52 1 23 49
M  V30 53 1 24 50
M  V30 54 1 25 51
M  V30 55 1 30 52
M  V30 56 1 31 53
M  V30 57 1 33 54
M  V30 58 1 34 55
M  V30 END BOND
M  V30 END CTAB
M  END
>  <Dataset>  (699) 
ChEMBL_Kinases

>  <Ligand_Instance>  (699) 
nan

>  <PDB_ID>  (699) 
nan

>  <Standardized_SMILES>  (699) 
Cn1c(CNc2cccc(C(=O)NCc3ccc(C(F)(F)F)cc3)c2)nnc1-c1ccncc1

>  <Name>  (699) 
nan

>  <Pocket>  (699) 
nan

>  <ATP_Site>  (699) 
nan

>  <Peripheral>  (699) 
nan

>  <Num_H_Atoms_ProtBoundConf>  (699) 
nan

>  <Num_Resolved_Atoms>  (699) 
nan

>  <Num_Not_Resolved_Atoms>  (699) 
nan

$$$$
CHEMBL4059493
     RDKit          3D

  0  0  0  0  0  0  0  0  0  0999 V3000
M  V30 BEGIN CTAB
M  V30 COUNTS 51 55 0 0 0
M  V30 BEGIN ATOM
M  V30 1 C 1.105968 -0.947066 4.379228 0
M  V30 2 C 0.631988 -2.363228 4.260677 0 CFG=2
M  V30 3 C 1.129805 -3.059019 3.010221 0
M  V30 4 N 0.336909 -2.808044 1.862938 0
M  V30 5 C 0.735834 -2.307941 0.593945 0
M  V30 6 O 1.976931 -2.050451 0.448575 0
M  V30 7 C -0.108317 -2.051361 -0.557052 0
M  V30 8 N -0.144820 -0.727524 -0.801233 0
M  V30 9 C -0.841059 -0.186298 -1.804249 0
M  V30 10 N -0.862096 1.250717 -2.019933 0
M  V30 11 C -0.077092 1.813199 -0.960392 0
M  V30 12 C 1.259989 2.129900 -0.888140 0
M  V30 13 C 1.375102 2.568703 0.408466 0
M  V30 14 C 2.634578 3.036532 1.069722 0
M  V30 15 C 2.709030 3.044232 2.535551 0
M  V30 16 C 3.317014 1.872111 1.799722 0
M  V30 17 N 0.192871 2.525571 1.078491 0
M  V30 18 N -0.657278 2.060707 0.206288 0
M  V30 19 C -1.551123 -1.029707 -2.619636 0
M  V30 20 C -2.302050 -0.582772 -3.678340 0
M  V30 21 C -2.998553 -1.484534 -4.465797 0
M  V30 22 F -3.758828 -1.101904 -5.525361 0
M  V30 23 C -2.959408 -2.836271 -4.214006 0
M  V30 24 C -2.202586 -3.322122 -3.139709 0
M  V30 25 C -1.539771 -2.370448 -2.404201 0
M  V30 26 N -0.818962 -2.887719 -1.374288 0
M  V30 27 C -1.029095 -3.146091 2.178948 0
M  V30 28 C -1.486605 -2.090551 3.192869 0
M  V30 29 N -0.781414 -2.398971 4.426783 0
M  V30 30 H 1.563667 -0.720351 5.361561 0
M  V30 31 H 0.270177 -0.202638 4.255942 0
M  V30 32 H 1.849086 -0.717162 3.588798 0
M  V30 33 H 1.064199 -2.934264 5.120711 0
M  V30 34 H 2.164008 -2.692711 2.835020 0
M  V30 35 H 1.239436 -4.168663 3.204553 0
M  V30 36 H -1.328495 1.780566 -2.755920 0
M  V30 37 H 1.972710 2.030438 -1.683169 0
M  V30 38 H 3.293991 3.602113 0.381528 0
M  V30 39 H 3.397894 3.787178 3.017827 0
M  V30 40 H 1.760430 2.809456 3.087900 0
M  V30 41 H 2.828776 0.890515 1.821492 0
M  V30 42 H 4.444044 1.841331 1.779239 0
M  V30 43 H -0.055590 2.788316 2.049003 0
M  V30 44 H -2.345506 0.466689 -3.888043 0
M  V30 45 H -3.485053 -3.610683 -4.794925 0
M  V30 46 H -2.147828 -4.396582 -2.907361 0
M  V30 47 H -1.124825 -4.138309 2.655873 0
M  V30 48 H -1.685990 -3.152278 1.289140 0
M  V30 49 H -1.090899 -1.113814 2.835380 0
M  V30 50 H -2.591629 -2.116512 3.304814 0
M  V30 51 H -1.031859 -1.708991 5.165207 0
M  V30 END ATOM
M  V30 BEGIN BOND
M  V30 1 1 1 2
M  V30 2 1 2 3
M  V30 3 1 3 4
M  V30 4 1 4 5
M  V30 5 2 5 6
M  V30 6 1 5 7
M  V30 7 2 7 8
M  V30 8 1 8 9
M  V30 9 1 9 10
M  V30 10 1 10 11
M  V30 11 1 11 12
M  V30 12 2 12 13
M  V30 13 1 13 14
M  V30 14 1 14 15
M  V30 15 1 15 16
M  V30 16 1 13 17
M  V30 17 1 17 18
M  V30 18 2 9 19
M  V30 19 1 19 20
M  V30 20 2 20 21
M  V30 21 1 21 22
M  V30 22 1 21 23
M  V30 23 2 23 24
M  V30 24 1 24 25
M  V30 25 2 25 26
M  V30 26 1 4 27
M  V30 27 1 27 28
M  V30 28 1 28 29
M  V30 29 1 29 2
M  V30 30 1 26 7
M  V30 31 2 18 11
M  V30 32 1 25 19
M  V30 33 1 16 14
M  V30 34 1 1 30
M  V30 35 1 1 31
M  V30 36 1 1 32
M  V30 37 1 2 33 CFG=1
M  V30 38 1 3 34
M  V30 39 1 3 35
M  V30 40 1 10 36
M  V30 41 1 12 37
M  V30 42 1 14 38
M  V30 43 1 15 39
M  V30 44 1 15 40
M  V30 45 1 16 41
M  V30 46 1 16 42
M  V30 47 1 17 43
M  V30 48 1 20 44
M  V30 49 1 23 45
M  V30 50 1 24 46
M  V30 51 1 27 47
M  V30 52 1 27 48
M  V30 53 1 28 49
M  V30 54 1 28 50
M  V30 55 1 29 51
M  V30 END BOND
M  V30 END CTAB
M  END
>  <Dataset>  (700) 
ChEMBL_Kinases

>  <Ligand_Instance>  (700) 
nan

>  <PDB_ID>  (700) 
nan

>  <Standardized_SMILES>  (700) 
C[C@@H]1CN(C(=O)c2nc(Nc3cc(C4CC4)[nH]n3)c3cc(F)ccc3n2)CCN1

>  <Name>  (700) 
nan

>  <Pocket>  (700) 
nan

>  <ATP_Site>  (700) 
nan

>  <Peripheral>  (700) 
nan

>  <Num_H_Atoms_ProtBoundConf>  (700) 
nan

>  <Num_Resolved_Atoms>  (700) 
nan

>  <Num_Not_Resolved_Atoms>  (700) 
nan

$$$$
CHEMBL4063621
     RDKit          3D

  0  0  0  0  0  0  0  0  0  0999 V3000
M  V30 BEGIN CTAB
M  V30 COUNTS 47 49 0 0 0
M  V30 BEGIN ATOM
M  V30 1 C 0.113589 -2.494342 0.822906 0
M  V30 2 C 1.184560 -3.476564 0.418795 0
M  V30 3 O 1.071332 -3.741516 -0.942541 0
M  V30 4 C 1.170313 -2.818729 -1.973905 0
M  V30 5 C 1.013640 -3.373193 -3.238209 0
M  V30 6 C 1.096181 -2.532098 -4.328108 0
M  V30 7 C 1.327239 -1.182736 -4.163169 0
M  V30 8 C 1.487912 -0.603472 -2.899841 0
M  V30 9 N 1.729779 0.784381 -2.719879 0
M  V30 10 C 1.889979 1.411738 -1.424993 0
M  V30 11 C 0.599148 1.202481 -0.692106 0
M  V30 12 O -0.531552 0.674935 -0.846184 0
M  V30 13 N 0.613119 1.779847 0.629831 0
M  V30 14 N -0.548429 1.640221 1.401859 0
M  V30 15 C -0.502007 1.134420 2.586183 0
M  V30 16 C 0.779793 0.682843 3.173430 0
M  V30 17 C 0.610557 -0.252565 4.317530 0
M  V30 18 C -0.719081 -0.928083 4.428921 0
M  V30 19 C -1.880094 -0.010995 4.268291 0
M  V30 20 C -3.079377 -0.092212 4.964598 0
M  V30 21 N -4.047727 0.807280 4.717794 0
M  V30 22 C -3.929064 1.801350 3.822292 0
M  V30 23 C -2.757998 1.925089 3.105120 0
M  V30 24 C -1.732196 1.018565 3.327724 0
M  V30 25 C 1.399246 -1.472114 -1.842666 0
M  V30 26 H -0.514655 -2.158433 -0.026531 0
M  V30 27 H -0.608782 -2.980840 1.542532 0
M  V30 28 H 0.525381 -1.574588 1.313257 0
M  V30 29 H 2.196350 -3.057841 0.682967 0
M  V30 30 H 1.029920 -4.417946 0.967355 0
M  V30 31 H 0.831658 -4.421461 -3.413730 0
M  V30 32 H 0.975970 -2.949468 -5.324627 0
M  V30 33 H 1.385167 -0.555080 -5.047417 0
M  V30 34 H 1.789942 1.362115 -3.611467 0
M  V30 35 H 2.747052 0.998219 -0.860492 0
M  V30 36 H 2.099402 2.488162 -1.581864 0
M  V30 37 H 1.361539 2.307087 1.143567 0
M  V30 38 H 1.516252 0.316381 2.448469 0
M  V30 39 H 1.245653 1.623435 3.589397 0
M  V30 40 H 0.796034 0.232752 5.319587 0
M  V30 41 H 1.366009 -1.064697 4.235084 0
M  V30 42 H -0.760695 -1.709564 3.615705 0
M  V30 43 H -0.741363 -1.477087 5.375000 0
M  V30 44 H -3.161940 -0.896084 5.681738 0
M  V30 45 H -4.714465 2.525277 3.626834 0
M  V30 46 H -2.640080 2.732929 2.366126 0
M  V30 47 H 1.506874 -1.152071 -0.833567 0
M  V30 END ATOM
M  V30 BEGIN BOND
M  V30 1 1 1 2
M  V30 2 1 2 3
M  V30 3 1 3 4
M  V30 4 2 4 5
M  V30 5 1 5 6
M  V30 6 2 6 7
M  V30 7 1 7 8
M  V30 8 1 8 9
M  V30 9 1 9 10
M  V30 10 1 10 11
M  V30 11 2 11 12
M  V30 12 1 11 13
M  V30 13 1 13 14
M  V30 14 2 14 15
M  V30 15 1 15 16
M  V30 16 1 16 17
M  V30 17 1 17 18
M  V30 18 1 18 19
M  V30 19 2 19 20
M  V30 20 1 20 21
M  V30 21 2 21 22
M  V30 22 1 22 23
M  V30 23 2 23 24
M  V30 24 2 8 25
M  V30 25 1 25 4
M  V30 26 1 24 15
M  V30 27 1 24 19
M  V30 28 1 1 26
M  V30 29 1 1 27
M  V30 30 1 1 28
M  V30 31 1 2 29
M  V30 32 1 2 30
M  V30 33 1 5 31
M  V30 34 1 6 32
M  V30 35 1 7 33
M  V30 36 1 9 34
M  V30 37 1 10 35
M  V30 38 1 10 36
M  V30 39 1 13 37
M  V30 40 1 16 38
M  V30 41 1 16 39
M  V30 42 1 17 40
M  V30 43 1 17 41
M  V30 44 1 18 42
M  V30 45 1 18 43
M  V30 46 1 20 44
M  V30 47 1 22 45
M  V30 48 1 23 46
M  V30 49 1 25 47
M  V30 END BOND
M  V30 END CTAB
M  END
>  <Dataset>  (701) 
ChEMBL_Kinases

>  <Ligand_Instance>  (701) 
nan

>  <PDB_ID>  (701) 
nan

>  <Standardized_SMILES>  (701) 
CCOc1cccc(NCC(=O)N/N=C2\CCCc3cnccc32)c1

>  <Name>  (701) 
nan

>  <Pocket>  (701) 
nan

>  <ATP_Site>  (701) 
nan

>  <Peripheral>  (701) 
nan

>  <Num_H_Atoms_ProtBoundConf>  (701) 
nan

>  <Num_Resolved_Atoms>  (701) 
nan

>  <Num_Not_Resolved_Atoms>  (701) 
nan

$$$$
CHEMBL4063617
     RDKit          3D

  0  0  0  0  0  0  0  0  0  0999 V3000
M  V30 BEGIN CTAB
M  V30 COUNTS 45 49 0 0 0
M  V30 BEGIN ATOM
M  V30 1 C 1.129927 0.627790 -1.210717 0
M  V30 2 C 1.772098 0.327671 0.116493 0 CFG=1
M  V30 3 C 3.253985 0.648279 -0.128101 0
M  V30 4 C 3.564227 1.728665 -0.925904 0
M  V30 5 C 4.921270 1.927293 -1.083859 0
M  V30 6 C 5.917863 1.159458 -0.527322 0
M  V30 7 F 7.229043 1.429311 -0.737204 0
M  V30 8 C 5.542166 0.093375 0.260637 0
M  V30 9 C 4.208161 -0.156406 0.456014 0
M  V30 10 N 1.366312 1.203212 1.187867 0
M  V30 11 N 2.091095 2.246133 1.574515 0
M  V30 12 N 1.555020 2.919633 2.567945 0
M  V30 13 C 0.403302 2.305028 2.876664 0
M  V30 14 C -0.514929 2.632559 3.848842 0
M  V30 15 N -1.590968 1.830724 3.936982 0
M  V30 16 C -1.726661 0.772909 3.099576 0
M  V30 17 C -2.861823 0.009588 3.261225 0
M  V30 18 C -3.001514 -1.063075 2.408620 0
M  V30 19 C -2.069957 -1.397689 1.419038 0
M  V30 20 C -2.381371 -2.583766 0.593418 0
M  V30 21 C -2.037786 -2.803867 -0.725595 0
M  V30 22 N -2.526012 -4.015364 -1.069309 0
M  V30 23 N -3.151961 -4.530883 0.000044 0
M  V30 24 C -3.769052 -5.848059 -0.122759 0
M  V30 25 C -3.085136 -3.680361 1.043398 0
M  V30 26 C -0.952437 -0.585697 1.314022 0
M  V30 27 C -0.795103 0.482627 2.150410 0
M  V30 28 C 0.324746 1.246332 1.996900 0
M  V30 29 H 0.398868 -0.133666 -1.550520 0
M  V30 30 H 1.845977 0.740682 -2.051565 0
M  V30 31 H 0.548440 1.578371 -1.088695 0
M  V30 32 H 1.727766 -0.752264 0.344615 0
M  V30 33 H 2.839514 2.375254 -1.392886 0
M  V30 34 H 5.279902 2.762973 -1.701973 0
M  V30 35 H 6.334032 -0.504786 0.693959 0
M  V30 36 H 3.938754 -0.994844 1.075595 0
M  V30 37 H -0.350640 3.491780 4.488600 0
M  V30 38 H -3.585508 0.260091 4.021405 0
M  V30 39 H -3.893067 -1.656793 2.541264 0
M  V30 40 H -1.469624 -2.054791 -1.287319 0
M  V30 41 H -2.995198 -6.650593 -0.067053 0
M  V30 42 H -4.244035 -5.964364 -1.131968 0
M  V30 43 H -4.484112 -5.945595 0.707734 0
M  V30 44 H -3.521362 -3.887240 2.010430 0
M  V30 45 H -0.355379 -0.962641 0.526682 0
M  V30 END ATOM
M  V30 BEGIN BOND
M  V30 1 1 1 2
M  V30 2 1 2 3
M  V30 3 2 3 4
M  V30 4 1 4 5
M  V30 5 2 5 6
M  V30 6 1 6 7
M  V30 7 1 6 8
M  V30 8 2 8 9
M  V30 9 1 2 10
M  V30 10 1 10 11
M  V30 11 2 11 12
M  V30 12 1 12 13
M  V30 13 2 13 14
M  V30 14 1 14 15
M  V30 15 2 15 16
M  V30 16 1 16 17
M  V30 17 2 17 18
M  V30 18 1 18 19
M  V30 19 1 19 20
M  V30 20 1 20 21
M  V30 21 2 21 22
M  V30 22 1 22 23
M  V30 23 1 23 24
M  V30 24 1 23 25
M  V30 25 2 19 26
M  V30 26 1 26 27
M  V30 27 2 27 28
M  V30 28 1 9 3
M  V30 29 1 28 10
M  V30 30 1 28 13
M  V30 31 1 27 16
M  V30 32 2 25 20
M  V30 33 1 1 29
M  V30 34 1 1 30
M  V30 35 1 1 31
M  V30 36 1 2 32 CFG=1
M  V30 37 1 4 33
M  V30 38 1 5 34
M  V30 39 1 8 35
M  V30 40 1 9 36
M  V30 41 1 14 37
M  V30 42 1 17 38
M  V30 43 1 18 39
M  V30 44 1 21 40
M  V30 45 1 24 41
M  V30 46 1 24 42
M  V30 47 1 24 43
M  V30 48 1 25 44
M  V30 49 1 26 45
M  V30 END BOND
M  V30 END CTAB
M  END
>  <Dataset>  (702) 
ChEMBL_Kinases

>  <Ligand_Instance>  (702) 
nan

>  <PDB_ID>  (702) 
nan

>  <Standardized_SMILES>  (702) 
C[C@@H](c1ccc(F)cc1)n1nnc2cnc3ccc(-c4cnn(C)c4)cc3c21

>  <Name>  (702) 
nan

>  <Pocket>  (702) 
nan

>  <ATP_Site>  (702) 
nan

>  <Peripheral>  (702) 
nan

>  <Num_H_Atoms_ProtBoundConf>  (702) 
nan

>  <Num_Resolved_Atoms>  (702) 
nan

>  <Num_Not_Resolved_Atoms>  (702) 
nan

$$$$
CHEMBL3920197
     RDKit          3D

  0  0  0  0  0  0  0  0  0  0999 V3000
M  V30 BEGIN CTAB
M  V30 COUNTS 51 55 0 0 0
M  V30 BEGIN ATOM
M  V30 1 O 3.135669 -2.799288 1.087607 0
M  V30 2 C 2.984405 -2.246215 2.347864 0 CFG=1
M  V30 3 C 4.278230 -1.984077 3.067382 0
M  V30 4 C 4.967025 -0.737564 2.603008 0
M  V30 5 C 4.436083 -0.197389 1.308955 0
M  V30 6 N 2.986014 -0.166861 1.222847 0
M  V30 7 C 2.499132 0.654375 0.140890 0
M  V30 8 C 3.275470 0.879463 -0.972199 0
M  V30 9 C 2.901012 1.595985 -2.083611 0
M  V30 10 N 1.645206 2.123292 -2.063984 0
M  V30 11 C 0.828791 1.949258 -1.016194 0
M  V30 12 C 1.251197 1.223813 0.074315 0
M  V30 13 N 0.365750 1.133215 1.164861 0
M  V30 14 C -0.955931 1.662495 1.066322 0
M  V30 15 N -1.249691 2.958101 1.269807 0
M  V30 16 C -2.569186 3.198105 1.112840 0
M  V30 17 C -3.140408 1.969326 0.789707 0
M  V30 18 C -4.401976 1.446770 0.500500 0
M  V30 19 C -4.526894 0.100013 0.227557 0
M  V30 20 C -3.442728 -0.758957 0.229230 0
M  V30 21 C -3.653721 -2.171388 -0.067579 0
M  V30 22 C -3.589332 -2.595162 -1.382006 0
M  V30 23 F -3.336567 -1.711082 -2.376802 0
M  V30 24 C -3.774914 -3.913306 -1.755024 0
M  V30 25 C -4.035300 -4.810086 -0.716692 0
M  V30 26 C -4.104902 -4.407088 0.615099 0
M  V30 27 C -3.911643 -3.077327 0.933542 0
M  V30 28 F -3.956643 -2.570444 2.201809 0
M  V30 29 N -2.246264 -0.220448 0.511183 0
M  V30 30 N -2.133936 1.051333 0.768324 0
M  V30 31 C 2.189846 -0.946661 2.150727 0
M  V30 32 H 2.624142 -3.631743 0.935450 0
M  V30 33 H 2.349142 -2.929803 2.944586 0
M  V30 34 H 4.947375 -2.845469 2.870480 0
M  V30 35 H 4.068544 -1.984683 4.154287 0
M  V30 36 H 6.058606 -0.869997 2.504472 0
M  V30 37 H 4.808436 0.037438 3.379717 0
M  V30 38 H 4.785528 0.847172 1.164793 0
M  V30 39 H 4.801816 -0.776131 0.436675 0
M  V30 40 H 4.289538 0.490689 -1.061256 0
M  V30 41 H 3.524273 1.761477 -2.946524 0
M  V30 42 H -0.149993 2.389272 -1.058788 0
M  V30 43 H 0.317770 0.787721 2.140975 0
M  V30 44 H -3.241613 4.024487 1.167321 0
M  V30 45 H -5.204559 2.169550 0.514951 0
M  V30 46 H -5.516517 -0.264003 0.009042 0
M  V30 47 H -3.733344 -4.283787 -2.767971 0
M  V30 48 H -4.199076 -5.865697 -0.863960 0
M  V30 49 H -4.304951 -5.095901 1.413632 0
M  V30 50 H 1.227067 -1.278713 1.697232 0
M  V30 51 H 2.081727 -0.440786 3.129263 0
M  V30 END ATOM
M  V30 BEGIN BOND
M  V30 1 1 1 2
M  V30 2 1 2 3
M  V30 3 1 3 4
M  V30 4 1 4 5
M  V30 5 1 5 6
M  V30 6 1 6 7
M  V30 7 2 7 8
M  V30 8 1 8 9
M  V30 9 2 9 10
M  V30 10 1 10 11
M  V30 11 2 11 12
M  V30 12 1 12 13
M  V30 13 1 13 14
M  V30 14 2 14 15
M  V30 15 1 15 16
M  V30 16 2 16 17
M  V30 17 1 17 18
M  V30 18 2 18 19
M  V30 19 1 19 20
M  V30 20 1 20 21
M  V30 21 2 21 22
M  V30 22 1 22 23
M  V30 23 1 22 24
M  V30 24 2 24 25
M  V30 25 1 25 26
M  V30 26 2 26 27
M  V30 27 1 27 28
M  V30 28 2 20 29
M  V30 29 1 29 30
M  V30 30 1 6 31
M  V30 31 1 31 2
M  V30 32 1 12 7
M  V30 33 1 30 14
M  V30 34 1 30 17
M  V30 35 1 27 21
M  V30 36 1 1 32
M  V30 37 1 2 33 CFG=1
M  V30 38 1 3 34
M  V30 39 1 3 35
M  V30 40 1 4 36
M  V30 41 1 4 37
M  V30 42 1 5 38
M  V30 43 1 5 39
M  V30 44 1 8 40
M  V30 45 1 9 41
M  V30 46 1 11 42
M  V30 47 1 13 43
M  V30 48 1 16 44
M  V30 49 1 18 45
M  V30 50 1 19 46
M  V30 51 1 24 47
M  V30 52 1 25 48
M  V30 53 1 26 49
M  V30 54 1 31 50
M  V30 55 1 31 51
M  V30 END BOND
M  V30 END CTAB
M  END
>  <Dataset>  (703) 
ChEMBL_Kinases

>  <Ligand_Instance>  (703) 
nan

>  <PDB_ID>  (703) 
nan

>  <Standardized_SMILES>  (703) 
O[C@H]1CCCN(c2ccncc2Nc2ncc3ccc(-c4c(F)cccc4F)nn23)C1

>  <Name>  (703) 
nan

>  <Pocket>  (703) 
nan

>  <ATP_Site>  (703) 
nan

>  <Peripheral>  (703) 
nan

>  <Num_H_Atoms_ProtBoundConf>  (703) 
nan

>  <Num_Resolved_Atoms>  (703) 
nan

>  <Num_Not_Resolved_Atoms>  (703) 
nan

$$$$
CHEMBL4063425
     RDKit          3D

  0  0  0  0  0  0  0  0  0  0999 V3000
M  V30 BEGIN CTAB
M  V30 COUNTS 51 55 0 0 0
M  V30 BEGIN ATOM
M  V30 1 C 3.224674 -2.897962 2.190787 0
M  V30 2 C 3.691327 -1.626040 2.846694 0 CFG=1
M  V30 3 C 5.018464 -1.165965 2.270585 0
M  V30 4 N 5.341008 0.166585 2.647066 0
M  V30 5 C 4.608673 0.666636 3.780542 0
M  V30 6 C 3.110756 0.562663 3.605029 0
M  V30 7 N 2.769290 -0.518204 2.695542 0
M  V30 8 C 1.651973 -0.251079 1.899461 0
M  V30 9 O 1.247933 0.912278 2.226690 0
M  V30 10 C 0.854874 -0.881844 0.858509 0
M  V30 11 N 0.491612 -0.049450 -0.162738 0
M  V30 12 C -0.257175 -0.524365 -1.198497 0
M  V30 13 N -0.589668 0.438689 -2.220905 0
M  V30 14 C -1.843459 1.112667 -1.982747 0
M  V30 15 C -2.691949 0.878768 -0.892551 0
M  V30 16 C -3.794741 1.733037 -1.031897 0
M  V30 17 C -4.938216 1.780136 -0.053017 0
M  V30 18 C -5.317158 0.424091 0.501216 0
M  V30 19 C -4.663587 1.431066 1.374334 0
M  V30 20 N -3.581495 2.429586 -2.161657 0
M  V30 21 N -2.436995 2.060143 -2.712084 0
M  V30 22 C -0.625644 -1.852364 -1.173925 0
M  V30 23 C -1.382669 -2.290833 -2.244037 0
M  V30 24 C -1.740240 -3.635059 -2.197491 0
M  V30 25 Cl -2.707721 -4.328108 -3.492710 0
M  V30 26 C -1.359047 -4.458192 -1.151539 0
M  V30 27 C -0.602485 -3.978628 -0.101377 0
M  V30 28 C -0.236957 -2.656947 -0.123885 0
M  V30 29 N 0.497422 -2.180434 0.886670 0
M  V30 30 H 2.330058 -3.268129 2.691168 0
M  V30 31 H 4.024030 -3.665444 2.434370 0
M  V30 32 H 3.204229 -2.843682 1.100711 0
M  V30 33 H 3.838719 -1.829857 3.948543 0
M  V30 34 H 4.934547 -1.298919 1.155492 0
M  V30 35 H 5.846182 -1.864681 2.600084 0
M  V30 36 H 5.467604 0.843495 1.881660 0
M  V30 37 H 4.952822 0.255358 4.749832 0
M  V30 38 H 4.836262 1.763383 3.824536 0
M  V30 39 H 2.705170 0.234991 4.606522 0
M  V30 40 H 2.632951 1.513926 3.390331 0
M  V30 41 H -0.081247 0.718370 -3.083803 0
M  V30 42 H -2.579354 0.194197 -0.077128 0
M  V30 43 H -5.759226 2.495170 -0.230651 0
M  V30 44 H -6.406598 0.248075 0.601555 0
M  V30 45 H -4.683002 -0.450854 0.221059 0
M  V30 46 H -3.605675 1.266397 1.713085 0
M  V30 47 H -5.283905 1.874741 2.171314 0
M  V30 48 H -4.293565 3.131997 -2.456127 0
M  V30 49 H -1.669110 -1.643494 -3.049443 0
M  V30 50 H -1.617502 -5.510163 -1.081970 0
M  V30 51 H -0.284485 -4.592454 0.731454 0
M  V30 END ATOM
M  V30 BEGIN BOND
M  V30 1 1 1 2
M  V30 2 1 2 3
M  V30 3 1 3 4
M  V30 4 1 4 5
M  V30 5 1 5 6
M  V30 6 1 6 7
M  V30 7 1 7 8
M  V30 8 2 8 9
M  V30 9 1 8 10
M  V30 10 2 10 11
M  V30 11 1 11 12
M  V30 12 1 12 13
M  V30 13 1 13 14
M  V30 14 1 14 15
M  V30 15 2 15 16
M  V30 16 1 16 17
M  V30 17 1 17 18
M  V30 18 1 18 19
M  V30 19 1 16 20
M  V30 20 1 20 21
M  V30 21 2 12 22
M  V30 22 1 22 23
M  V30 23 2 23 24
M  V30 24 1 24 25
M  V30 25 1 24 26
M  V30 26 2 26 27
M  V30 27 1 27 28
M  V30 28 2 28 29
M  V30 29 1 7 2
M  V30 30 1 29 10
M  V30 31 2 21 14
M  V30 32 1 28 22
M  V30 33 1 19 17
M  V30 34 1 1 30
M  V30 35 1 1 31
M  V30 36 1 1 32
M  V30 37 1 2 33 CFG=1
M  V30 38 1 3 34
M  V30 39 1 3 35
M  V30 40 1 4 36
M  V30 41 1 5 37
M  V30 42 1 5 38
M  V30 43 1 6 39
M  V30 44 1 6 40
M  V30 45 1 13 41
M  V30 46 1 15 42
M  V30 47 1 17 43
M  V30 48 1 18 44
M  V30 49 1 18 45
M  V30 50 1 19 46
M  V30 51 1 19 47
M  V30 52 1 20 48
M  V30 53 1 23 49
M  V30 54 1 26 50
M  V30 55 1 27 51
M  V30 END BOND
M  V30 END CTAB
M  END
>  <Dataset>  (704) 
ChEMBL_Kinases

>  <Ligand_Instance>  (704) 
nan

>  <PDB_ID>  (704) 
nan

>  <Standardized_SMILES>  (704) 
C[C@H]1CNCCN1C(=O)c1nc(Nc2cc(C3CC3)[nH]n2)c2cc(Cl)ccc2n1

>  <Name>  (704) 
nan

>  <Pocket>  (704) 
nan

>  <ATP_Site>  (704) 
nan

>  <Peripheral>  (704) 
nan

>  <Num_H_Atoms_ProtBoundConf>  (704) 
nan

>  <Num_Resolved_Atoms>  (704) 
nan

>  <Num_Not_Resolved_Atoms>  (704) 
nan

$$$$
CHEMBL4063256
     RDKit          3D

  0  0  0  0  0  0  0  0  0  0999 V3000
M  V30 BEGIN CTAB
M  V30 COUNTS 30 32 0 0 0
M  V30 BEGIN ATOM
M  V30 1 C -3.613320 -2.364166 1.234033 0
M  V30 2 N -2.287518 -2.063229 1.725938 0
M  V30 3 C -1.125051 -2.374218 1.132901 0
M  V30 4 C -0.073694 -1.917919 1.910817 0
M  V30 5 C 1.368402 -2.068997 1.593356 0
M  V30 6 C 1.798415 -0.884128 0.802042 0
M  V30 7 C 2.281134 0.237572 1.469214 0
M  V30 8 C 2.700631 1.378960 0.805491 0
M  V30 9 C 2.634977 1.401305 -0.590819 0
M  V30 10 C 2.154590 0.282990 -1.239590 0
M  V30 11 C 1.734155 -0.859324 -0.586486 0
M  V30 12 O 2.206807 0.594854 -2.589631 0
M  V30 13 C 2.972825 1.769972 -2.772093 0
M  V30 14 O 2.974158 2.372857 -1.490859 0
M  V30 15 N -0.650007 -1.329661 2.978312 0
M  V30 16 C -1.994631 -1.420556 2.861325 0
M  V30 17 N -2.939856 -0.920090 3.784693 0
M  V30 18 H -3.695853 -3.459344 1.034777 0
M  V30 19 H -4.376613 -2.087674 1.959106 0
M  V30 20 H -3.819542 -1.835570 0.275562 0
M  V30 21 H -1.056953 -2.901381 0.191273 0
M  V30 22 H 1.952445 -2.088349 2.521445 0
M  V30 23 H 1.593554 -2.979687 1.027947 0
M  V30 24 H 2.342407 0.244776 2.562931 0
M  V30 25 H 3.075495 2.246578 1.349450 0
M  V30 26 H 1.359992 -1.726513 -1.120524 0
M  V30 27 H 2.497776 2.452143 -3.510170 0
M  V30 28 H 4.021359 1.523394 -3.070477 0
M  V30 29 H -3.583997 -0.120879 3.591964 0
M  V30 30 H -3.249212 -1.120856 4.740976 0
M  V30 END ATOM
M  V30 BEGIN BOND
M  V30 1 1 1 2
M  V30 2 1 2 3
M  V30 3 2 3 4
M  V30 4 1 4 5
M  V30 5 1 5 6
M  V30 6 2 6 7
M  V30 7 1 7 8
M  V30 8 2 8 9
M  V30 9 1 9 10
M  V30 10 2 10 11
M  V30 11 1 10 12
M  V30 12 1 12 13
M  V30 13 1 13 14
M  V30 14 1 4 15
M  V30 15 2 15 16
M  V30 16 1 16 17
M  V30 17 1 16 2
M  V30 18 1 11 6
M  V30 19 1 14 9
M  V30 20 1 1 18
M  V30 21 1 1 19
M  V30 22 1 1 20
M  V30 23 1 3 21
M  V30 24 1 5 22
M  V30 25 1 5 23
M  V30 26 1 7 24
M  V30 27 1 8 25
M  V30 28 1 11 26
M  V30 29 1 13 27
M  V30 30 1 13 28
M  V30 31 1 17 29
M  V30 32 1 17 30
M  V30 END BOND
M  V30 END CTAB
M  END
>  <Dataset>  (705) 
ChEMBL_Kinases

>  <Ligand_Instance>  (705) 
nan

>  <PDB_ID>  (705) 
nan

>  <Standardized_SMILES>  (705) 
Cn1cc(Cc2ccc3c(c2)OCO3)nc1N

>  <Name>  (705) 
nan

>  <Pocket>  (705) 
nan

>  <ATP_Site>  (705) 
nan

>  <Peripheral>  (705) 
nan

>  <Num_H_Atoms_ProtBoundConf>  (705) 
nan

>  <Num_Resolved_Atoms>  (705) 
nan

>  <Num_Not_Resolved_Atoms>  (705) 
nan

$$$$
CHEMBL3920733
     RDKit          3D

  0  0  0  0  0  0  0  0  0  0999 V3000
M  V30 BEGIN CTAB
M  V30 COUNTS 51 55 0 0 0
M  V30 BEGIN ATOM
M  V30 1 N 4.343052 -3.519316 -0.639268 0
M  V30 2 C 3.405345 -3.078305 0.406510 0 CFG=1
M  V30 3 C 4.115845 -2.934019 1.707978 0
M  V30 4 C 3.273831 -2.176819 2.698126 0
M  V30 5 C 3.025594 -0.752003 2.252256 0
M  V30 6 N 2.735188 -0.730827 0.834051 0
M  V30 7 C 2.572444 0.625929 0.417103 0
M  V30 8 C 3.684388 1.123919 -0.233771 0
M  V30 9 C 3.581685 2.455018 -0.602469 0
M  V30 10 N 2.501626 3.215395 -0.357436 0
M  V30 11 C 1.424794 2.718793 0.276406 0
M  V30 12 C 1.474453 1.379147 0.669934 0
M  V30 13 N 0.340092 0.818188 1.280201 0
M  V30 14 C -0.843847 1.551854 1.671759 0
M  V30 15 N -0.887092 2.727186 2.341449 0
M  V30 16 C -2.199853 3.083718 2.516659 0
M  V30 17 C -2.917191 2.048896 1.910493 0
M  V30 18 C -4.306426 1.912262 1.795003 0
M  V30 19 C -4.727899 0.780824 1.131408 0
M  V30 20 C -3.875510 -0.164072 0.609181 0
M  V30 21 C -4.223613 -1.368894 -0.114644 0
M  V30 22 N -5.156827 -1.204483 -1.068085 0
M  V30 23 C -5.597156 -2.224654 -1.838563 0
M  V30 24 C -5.083637 -3.479348 -1.654665 0
M  V30 25 C -4.111050 -3.694257 -0.673213 0
M  V30 26 C -3.680667 -2.636593 0.098201 0
M  V30 27 Cl -2.489965 -2.717971 1.353066 0
M  V30 28 N -2.537145 0.040480 0.763877 0
M  V30 29 N -2.088599 1.122078 1.399276 0
M  V30 30 C 2.612715 -1.880246 -0.038679 0
M  V30 31 H 4.104183 -4.486199 -0.936737 0
M  V30 32 H 4.197715 -2.901947 -1.465644 0
M  V30 33 H 2.666567 -3.924017 0.559756 0
M  V30 34 H 5.139140 -2.523051 1.616992 0
M  V30 35 H 4.255231 -3.967881 2.147930 0
M  V30 36 H 3.796494 -2.207210 3.677549 0
M  V30 37 H 2.307867 -2.726577 2.789008 0
M  V30 38 H 2.160982 -0.370021 2.805207 0
M  V30 39 H 3.872461 -0.084459 2.515306 0
M  V30 40 H 4.574198 0.550573 -0.454152 0
M  V30 41 H 4.391316 2.976919 -1.126103 0
M  V30 42 H 0.556126 3.369851 0.461501 0
M  V30 43 H 0.260011 -0.217950 1.491554 0
M  V30 44 H -2.614450 3.948661 3.003044 0
M  V30 45 H -5.041702 2.619253 2.186295 0
M  V30 46 H -5.780946 0.552131 0.971438 0
M  V30 47 H -6.348725 -2.024427 -2.588527 0
M  V30 48 H -5.405018 -4.325604 -2.247193 0
M  V30 49 H -3.655975 -4.646943 -0.464529 0
M  V30 50 H 1.505314 -2.125420 -0.055825 0
M  V30 51 H 2.942338 -1.654269 -1.074357 0
M  V30 END ATOM
M  V30 BEGIN BOND
M  V30 1 1 1 2
M  V30 2 1 2 3
M  V30 3 1 3 4
M  V30 4 1 4 5
M  V30 5 1 5 6
M  V30 6 1 6 7
M  V30 7 2 7 8
M  V30 8 1 8 9
M  V30 9 2 9 10
M  V30 10 1 10 11
M  V30 11 2 11 12
M  V30 12 1 12 13
M  V30 13 1 13 14
M  V30 14 2 14 15
M  V30 15 1 15 16
M  V30 16 2 16 17
M  V30 17 1 17 18
M  V30 18 2 18 19
M  V30 19 1 19 20
M  V30 20 1 20 21
M  V30 21 2 21 22
M  V30 22 1 22 23
M  V30 23 2 23 24
M  V30 24 1 24 25
M  V30 25 2 25 26
M  V30 26 1 26 27
M  V30 27 2 20 28
M  V30 28 1 28 29
M  V30 29 1 6 30
M  V30 30 1 30 2
M  V30 31 1 12 7
M  V30 32 1 29 14
M  V30 33 1 29 17
M  V30 34 1 26 21
M  V30 35 1 1 31
M  V30 36 1 1 32
M  V30 37 1 2 33 CFG=1
M  V30 38 1 3 34
M  V30 39 1 3 35
M  V30 40 1 4 36
M  V30 41 1 4 37
M  V30 42 1 5 38
M  V30 43 1 5 39
M  V30 44 1 8 40
M  V30 45 1 9 41
M  V30 46 1 11 42
M  V30 47 1 13 43
M  V30 48 1 16 44
M  V30 49 1 18 45
M  V30 50 1 19 46
M  V30 51 1 23 47
M  V30 52 1 24 48
M  V30 53 1 25 49
M  V30 54 1 30 50
M  V30 55 1 30 51
M  V30 END BOND
M  V30 END CTAB
M  END
>  <Dataset>  (706) 
ChEMBL_Kinases

>  <Ligand_Instance>  (706) 
nan

>  <PDB_ID>  (706) 
nan

>  <Standardized_SMILES>  (706) 
N[C@H]1CCCN(c2ccncc2Nc2ncc3ccc(-c4ncccc4Cl)nn23)C1

>  <Name>  (706) 
nan

>  <Pocket>  (706) 
nan

>  <ATP_Site>  (706) 
nan

>  <Peripheral>  (706) 
nan

>  <Num_H_Atoms_ProtBoundConf>  (706) 
nan

>  <Num_Resolved_Atoms>  (706) 
nan

>  <Num_Not_Resolved_Atoms>  (706) 
nan

$$$$
CHEMBL4063211
     RDKit          3D

  0  0  0  0  0  0  0  0  0  0999 V3000
M  V30 BEGIN CTAB
M  V30 COUNTS 64 68 0 0 0
M  V30 BEGIN ATOM
M  V30 1 C 9.156061 2.920827 1.283054 0
M  V30 2 N 8.326629 1.890452 0.749743 0
M  V30 3 C 8.618744 0.631108 1.360533 0
M  V30 4 C 6.936625 2.211606 0.620637 0
M  V30 5 C 6.218946 2.380583 1.912515 0
M  V30 6 N 4.800401 2.710828 1.717440 0
M  V30 7 C 3.844539 1.747865 1.624292 0
M  V30 8 C 2.610238 2.387606 1.441012 0
M  V30 9 C 1.389127 1.586825 1.308984 0
M  V30 10 C 1.509629 0.331858 0.705795 0
M  V30 11 C 0.366835 -0.461448 0.563810 0
M  V30 12 N -0.850796 -0.069465 0.984168 0
M  V30 13 C -2.047133 -0.701830 0.927715 0
M  V30 14 C -2.320626 -2.024629 0.374423 0
M  V30 15 C -1.548088 -3.140246 0.619392 0
M  V30 16 C -1.909346 -4.328216 0.038516 0
M  V30 17 C -3.040404 -4.407494 -0.786594 0
M  V30 18 C -3.249598 -5.748203 -1.304819 0
M  V30 19 N -2.439366 -6.879251 -1.052659 0
M  V30 20 O -4.242616 -6.004068 -2.069658 0
M  V30 21 C -3.854244 -3.295269 -1.061167 0
M  V30 22 O -4.850309 -3.682873 -1.874878 0
M  V30 23 C -5.870301 -2.905700 -2.378571 0
M  V30 24 C -6.788962 -2.291006 -1.393208 0
M  V30 25 C -7.789786 -3.179923 -0.966055 0
M  V30 26 C -8.775356 -2.837471 -0.068856 0
M  V30 27 C -8.834258 -1.572648 0.471228 0
M  V30 28 C -7.859309 -0.685324 0.063140 0
M  V30 29 C -6.881129 -1.037278 -0.832187 0
M  V30 30 C -3.416760 -2.153039 -0.439545 0
M  V30 31 C -2.950757 0.180683 1.511952 0
M  V30 32 N -2.267584 1.282149 1.885973 0
M  V30 33 C -0.964901 1.145385 1.567195 0
M  V30 34 C 0.132297 1.974734 1.734605 0
M  V30 35 C 2.889378 3.739060 1.432759 0
M  V30 36 N 4.220010 3.894197 1.601951 0
M  V30 37 H 8.816188 3.225453 2.313808 0
M  V30 38 H 9.303739 3.801174 0.627229 0
M  V30 39 H 10.162996 2.483787 1.447837 0
M  V30 40 H 8.041114 0.423081 2.283121 0
M  V30 41 H 9.699712 0.640016 1.687475 0
M  V30 42 H 8.516989 -0.227443 0.660300 0
M  V30 43 H 6.468122 1.414260 0.003146 0
M  V30 44 H 6.883756 3.131153 -0.013078 0
M  V30 45 H 6.288096 1.418583 2.479828 0
M  V30 46 H 6.708116 3.139463 2.554485 0
M  V30 47 H 4.034067 0.665525 1.685128 0
M  V30 48 H 2.492803 0.006421 0.362689 0
M  V30 49 H 0.579259 -1.409741 0.082205 0
M  V30 50 H -0.691667 -3.050692 1.255767 0
M  V30 51 H -1.263291 -5.156769 0.271279 0
M  V30 52 H -2.174319 -7.573851 -1.783632 0
M  V30 53 H -2.181644 -7.569025 -1.798743 0
M  V30 54 H -5.416374 -2.090462 -3.026730 0
M  V30 55 H -6.489672 -3.562905 -3.071590 0
M  V30 56 H -7.875980 -4.216116 -1.304472 0
M  V30 57 H -9.546361 -3.517237 0.262430 0
M  V30 58 H -9.558316 -1.203422 1.176390 0
M  V30 59 H -7.811172 0.325632 0.420797 0
M  V30 60 H -6.111181 -0.380915 -1.188880 0
M  V30 61 H -4.046709 -1.319685 -0.671886 0
M  V30 62 H -4.027418 0.009311 1.643875 0
M  V30 63 H 0.047074 2.944378 2.198903 0
M  V30 64 H 2.094712 4.454258 1.303396 0
M  V30 END ATOM
M  V30 BEGIN BOND
M  V30 1 1 1 2
M  V30 2 1 2 3
M  V30 3 1 2 4
M  V30 4 1 4 5
M  V30 5 1 5 6
M  V30 6 1 6 7
M  V30 7 2 7 8
M  V30 8 1 8 9
M  V30 9 1 9 10
M  V30 10 2 10 11
M  V30 11 1 11 12
M  V30 12 1 12 13
M  V30 13 1 13 14
M  V30 14 2 14 15
M  V30 15 1 15 16
M  V30 16 2 16 17
M  V30 17 1 17 18
M  V30 18 1 18 19
M  V30 19 2 18 20
M  V30 20 1 17 21
M  V30 21 1 21 22
M  V30 22 1 22 23
M  V30 23 1 23 24
M  V30 24 2 24 25
M  V30 25 1 25 26
M  V30 26 2 26 27
M  V30 27 1 27 28
M  V30 28 2 28 29
M  V30 29 2 21 30
M  V30 30 2 13 31
M  V30 31 1 31 32
M  V30 32 2 32 33
M  V30 33 1 33 34
M  V30 34 1 8 35
M  V30 35 2 35 36
M  V30 36 1 36 6
M  V30 37 2 34 9
M  V30 38 1 33 12
M  V30 39 1 30 14
M  V30 40 1 29 24
M  V30 41 1 1 37
M  V30 42 1 1 38
M  V30 43 1 1 39
M  V30 44 1 3 40
M  V30 45 1 3 41
M  V30 46 1 3 42
M  V30 47 1 4 43
M  V30 48 1 4 44
M  V30 49 1 5 45
M  V30 50 1 5 46
M  V30 51 1 7 47
M  V30 52 1 10 48
M  V30 53 1 11 49
M  V30 54 1 15 50
M  V30 55 1 16 51
M  V30 56 1 19 52
M  V30 57 1 19 53
M  V30 58 1 23 54
M  V30 59 1 23 55
M  V30 60 1 25 56
M  V30 61 1 26 57
M  V30 62 1 27 58
M  V30 63 1 28 59
M  V30 64 1 29 60
M  V30 65 1 30 61
M  V30 66 1 31 62
M  V30 67 1 34 63
M  V30 68 1 35 64
M  V30 END BOND
M  V30 END CTAB
M  END
>  <Dataset>  (707) 
ChEMBL_Kinases

>  <Ligand_Instance>  (707) 
nan

>  <PDB_ID>  (707) 
nan

>  <Standardized_SMILES>  (707) 
CN(C)CCn1cc(-c2ccn3c(-c4ccc(C(N)=O)c(OCc5ccccc5)c4)cnc3c2)cn1

>  <Name>  (707) 
nan

>  <Pocket>  (707) 
nan

>  <ATP_Site>  (707) 
nan

>  <Peripheral>  (707) 
nan

>  <Num_H_Atoms_ProtBoundConf>  (707) 
nan

>  <Num_Resolved_Atoms>  (707) 
nan

>  <Num_Not_Resolved_Atoms>  (707) 
nan

$$$$
CHEMBL4062967
     RDKit          3D

  0  0  0  0  0  0  0  0  0  0999 V3000
M  V30 BEGIN CTAB
M  V30 COUNTS 36 38 0 0 0
M  V30 BEGIN ATOM
M  V30 1 C 2.196868 -3.616176 4.956025 0
M  V30 2 O 1.965265 -4.681406 4.052832 0
M  V30 3 C 1.598682 -4.494688 2.737627 0
M  V30 4 C 1.359816 -5.492407 1.812265 0
M  V30 5 C 0.995036 -5.220444 0.508792 0
M  V30 6 C 0.857875 -3.913412 0.092257 0
M  V30 7 C 1.080414 -2.865370 0.961620 0
M  V30 8 N 0.946013 -1.513882 0.557929 0
M  V30 9 C 0.560414 -1.272115 -0.822557 0
M  V30 10 C 0.471102 0.202825 -1.054731 0
M  V30 11 N -0.617716 0.977404 -0.891850 0
M  V30 12 C -0.304248 2.267205 -1.201945 0
M  V30 13 C -1.303731 3.329731 -1.113597 0
M  V30 14 C -1.199336 4.197307 -0.035628 0
M  V30 15 C -2.149377 5.195270 0.034999 0
M  V30 16 N -3.149872 5.362562 -0.872398 0
M  V30 17 C -3.254845 4.523870 -1.918906 0
M  V30 18 C -2.326666 3.501017 -2.041076 0
M  V30 19 N 1.003580 2.244876 -1.555570 0
M  V30 20 N 1.468082 1.010193 -1.467732 0
M  V30 21 C 1.441764 -3.202436 2.248699 0
M  V30 22 H 3.181024 -3.134308 4.819195 0
M  V30 23 H 1.395903 -2.859877 4.905345 0
M  V30 24 H 2.160056 -4.028508 5.988605 0
M  V30 25 H 1.481703 -6.514831 2.190915 0
M  V30 26 H 0.829821 -6.073658 -0.141207 0
M  V30 27 H 0.571703 -3.733465 -0.932376 0
M  V30 28 H 1.125255 -0.765489 1.252262 0
M  V30 29 H -0.484575 -1.683322 -0.945222 0
M  V30 30 H 1.239986 -1.721911 -1.553293 0
M  V30 31 H -0.431319 4.137938 0.737673 0
M  V30 32 H -2.167634 5.925055 0.825858 0
M  V30 33 H -4.022871 4.577961 -2.698049 0
M  V30 34 H -2.385666 2.819198 -2.863029 0
M  V30 35 H 2.468861 0.749609 -1.695964 0
M  V30 36 H 1.612300 -2.361189 2.917218 0
M  V30 END ATOM
M  V30 BEGIN BOND
M  V30 1 1 1 2
M  V30 2 1 2 3
M  V30 3 2 3 4
M  V30 4 1 4 5
M  V30 5 2 5 6
M  V30 6 1 6 7
M  V30 7 1 7 8
M  V30 8 1 8 9
M  V30 9 1 9 10
M  V30 10 2 10 11
M  V30 11 1 11 12
M  V30 12 1 12 13
M  V30 13 2 13 14
M  V30 14 1 14 15
M  V30 15 2 15 16
M  V30 16 1 16 17
M  V30 17 2 17 18
M  V30 18 2 12 19
M  V30 19 1 19 20
M  V30 20 2 7 21
M  V30 21 1 21 3
M  V30 22 1 20 10
M  V30 23 1 18 13
M  V30 24 1 1 22
M  V30 25 1 1 23
M  V30 26 1 1 24
M  V30 27 1 4 25
M  V30 28 1 5 26
M  V30 29 1 6 27
M  V30 30 1 8 28
M  V30 31 1 9 29
M  V30 32 1 9 30
M  V30 33 1 14 31
M  V30 34 1 15 32
M  V30 35 1 17 33
M  V30 36 1 18 34
M  V30 37 1 20 35
M  V30 38 1 21 36
M  V30 END BOND
M  V30 END CTAB
M  END
>  <Dataset>  (708) 
ChEMBL_Kinases

>  <Ligand_Instance>  (708) 
nan

>  <PDB_ID>  (708) 
nan

>  <Standardized_SMILES>  (708) 
COc1cccc(NCc2nc(-c3ccncc3)n[nH]2)c1

>  <Name>  (708) 
nan

>  <Pocket>  (708) 
nan

>  <ATP_Site>  (708) 
nan

>  <Peripheral>  (708) 
nan

>  <Num_H_Atoms_ProtBoundConf>  (708) 
nan

>  <Num_Resolved_Atoms>  (708) 
nan

>  <Num_Not_Resolved_Atoms>  (708) 
nan

$$$$
CHEMBL3921064
     RDKit          3D

  0  0  0  0  0  0  0  0  0  0999 V3000
M  V30 BEGIN CTAB
M  V30 COUNTS 53 57 0 0 0
M  V30 BEGIN ATOM
M  V30 1 N 0.987097 -1.428417 4.720737 0
M  V30 2 C 1.911105 -0.517421 4.055760 0 CFG=1
M  V30 3 C 3.056248 -1.241136 3.428840 0
M  V30 4 C 4.054006 -0.165657 2.978186 0
M  V30 5 C 3.330557 1.113673 2.645260 0
M  V30 6 N 2.025495 0.853279 2.019226 0
M  V30 7 C 1.837805 1.183570 0.660269 0
M  V30 8 C 2.953058 1.335630 -0.136943 0
M  V30 9 C 2.882422 1.617126 -1.471959 0
M  V30 10 C 1.661940 1.768350 -2.112103 0
M  V30 11 C 0.541727 1.623256 -1.346272 0
M  V30 12 C 0.643272 1.340080 -0.002627 0
M  V30 13 N -0.553312 1.232584 0.731979 0
M  V30 14 C -1.811110 1.364851 0.071426 0
M  V30 15 N -2.568891 2.477345 -0.160048 0
M  V30 16 C -3.688543 2.145320 -0.832826 0
M  V30 17 C -3.684752 0.775956 -1.059701 0
M  V30 18 C -4.497070 -0.160950 -1.664080 0
M  V30 19 C -4.174941 -1.501955 -1.710631 0
M  V30 20 C -2.987826 -1.869915 -1.117728 0
M  V30 21 C -2.486605 -3.237652 -1.070003 0
M  V30 22 C -1.673749 -3.868453 -1.991995 0
M  V30 23 F -1.344343 -3.079722 -3.023121 0
M  V30 24 C -1.297124 -5.187705 -1.772618 0
M  V30 25 C -1.735823 -5.856175 -0.639826 0
M  V30 26 C -2.550948 -5.234627 0.291668 0
M  V30 27 C -2.927285 -3.907394 0.066802 0
M  V30 28 F -3.722810 -3.388499 1.031112 0
M  V30 29 N -2.208088 -0.941662 -0.532759 0
M  V30 30 N -2.522929 0.347137 -0.490923 0
M  V30 31 C 1.124700 0.234732 2.970051 0
M  V30 32 H 0.580838 -2.059195 3.974973 0
M  V30 33 H 0.176367 -0.841439 5.062874 0
M  V30 34 H 2.293480 0.213494 4.779806 0
M  V30 35 H 3.516282 -1.915461 4.165260 0
M  V30 36 H 2.676979 -1.813607 2.550995 0
M  V30 37 H 4.615675 -0.581082 2.141745 0
M  V30 38 H 4.716726 0.009690 3.845164 0
M  V30 39 H 3.097502 1.644250 3.614149 0
M  V30 40 H 3.961220 1.792519 2.062396 0
M  V30 41 H 3.989640 1.253057 0.159243 0
M  V30 42 H 3.729869 1.748040 -2.151472 0
M  V30 43 H 1.542577 1.989350 -3.157747 0
M  V30 44 H -0.434371 1.736061 -1.819772 0
M  V30 45 H -0.917493 1.082837 1.677341 0
M  V30 46 H -4.483776 2.799071 -1.161931 0
M  V30 47 H -5.415948 0.191920 -2.111628 0
M  V30 48 H -4.779834 -2.246610 -2.168544 0
M  V30 49 H -0.661098 -5.602536 -2.543605 0
M  V30 50 H -1.384973 -6.880755 -0.564130 0
M  V30 51 H -2.868404 -5.796473 1.160570 0
M  V30 52 H 0.509500 -0.557312 2.489861 0
M  V30 53 H 0.552024 0.994649 3.526902 0
M  V30 END ATOM
M  V30 BEGIN BOND
M  V30 1 1 1 2
M  V30 2 1 2 3
M  V30 3 1 3 4
M  V30 4 1 4 5
M  V30 5 1 5 6
M  V30 6 1 6 7
M  V30 7 2 7 8
M  V30 8 1 8 9
M  V30 9 2 9 10
M  V30 10 1 10 11
M  V30 11 2 11 12
M  V30 12 1 12 13
M  V30 13 1 13 14
M  V30 14 2 14 15
M  V30 15 1 15 16
M  V30 16 2 16 17
M  V30 17 1 17 18
M  V30 18 2 18 19
M  V30 19 1 19 20
M  V30 20 1 20 21
M  V30 21 2 21 22
M  V30 22 1 22 23
M  V30 23 1 22 24
M  V30 24 2 24 25
M  V30 25 1 25 26
M  V30 26 2 26 27
M  V30 27 1 27 28
M  V30 28 2 20 29
M  V30 29 1 29 30
M  V30 30 1 6 31
M  V30 31 1 31 2
M  V30 32 1 12 7
M  V30 33 1 30 14
M  V30 34 1 30 17
M  V30 35 1 27 21
M  V30 36 1 1 32
M  V30 37 1 1 33
M  V30 38 1 2 34 CFG=1
M  V30 39 1 3 35
M  V30 40 1 3 36
M  V30 41 1 4 37
M  V30 42 1 4 38
M  V30 43 1 5 39
M  V30 44 1 5 40
M  V30 45 1 8 41
M  V30 46 1 9 42
M  V30 47 1 10 43
M  V30 48 1 11 44
M  V30 49 1 13 45
M  V30 50 1 16 46
M  V30 51 1 18 47
M  V30 52 1 19 48
M  V30 53 1 24 49
M  V30 54 1 25 50
M  V30 55 1 26 51
M  V30 56 1 31 52
M  V30 57 1 31 53
M  V30 END BOND
M  V30 END CTAB
M  END
>  <Dataset>  (709) 
ChEMBL_Kinases

>  <Ligand_Instance>  (709) 
nan

>  <PDB_ID>  (709) 
nan

>  <Standardized_SMILES>  (709) 
N[C@H]1CCCN(c2ccccc2Nc2ncc3ccc(-c4c(F)cccc4F)nn23)C1

>  <Name>  (709) 
nan

>  <Pocket>  (709) 
nan

>  <ATP_Site>  (709) 
nan

>  <Peripheral>  (709) 
nan

>  <Num_H_Atoms_ProtBoundConf>  (709) 
nan

>  <Num_Resolved_Atoms>  (709) 
nan

>  <Num_Not_Resolved_Atoms>  (709) 
nan

$$$$
CHEMBL4063713
     RDKit          3D

  0  0  0  0  0  0  0  0  0  0999 V3000
M  V30 BEGIN CTAB
M  V30 COUNTS 52 55 0 0 0
M  V30 BEGIN ATOM
M  V30 1 C 0.667750 -0.506370 -1.559462 0
M  V30 2 N 1.804882 0.058587 -0.859584 0
M  V30 3 C 3.048421 -0.641238 -0.879505 0
M  V30 4 C 3.257540 -1.604914 0.213519 0
M  V30 5 C 2.882109 -2.955234 0.169094 0
M  V30 6 C 3.079979 -3.867846 1.198163 0
M  V30 7 C 3.699715 -3.386612 2.353083 0
M  V30 8 C 4.098414 -2.087177 2.484564 0
M  V30 9 C 3.853438 -1.263054 1.399432 0
M  V30 10 C 1.680305 1.294384 -0.166855 0
M  V30 11 O 2.721291 1.743992 0.426953 0
M  V30 12 C 0.573014 2.214297 0.030517 0
M  V30 13 C 0.832125 3.559593 -0.092476 0
M  V30 14 C -0.111209 4.545870 0.085955 0
M  V30 15 C -1.377054 4.138621 0.404835 0
M  V30 16 C -1.736952 2.800350 0.550908 0
M  V30 17 N -3.016447 2.378846 0.920213 0
M  V30 18 C -3.869693 1.283339 1.121675 0
M  V30 19 C -3.289477 0.090207 1.815727 0
M  V30 20 N -2.857964 -0.960921 1.062793 0
M  V30 21 C -2.376149 -1.948606 1.830391 0
M  V30 22 C -1.896946 -3.140220 1.086495 0
M  V30 23 C -2.891646 -3.761584 0.315226 0
M  V30 24 C -2.678975 -4.900228 -0.472357 0
M  V30 25 N -1.430865 -5.385433 -0.451729 0
M  V30 26 C -0.468680 -4.810923 0.274671 0
M  V30 27 C -0.632940 -3.677764 1.072753 0
M  V30 28 N -2.506742 -1.508295 3.089955 0
M  V30 29 N -3.046802 -0.304632 3.070936 0
M  V30 30 C -0.723124 1.849449 0.353488 0
M  V30 31 H 1.002147 -1.249315 -2.337621 0
M  V30 32 H 0.052012 0.236318 -2.073094 0
M  V30 33 H 0.006567 -1.060655 -0.864671 0
M  V30 34 H 3.164941 -1.178373 -1.838797 0
M  V30 35 H 3.872173 0.128264 -0.774365 0
M  V30 36 H 2.397304 -3.302044 -0.748989 0
M  V30 37 H 2.755736 -4.888625 1.066816 0
M  V30 38 H 3.870277 -4.070720 3.176019 0
M  V30 39 H 4.580988 -1.704161 3.382952 0
M  V30 40 H 4.188974 -0.241324 1.539470 0
M  V30 41 H 1.830719 3.894356 -0.349333 0
M  V30 42 H 0.088883 5.602267 -0.012393 0
M  V30 43 H -2.123825 4.915451 0.545746 0
M  V30 44 H -3.616415 3.238170 1.147716 0
M  V30 45 H -4.795705 1.529332 1.700126 0
M  V30 46 H -4.273583 0.981222 0.107275 0
M  V30 47 H -3.902744 -3.375861 0.296737 0
M  V30 48 H -3.498528 -5.316071 -1.036619 0
M  V30 49 H 0.537340 -5.226773 0.270013 0
M  V30 50 H 0.078193 -3.171419 1.672087 0
M  V30 51 H -3.292494 0.334799 3.834354 0
M  V30 52 H -0.845942 0.782134 0.430882 0
M  V30 END ATOM
M  V30 BEGIN BOND
M  V30 1 1 1 2
M  V30 2 1 2 3
M  V30 3 1 3 4
M  V30 4 2 4 5
M  V30 5 1 5 6
M  V30 6 2 6 7
M  V30 7 1 7 8
M  V30 8 2 8 9
M  V30 9 1 2 10
M  V30 10 2 10 11
M  V30 11 1 10 12
M  V30 12 2 12 13
M  V30 13 1 13 14
M  V30 14 2 14 15
M  V30 15 1 15 16
M  V30 16 1 16 17
M  V30 17 1 17 18
M  V30 18 1 18 19
M  V30 19 2 19 20
M  V30 20 1 20 21
M  V30 21 1 21 22
M  V30 22 2 22 23
M  V30 23 1 23 24
M  V30 24 2 24 25
M  V30 25 1 25 26
M  V30 26 2 26 27
M  V30 27 2 21 28
M  V30 28 1 28 29
M  V30 29 2 16 30
M  V30 30 1 9 4
M  V30 31 1 30 12
M  V30 32 1 29 19
M  V30 33 1 27 22
M  V30 34 1 1 31
M  V30 35 1 1 32
M  V30 36 1 1 33
M  V30 37 1 3 34
M  V30 38 1 3 35
M  V30 39 1 5 36
M  V30 40 1 6 37
M  V30 41 1 7 38
M  V30 42 1 8 39
M  V30 43 1 9 40
M  V30 44 1 13 41
M  V30 45 1 14 42
M  V30 46 1 15 43
M  V30 47 1 17 44
M  V30 48 1 18 45
M  V30 49 1 18 46
M  V30 50 1 23 47
M  V30 51 1 24 48
M  V30 52 1 26 49
M  V30 53 1 27 50
M  V30 54 1 29 51
M  V30 55 1 30 52
M  V30 END BOND
M  V30 END CTAB
M  END
>  <Dataset>  (710) 
ChEMBL_Kinases

>  <Ligand_Instance>  (710) 
nan

>  <PDB_ID>  (710) 
nan

>  <Standardized_SMILES>  (710) 
CN(Cc1ccccc1)C(=O)c1cccc(NCc2nc(-c3ccncc3)n[nH]2)c1

>  <Name>  (710) 
nan

>  <Pocket>  (710) 
nan

>  <ATP_Site>  (710) 
nan

>  <Peripheral>  (710) 
nan

>  <Num_H_Atoms_ProtBoundConf>  (710) 
nan

>  <Num_Resolved_Atoms>  (710) 
nan

>  <Num_Not_Resolved_Atoms>  (710) 
nan

$$$$
CHEMBL4065802
     RDKit          3D

  0  0  0  0  0  0  0  0  0  0999 V3000
M  V30 BEGIN CTAB
M  V30 COUNTS 45 48 0 0 0
M  V30 BEGIN ATOM
M  V30 1 C 2.604464 -2.236202 2.773471 0
M  V30 2 C 1.659610 -1.486123 1.893404 0
M  V30 3 C 2.184849 -0.612866 0.954763 0
M  V30 4 C 1.247434 0.041217 0.181963 0
M  V30 5 N 1.709914 0.956239 -0.806704 0
M  V30 6 C 3.066105 1.274580 -1.091698 0
M  V30 7 C 3.903537 2.246803 -0.558788 0
M  V30 8 C 5.201525 2.315051 -1.048998 0
M  V30 9 N 5.972105 3.350275 -0.430054 0
M  V30 10 N 5.618328 1.477305 -1.993172 0
M  V30 11 C 4.817130 0.535508 -2.513588 0
M  V30 12 N 3.534518 0.434104 -2.060172 0
M  V30 13 C -0.120014 -0.109981 0.277382 0
M  V30 14 O -0.899413 0.539340 -0.481896 0
M  V30 15 N -0.589245 -0.966071 1.200142 0
M  V30 16 C 0.294681 -1.623268 1.973626 0
M  V30 17 C -0.429798 -2.501587 2.908370 0
M  V30 18 O -0.114570 -3.298957 3.807738 0
M  V30 19 N -1.806473 -2.300179 2.613350 0
M  V30 20 C -1.949340 -1.342665 1.544337 0
M  V30 21 C -2.812574 -0.227410 1.997597 0
M  V30 22 C -4.255165 -0.311291 1.610863 0
M  V30 23 C -4.793893 -1.656465 1.306983 0
M  V30 24 F -5.920563 -1.480869 0.497839 0
M  V30 25 F -5.273553 -2.282079 2.459231 0
M  V30 26 C -3.887680 -2.594215 0.576749 0
M  V30 27 C -2.559503 -1.939336 0.300208 0
M  V30 28 H 3.061926 -1.525821 3.493181 0
M  V30 29 H 2.145603 -3.100187 3.252410 0
M  V30 30 H 3.438152 -2.631352 2.134715 0
M  V30 31 H 3.248356 -0.455183 0.835472 0
M  V30 32 H 1.086887 1.501395 -1.439805 0
M  V30 33 H 3.393721 2.823203 0.186107 0
M  V30 34 H 6.179872 4.184751 -1.033979 0
M  V30 35 H 6.399400 3.490914 0.515385 0
M  V30 36 H 5.210828 -0.119371 -3.281242 0
M  V30 37 H -2.669995 -2.718422 3.032645 0
M  V30 38 H -2.698795 -0.144095 3.119152 0
M  V30 39 H -2.436399 0.765368 1.623196 0
M  V30 40 H -4.491847 0.402111 0.774052 0
M  V30 41 H -4.844832 0.099345 2.468920 0
M  V30 42 H -4.291237 -2.946089 -0.395364 0
M  V30 43 H -3.682008 -3.524761 1.153436 0
M  V30 44 H -1.860514 -2.600078 -0.220480 0
M  V30 45 H -2.762698 -1.075594 -0.390600 0
M  V30 END ATOM
M  V30 BEGIN BOND
M  V30 1 1 1 2
M  V30 2 1 2 3
M  V30 3 2 3 4
M  V30 4 1 4 5
M  V30 5 1 5 6
M  V30 6 2 6 7
M  V30 7 1 7 8
M  V30 8 1 8 9
M  V30 9 2 8 10
M  V30 10 1 10 11
M  V30 11 2 11 12
M  V30 12 1 4 13
M  V30 13 2 13 14
M  V30 14 1 13 15
M  V30 15 1 15 16
M  V30 16 1 16 17
M  V30 17 2 17 18
M  V30 18 1 17 19
M  V30 19 1 19 20
M  V30 20 1 20 21
M  V30 21 1 21 22
M  V30 22 1 22 23
M  V30 23 1 23 24
M  V30 24 1 23 25
M  V30 25 1 23 26
M  V30 26 1 26 27
M  V30 27 2 16 2
M  V30 28 1 27 20
M  V30 29 1 12 6
M  V30 30 1 20 15
M  V30 31 1 1 28
M  V30 32 1 1 29
M  V30 33 1 1 30
M  V30 34 1 3 31
M  V30 35 1 5 32
M  V30 36 1 7 33
M  V30 37 1 9 34
M  V30 38 1 9 35
M  V30 39 1 11 36
M  V30 40 1 19 37
M  V30 41 1 21 38
M  V30 42 1 21 39
M  V30 43 1 22 40
M  V30 44 1 22 41
M  V30 45 1 26 42
M  V30 46 1 26 43
M  V30 47 1 27 44
M  V30 48 1 27 45
M  V30 END BOND
M  V30 END CTAB
M  END
>  <Dataset>  (711) 
ChEMBL_Kinases

>  <Ligand_Instance>  (711) 
nan

>  <PDB_ID>  (711) 
nan

>  <Standardized_SMILES>  (711) 
Cc1cc(Nc2cc(N)ncn2)c(=O)n2c1C(=O)NC21CCC(F)(F)CC1

>  <Name>  (711) 
nan

>  <Pocket>  (711) 
nan

>  <ATP_Site>  (711) 
nan

>  <Peripheral>  (711) 
nan

>  <Num_H_Atoms_ProtBoundConf>  (711) 
nan

>  <Num_Resolved_Atoms>  (711) 
nan

>  <Num_Not_Resolved_Atoms>  (711) 
nan

$$$$
CHEMBL3655763
     RDKit          3D

  0  0  0  0  0  0  0  0  0  0999 V3000
M  V30 BEGIN CTAB
M  V30 COUNTS 57 59 0 0 0
M  V30 BEGIN ATOM
M  V30 1 C 0.036949 0.884301 -1.638244 0
M  V30 2 C 0.478804 -0.163004 -2.640508 0
M  V30 3 C -0.274414 -1.438193 -2.428942 0 CFG=2
M  V30 4 N -0.104503 -2.035336 -1.134121 0
M  V30 5 C -0.260591 -1.842549 0.255640 0
M  V30 6 N 0.665320 -1.412638 1.129299 0
M  V30 7 C 0.427497 -1.253353 2.437054 0
M  V30 8 N 1.398253 -0.806739 3.370001 0
M  V30 9 C 2.758549 -0.453575 3.098642 0
M  V30 10 C 2.955894 0.673755 2.185635 0
M  V30 11 C 2.983765 1.929057 2.805636 0
M  V30 12 C 3.175523 3.088086 2.054425 0
M  V30 13 C 3.339785 3.022605 0.701136 0
M  V30 14 C 3.548002 4.220862 -0.151904 0
M  V30 15 N 3.311315 1.814223 0.116811 0
M  V30 16 C 3.128505 0.685853 0.816908 0
M  V30 17 C -0.878683 -1.573916 2.827580 0
M  V30 18 N -1.439909 -1.527099 4.047288 0
M  V30 19 C -2.720832 -1.923109 3.969826 0
M  V30 20 N -2.962352 -2.221551 2.681473 0
M  V30 21 C -4.231553 -2.684144 2.205785 0
M  V30 22 C -4.606001 -3.994986 2.859383 0
M  V30 23 C -4.278454 -2.847366 0.713405 0
M  V30 24 C -1.853734 -2.016959 1.963937 0
M  V30 25 N -1.521562 -2.145549 0.671696 0
M  V30 26 C -0.086732 -2.432782 -3.545171 0 CFG=1
M  V30 27 C -0.547780 -1.798222 -4.810937 0
M  V30 28 O 1.149836 -3.024747 -3.586439 0
M  V30 29 H -0.561731 0.379171 -0.841844 0
M  V30 30 H 0.872229 1.396556 -1.157924 0
M  V30 31 H -0.660610 1.614995 -2.103656 0
M  V30 32 H 1.569573 -0.294101 -2.494213 0
M  V30 33 H 0.300768 0.257676 -3.635742 0
M  V30 34 H -1.366952 -1.151232 -2.504206 0
M  V30 35 H 0.293626 -3.018718 -1.116111 0
M  V30 36 H 1.051172 -0.735733 4.365390 0
M  V30 37 H 3.321669 -1.355337 2.707021 0
M  V30 38 H 3.273424 -0.245442 4.078170 0
M  V30 39 H 2.869721 2.131592 3.854362 0
M  V30 40 H 3.205799 4.080296 2.482963 0
M  V30 41 H 3.861542 5.044237 0.524221 0
M  V30 42 H 4.347332 4.055437 -0.900504 0
M  V30 43 H 2.590880 4.481586 -0.641798 0
M  V30 44 H 3.102899 -0.295863 0.369970 0
M  V30 45 H -3.342677 -1.952258 4.859797 0
M  V30 46 H -5.048104 -1.973607 2.457372 0
M  V30 47 H -5.173123 -3.806760 3.808330 0
M  V30 48 H -5.347347 -4.498974 2.181312 0
M  V30 49 H -3.746033 -4.668046 3.011694 0
M  V30 50 H -4.044989 -1.851402 0.272460 0
M  V30 51 H -5.345000 -3.040391 0.434781 0
M  V30 52 H -3.690808 -3.677741 0.318043 0
M  V30 53 H -0.819969 -3.263680 -3.311481 0
M  V30 54 H 0.283014 -1.526586 -5.490297 0
M  V30 55 H -1.126795 -0.873503 -4.608487 0
M  V30 56 H -1.281014 -2.452085 -5.366321 0
M  V30 57 H 1.082622 -3.996762 -3.837505 0
M  V30 END ATOM
M  V30 BEGIN BOND
M  V30 1 1 1 2
M  V30 2 1 2 3
M  V30 3 1 3 4
M  V30 4 1 4 5
M  V30 5 2 5 6
M  V30 6 1 6 7
M  V30 7 1 7 8
M  V30 8 1 8 9
M  V30 9 1 9 10
M  V30 10 2 10 11
M  V30 11 1 11 12
M  V30 12 2 12 13
M  V30 13 1 13 14
M  V30 14 1 13 15
M  V30 15 2 15 16
M  V30 16 2 7 17
M  V30 17 1 17 18
M  V30 18 2 18 19
M  V30 19 1 19 20
M  V30 20 1 20 21
M  V30 21 1 21 22
M  V30 22 1 21 23
M  V30 23 1 20 24
M  V30 24 2 24 25
M  V30 25 1 3 26
M  V30 26 1 26 27
M  V30 27 1 26 28
M  V30 28 1 25 5
M  V30 29 1 16 10
M  V30 30 1 24 17
M  V30 31 1 1 29
M  V30 32 1 1 30
M  V30 33 1 1 31
M  V30 34 1 2 32
M  V30 35 1 2 33
M  V30 36 1 3 34 CFG=1
M  V30 37 1 4 35
M  V30 38 1 8 36
M  V30 39 1 9 37
M  V30 40 1 9 38
M  V30 41 1 11 39
M  V30 42 1 12 40
M  V30 43 1 14 41
M  V30 44 1 14 42
M  V30 45 1 14 43
M  V30 46 1 16 44
M  V30 47 1 19 45
M  V30 48 1 21 46
M  V30 49 1 22 47
M  V30 50 1 22 48
M  V30 51 1 22 49
M  V30 52 1 23 50
M  V30 53 1 23 51
M  V30 54 1 23 52
M  V30 55 1 26 53 CFG=1
M  V30 56 1 27 54
M  V30 57 1 27 55
M  V30 58 1 27 56
M  V30 59 1 28 57
M  V30 END BOND
M  V30 END CTAB
M  END
>  <Dataset>  (712) 
ChEMBL_Kinases

>  <Ligand_Instance>  (712) 
nan

>  <PDB_ID>  (712) 
nan

>  <Standardized_SMILES>  (712) 
CC[C@H](Nc1nc(NCc2ccc(C)nc2)c2ncn(C(C)C)c2n1)[C@@H](C)O

>  <Name>  (712) 
nan

>  <Pocket>  (712) 
nan

>  <ATP_Site>  (712) 
nan

>  <Peripheral>  (712) 
nan

>  <Num_H_Atoms_ProtBoundConf>  (712) 
nan

>  <Num_Resolved_Atoms>  (712) 
nan

>  <Num_Not_Resolved_Atoms>  (712) 
nan

$$$$
CHEMBL3655587
     RDKit          3D

  0  0  0  0  0  0  0  0  0  0999 V3000
M  V30 BEGIN CTAB
M  V30 COUNTS 49 52 0 0 0
M  V30 BEGIN ATOM
M  V30 1 C -2.155322 -4.397176 -0.219106 0
M  V30 2 S -0.558859 -4.928733 -0.785807 0
M  V30 3 O -0.720041 -6.187671 -1.596949 0
M  V30 4 O 0.342765 -5.273476 0.363315 0
M  V30 5 N 0.205027 -3.780615 -1.776004 0
M  V30 6 C 0.475730 -2.506649 -1.131571 0 CFG=1
M  V30 7 C 1.928252 -2.158920 -1.138418 0
M  V30 8 C 2.097707 -0.736347 -0.654482 0
M  V30 9 C 1.429363 0.197363 -1.630532 0 CFG=2
M  V30 10 N 1.727938 1.567287 -1.341968 0
M  V30 11 C 1.402603 2.291210 -0.138727 0
M  V30 12 N 1.775997 3.593264 -0.039293 0
M  V30 13 C 1.489527 4.301295 1.060408 0
M  V30 14 C 0.810209 3.634380 2.051665 0
M  V30 15 C 0.407074 2.309672 1.999767 0
M  V30 16 C -0.309044 1.752716 3.139400 0
M  V30 17 C -0.620414 2.466242 4.300305 0
M  V30 18 N -1.278284 1.640293 5.129665 0
M  V30 19 C -1.406015 0.430720 4.560450 0
M  V30 20 C -1.999776 -0.726851 5.022369 0
M  V30 21 C -1.991269 -1.850544 4.221843 0
M  V30 22 C -1.385305 -1.754725 2.994547 0
M  V30 23 C -0.815232 -0.559752 2.609351 0
M  V30 24 N -0.807250 0.548677 3.364557 0
M  V30 25 N 0.738798 1.681286 0.858728 0
M  V30 26 C -0.065948 -0.077033 -1.559527 0
M  V30 27 C -0.326997 -1.495609 -1.929494 0
M  V30 28 H -2.094237 -3.392216 0.232908 0
M  V30 29 H -2.920440 -4.476296 -0.997882 0
M  V30 30 H -2.461754 -5.108259 0.602442 0
M  V30 31 H 1.045045 -4.175434 -2.220887 0
M  V30 32 H 0.121739 -2.537532 -0.086547 0
M  V30 33 H 2.396864 -2.306100 -2.138880 0
M  V30 34 H 2.471060 -2.804212 -0.410956 0
M  V30 35 H 3.182384 -0.516520 -0.539359 0
M  V30 36 H 1.601662 -0.638567 0.324694 0
M  V30 37 H 1.730339 -0.024520 -2.668324 0
M  V30 38 H 2.237667 2.114947 -2.073926 0
M  V30 39 H 1.774770 5.338185 1.165097 0
M  V30 40 H 0.589247 4.231279 2.934681 0
M  V30 41 H -0.404770 3.494143 4.555253 0
M  V30 42 H -2.459391 -0.714451 6.012470 0
M  V30 43 H -2.449117 -2.768534 4.560356 0
M  V30 44 H -1.394134 -2.642025 2.397435 0
M  V30 45 H -0.364102 -0.549391 1.647384 0
M  V30 46 H -0.470526 0.247888 -0.604760 0
M  V30 47 H -0.492970 0.539791 -2.404041 0
M  V30 48 H -1.389881 -1.763188 -1.781942 0
M  V30 49 H -0.047790 -1.636744 -2.994108 0
M  V30 END ATOM
M  V30 BEGIN BOND
M  V30 1 1 1 2
M  V30 2 2 2 3
M  V30 3 2 2 4
M  V30 4 1 2 5
M  V30 5 1 5 6
M  V30 6 1 6 7
M  V30 7 1 7 8
M  V30 8 1 8 9
M  V30 9 1 9 10
M  V30 10 1 10 11
M  V30 11 2 11 12
M  V30 12 1 12 13
M  V30 13 2 13 14
M  V30 14 1 14 15
M  V30 15 1 15 16
M  V30 16 2 16 17
M  V30 17 1 17 18
M  V30 18 2 18 19
M  V30 19 1 19 20
M  V30 20 2 20 21
M  V30 21 1 21 22
M  V30 22 2 22 23
M  V30 23 1 23 24
M  V30 24 2 15 25
M  V30 25 1 9 26
M  V30 26 1 26 27
M  V30 27 1 27 6
M  V30 28 1 25 11
M  V30 29 1 24 16
M  V30 30 1 24 19
M  V30 31 1 1 28
M  V30 32 1 1 29
M  V30 33 1 1 30
M  V30 34 1 5 31
M  V30 35 1 6 32 CFG=1
M  V30 36 1 7 33
M  V30 37 1 7 34
M  V30 38 1 8 35
M  V30 39 1 8 36
M  V30 40 1 9 37 CFG=3
M  V30 41 1 10 38
M  V30 42 1 13 39
M  V30 43 1 14 40
M  V30 44 1 17 41
M  V30 45 1 20 42
M  V30 46 1 21 43
M  V30 47 1 22 44
M  V30 48 1 23 45
M  V30 49 1 26 46
M  V30 50 1 26 47
M  V30 51 1 27 48
M  V30 52 1 27 49
M  V30 END BOND
M  V30 END CTAB
M  END
>  <Dataset>  (713) 
ChEMBL_Kinases

>  <Ligand_Instance>  (713) 
nan

>  <PDB_ID>  (713) 
nan

>  <Standardized_SMILES>  (713) 
CS(=O)(=O)N[C@H]1CC[C@H](Nc2nccc(-c3cnc4ccccn34)n2)CC1

>  <Name>  (713) 
nan

>  <Pocket>  (713) 
nan

>  <ATP_Site>  (713) 
nan

>  <Peripheral>  (713) 
nan

>  <Num_H_Atoms_ProtBoundConf>  (713) 
nan

>  <Num_Resolved_Atoms>  (713) 
nan

>  <Num_Not_Resolved_Atoms>  (713) 
nan

$$$$
CHEMBL4065551
     RDKit          3D

  0  0  0  0  0  0  0  0  0  0999 V3000
M  V30 BEGIN CTAB
M  V30 COUNTS 35 37 0 0 0
M  V30 BEGIN ATOM
M  V30 1 C 0.802324 -5.215894 -0.353369 0
M  V30 2 S 1.896025 -4.533087 -1.569336 0
M  V30 3 O 1.153138 -4.100415 -2.798918 0
M  V30 4 O 2.889423 -5.590934 -1.900276 0
M  V30 5 N 2.644924 -3.129265 -0.891777 0
M  V30 6 C 1.865688 -2.030556 -0.497510 0
M  V30 7 C 0.840280 -1.485354 -1.240708 0
M  V30 8 C 0.164149 -0.391697 -0.701430 0
M  V30 9 C 0.440741 0.190734 0.521868 0
M  V30 10 C -0.371081 1.331058 0.854977 0
M  V30 11 N -0.385198 2.278339 -0.127004 0
M  V30 12 C -1.099827 3.407674 0.023662 0
M  V30 13 N -1.125399 4.416237 -1.000932 0
M  V30 14 N -1.835344 3.660332 1.146482 0
M  V30 15 C -1.857835 2.748422 2.157119 0
M  V30 16 N -2.452756 2.645716 3.359308 0
M  V30 17 C -2.109929 1.476179 3.929849 0
M  V30 18 C -1.263527 0.794708 3.071028 0
M  V30 19 C -0.740769 -0.499704 3.392204 0
M  V30 20 N -0.332557 -1.548226 3.665968 0
M  V30 21 C -1.118993 1.605940 1.974297 0
M  V30 22 C 1.476759 -0.407236 1.204864 0
M  V30 23 C 2.183443 -1.488644 0.728506 0
M  V30 24 H 0.738892 -4.566194 0.545801 0
M  V30 25 H 1.140961 -6.201357 0.029826 0
M  V30 26 H -0.204596 -5.336953 -0.803391 0
M  V30 27 H 3.682699 -3.093446 -0.773002 0
M  V30 28 H 0.601897 -1.913191 -2.191227 0
M  V30 29 H -0.622623 -0.030114 -1.351288 0
M  V30 30 H -2.103283 4.771346 -1.221504 0
M  V30 31 H -0.164701 4.626368 -1.354181 0
M  V30 32 H -3.080120 3.372071 3.768906 0
M  V30 33 H -2.465117 1.181657 4.886918 0
M  V30 34 H 1.724223 0.039721 2.155364 0
M  V30 35 H 2.982253 -1.855689 1.388196 0
M  V30 END ATOM
M  V30 BEGIN BOND
M  V30 1 1 1 2
M  V30 2 2 2 3
M  V30 3 2 2 4
M  V30 4 1 2 5
M  V30 5 1 5 6
M  V30 6 2 6 7
M  V30 7 1 7 8
M  V30 8 2 8 9
M  V30 9 1 9 10
M  V30 10 2 10 11
M  V30 11 1 11 12
M  V30 12 1 12 13
M  V30 13 2 12 14
M  V30 14 1 14 15
M  V30 15 1 15 16
M  V30 16 1 16 17
M  V30 17 2 17 18
M  V30 18 1 18 19
M  V30 19 3 19 20
M  V30 20 1 18 21
M  V30 21 1 9 22
M  V30 22 2 22 23
M  V30 23 1 23 6
M  V30 24 1 21 10
M  V30 25 2 21 15
M  V30 26 1 1 24
M  V30 27 1 1 25
M  V30 28 1 1 26
M  V30 29 1 5 27
M  V30 30 1 7 28
M  V30 31 1 8 29
M  V30 32 1 13 30
M  V30 33 1 13 31
M  V30 34 1 16 32
M  V30 35 1 17 33
M  V30 36 1 22 34
M  V30 37 1 23 35
M  V30 END BOND
M  V30 END CTAB
M  END
>  <Dataset>  (714) 
ChEMBL_Kinases

>  <Ligand_Instance>  (714) 
nan

>  <PDB_ID>  (714) 
nan

>  <Standardized_SMILES>  (714) 
CS(=O)(=O)Nc1ccc(-c2nc(N)nc3[nH]cc(C#N)c23)cc1

>  <Name>  (714) 
nan

>  <Pocket>  (714) 
nan

>  <ATP_Site>  (714) 
nan

>  <Peripheral>  (714) 
nan

>  <Num_H_Atoms_ProtBoundConf>  (714) 
nan

>  <Num_Resolved_Atoms>  (714) 
nan

>  <Num_Not_Resolved_Atoms>  (714) 
nan

$$$$
CHEMBL4065514
     RDKit          3D

  0  0  0  0  0  0  0  0  0  0999 V3000
M  V30 BEGIN CTAB
M  V30 COUNTS 49 52 0 0 0
M  V30 BEGIN ATOM
M  V30 1 C 2.638412 -5.545615 0.705932 0
M  V30 2 C 1.471240 -4.830209 0.705563 0
M  V30 3 C 1.139846 -3.821788 -0.201261 0
M  V30 4 C 2.102143 -3.543202 -1.178747 0
M  V30 5 C 1.793093 -2.479306 -2.163439 0
M  V30 6 C 2.260433 -1.120696 -1.689499 0
M  V30 7 O 1.624866 -0.787026 -0.474361 0
M  V30 8 C 1.888549 0.415517 0.164497 0
M  V30 9 C 2.781485 1.317126 -0.374713 0
M  V30 10 C 3.020057 2.502862 0.286609 0
M  V30 11 C 2.397115 2.821722 1.470458 0
M  V30 12 C 1.482909 1.936024 2.054060 0
M  V30 13 N 0.839846 2.239474 3.277845 0
M  V30 14 C -0.147833 1.478016 4.017497 0
M  V30 15 C -1.443095 1.372422 3.292754 0
M  V30 16 N -2.007346 0.510267 2.430467 0
M  V30 17 C -3.238828 0.891962 2.058539 0
M  V30 18 C -4.121013 0.182477 1.136391 0
M  V30 19 C -3.739992 -1.049399 0.646066 0
M  V30 20 C -4.609402 -1.682792 -0.224629 0
M  V30 21 N -5.780984 -1.116622 -0.577879 0
M  V30 22 C -6.142312 0.073481 -0.100251 0
M  V30 23 C -5.322553 0.760468 0.772579 0
M  V30 24 N -3.468991 2.045537 2.711032 0
M  V30 25 N -2.394802 2.344204 3.456831 0
M  V30 26 C 1.283351 0.767092 1.350526 0
M  V30 27 C 3.290651 -4.247444 -1.205657 0
M  V30 28 C 3.557844 -5.235809 -0.277125 0
M  V30 29 H 2.793932 -6.303366 1.451844 0
M  V30 30 H 0.718980 -5.052289 1.474548 0
M  V30 31 H 0.192762 -3.301866 -0.133344 0
M  V30 32 H 0.682300 -2.461594 -2.317548 0
M  V30 33 H 2.247644 -2.724255 -3.143745 0
M  V30 34 H 3.371314 -1.163497 -1.602596 0
M  V30 35 H 1.982401 -0.381292 -2.467013 0
M  V30 36 H 3.277905 1.078708 -1.304917 0
M  V30 37 H 3.716784 3.235130 -0.109404 0
M  V30 38 H 2.601203 3.773918 1.983257 0
M  V30 39 H 1.122108 3.152992 3.711697 0
M  V30 40 H -0.342942 1.941968 4.998013 0
M  V30 41 H 0.280804 0.453816 4.200695 0
M  V30 42 H -2.796792 -1.540240 0.910193 0
M  V30 43 H -4.358135 -2.668714 -0.648250 0
M  V30 44 H -7.095946 0.462853 -0.429086 0
M  V30 45 H -5.634868 1.723422 1.147465 0
M  V30 46 H -2.418895 3.216802 4.026707 0
M  V30 47 H 0.601372 0.018286 1.726962 0
M  V30 48 H 4.003332 -3.992170 -1.984693 0
M  V30 49 H 4.492949 -5.774809 -0.315269 0
M  V30 END ATOM
M  V30 BEGIN BOND
M  V30 1 2 1 2
M  V30 2 1 2 3
M  V30 3 2 3 4
M  V30 4 1 4 5
M  V30 5 1 5 6
M  V30 6 1 6 7
M  V30 7 1 7 8
M  V30 8 2 8 9
M  V30 9 1 9 10
M  V30 10 2 10 11
M  V30 11 1 11 12
M  V30 12 1 12 13
M  V30 13 1 13 14
M  V30 14 1 14 15
M  V30 15 2 15 16
M  V30 16 1 16 17
M  V30 17 1 17 18
M  V30 18 2 18 19
M  V30 19 1 19 20
M  V30 20 2 20 21
M  V30 21 1 21 22
M  V30 22 2 22 23
M  V30 23 2 17 24
M  V30 24 1 24 25
M  V30 25 2 12 26
M  V30 26 1 4 27
M  V30 27 2 27 28
M  V30 28 1 28 1
M  V30 29 1 26 8
M  V30 30 1 25 15
M  V30 31 1 23 18
M  V30 32 1 1 29
M  V30 33 1 2 30
M  V30 34 1 3 31
M  V30 35 1 5 32
M  V30 36 1 5 33
M  V30 37 1 6 34
M  V30 38 1 6 35
M  V30 39 1 9 36
M  V30 40 1 10 37
M  V30 41 1 11 38
M  V30 42 1 13 39
M  V30 43 1 14 40
M  V30 44 1 14 41
M  V30 45 1 19 42
M  V30 46 1 20 43
M  V30 47 1 22 44
M  V30 48 1 23 45
M  V30 49 1 25 46
M  V30 50 1 26 47
M  V30 51 1 27 48
M  V30 52 1 28 49
M  V30 END BOND
M  V30 END CTAB
M  END
>  <Dataset>  (715) 
ChEMBL_Kinases

>  <Ligand_Instance>  (715) 
nan

>  <PDB_ID>  (715) 
nan

>  <Standardized_SMILES>  (715) 
c1ccc(CCOc2cccc(NCc3nc(-c4ccncc4)n[nH]3)c2)cc1

>  <Name>  (715) 
nan

>  <Pocket>  (715) 
nan

>  <ATP_Site>  (715) 
nan

>  <Peripheral>  (715) 
nan

>  <Num_H_Atoms_ProtBoundConf>  (715) 
nan

>  <Num_Resolved_Atoms>  (715) 
nan

>  <Num_Not_Resolved_Atoms>  (715) 
nan

$$$$
CHEMBL3655586
     RDKit          3D

  0  0  0  0  0  0  0  0  0  0999 V3000
M  V30 BEGIN CTAB
M  V30 COUNTS 56 60 0 0 0
M  V30 BEGIN ATOM
M  V30 1 O 0.724156 4.248218 5.136464 0
M  V30 2 C 1.697100 3.519928 4.481943 0 CFG=1
M  V30 3 C 2.566312 2.768332 5.433674 0
M  V30 4 C 3.437373 1.723469 4.858776 0
M  V30 5 C 3.008741 1.059655 3.614716 0 CFG=2
M  V30 6 N 4.121112 0.659154 2.751439 0
M  V30 7 C 4.054470 -0.036094 1.512457 0
M  V30 8 N 5.178002 -0.321839 0.833072 0
M  V30 9 C 5.118859 -0.983182 -0.336025 0
M  V30 10 C 3.860471 -1.327690 -0.758794 0
M  V30 11 C 2.673111 -1.081340 -0.139804 0
M  V30 12 C 1.316623 -1.396377 -0.491056 0
M  V30 13 C 0.272141 -1.017577 0.348413 0
M  V30 14 N -0.899609 -1.408297 -0.167857 0
M  V30 15 C -0.685380 -2.036116 -1.323374 0
M  V30 16 C -1.491599 -2.633912 -2.266706 0
M  V30 17 O -2.855479 -2.603109 -1.999669 0
M  V30 18 C -3.719871 -3.202113 -2.936086 0
M  V30 19 C -5.148382 -3.123875 -2.574547 0
M  V30 20 C -5.978176 -2.077082 -2.949993 0
M  V30 21 C -7.322018 -2.052707 -2.581059 0
M  V30 22 C -7.841737 -3.100162 -1.820430 0
M  V30 23 C -6.996766 -4.131284 -1.458477 0
M  V30 24 C -5.649944 -4.177681 -1.815379 0
M  V30 25 C -0.971762 -3.222746 -3.400152 0
M  V30 26 C 0.400711 -3.170727 -3.520527 0
M  V30 27 C 1.161622 -2.564252 -2.554644 0
M  V30 28 N 0.643574 -2.000199 -1.465752 0
M  V30 29 N 2.888268 -0.418411 1.008348 0
M  V30 30 C 2.097814 1.897842 2.747688 0
M  V30 31 C 0.992910 2.574178 3.538843 0
M  V30 32 H 0.398548 3.771238 5.940931 0
M  V30 33 H 2.340863 4.172072 3.867838 0
M  V30 34 H 1.885354 2.268385 6.173962 0
M  V30 35 H 3.149425 3.511680 6.044100 0
M  V30 36 H 4.460525 2.154567 4.682269 0
M  V30 37 H 3.632355 0.912700 5.620472 0
M  V30 38 H 2.459384 0.126425 3.855909 0
M  V30 39 H 5.061540 0.930352 3.115753 0
M  V30 40 H 5.997899 -1.227717 -0.904978 0
M  V30 41 H 3.850479 -1.848670 -1.685079 0
M  V30 42 H 0.163685 -0.495144 1.300076 0
M  V30 43 H -3.377409 -4.232982 -3.114901 0
M  V30 44 H -3.628110 -2.687581 -3.931018 0
M  V30 45 H -5.515917 -1.299994 -3.536157 0
M  V30 46 H -7.949610 -1.216562 -2.891004 0
M  V30 47 H -8.885353 -3.110116 -1.517025 0
M  V30 48 H -7.385186 -4.959924 -0.863219 0
M  V30 49 H -5.065906 -5.035123 -1.480570 0
M  V30 50 H -1.628505 -3.683251 -4.121287 0
M  V30 51 H 0.805063 -3.639568 -4.421513 0
M  V30 52 H 2.201719 -2.596006 -2.773368 0
M  V30 53 H 1.592545 1.308797 1.959080 0
M  V30 54 H 2.647873 2.703550 2.214080 0
M  V30 55 H 0.361381 1.856614 4.079945 0
M  V30 56 H 0.398215 3.146386 2.803046 0
M  V30 END ATOM
M  V30 BEGIN BOND
M  V30 1 1 1 2
M  V30 2 1 2 3
M  V30 3 1 3 4
M  V30 4 1 4 5
M  V30 5 1 5 6
M  V30 6 1 6 7
M  V30 7 2 7 8
M  V30 8 1 8 9
M  V30 9 2 9 10
M  V30 10 1 10 11
M  V30 11 1 11 12
M  V30 12 2 12 13
M  V30 13 1 13 14
M  V30 14 2 14 15
M  V30 15 1 15 16
M  V30 16 1 16 17
M  V30 17 1 17 18
M  V30 18 1 18 19
M  V30 19 2 19 20
M  V30 20 1 20 21
M  V30 21 2 21 22
M  V30 22 1 22 23
M  V30 23 2 23 24
M  V30 24 2 16 25
M  V30 25 1 25 26
M  V30 26 2 26 27
M  V30 27 1 27 28
M  V30 28 2 11 29
M  V30 29 1 5 30
M  V30 30 1 30 31
M  V30 31 1 31 2
M  V30 32 1 29 7
M  V30 33 1 28 12
M  V30 34 1 28 15
M  V30 35 1 24 19
M  V30 36 1 1 32
M  V30 37 1 2 33 CFG=3
M  V30 38 1 3 34
M  V30 39 1 3 35
M  V30 40 1 4 36
M  V30 41 1 4 37
M  V30 42 1 5 38 CFG=1
M  V30 43 1 6 39
M  V30 44 1 9 40
M  V30 45 1 10 41
M  V30 46 1 13 42
M  V30 47 1 18 43
M  V30 48 1 18 44
M  V30 49 1 20 45
M  V30 50 1 21 46
M  V30 51 1 22 47
M  V30 52 1 23 48
M  V30 53 1 24 49
M  V30 54 1 25 50
M  V30 55 1 26 51
M  V30 56 1 27 52
M  V30 57 1 30 53
M  V30 58 1 30 54
M  V30 59 1 31 55
M  V30 60 1 31 56
M  V30 END BOND
M  V30 END CTAB
M  END
>  <Dataset>  (716) 
ChEMBL_Kinases

>  <Ligand_Instance>  (716) 
nan

>  <PDB_ID>  (716) 
nan

>  <Standardized_SMILES>  (716) 
O[C@H]1CC[C@H](Nc2nccc(-c3cnc4c(OCc5ccccc5)cccn34)n2)CC1

>  <Name>  (716) 
nan

>  <Pocket>  (716) 
nan

>  <ATP_Site>  (716) 
nan

>  <Peripheral>  (716) 
nan

>  <Num_H_Atoms_ProtBoundConf>  (716) 
nan

>  <Num_Resolved_Atoms>  (716) 
nan

>  <Num_Not_Resolved_Atoms>  (716) 
nan

$$$$
CHEMBL3655585
     RDKit          3D

  0  0  0  0  0  0  0  0  0  0999 V3000
M  V30 BEGIN CTAB
M  V30 COUNTS 64 68 0 0 0
M  V30 BEGIN ATOM
M  V30 1 C 1.986157 0.247146 5.719666 0
M  V30 2 C 1.876398 -0.270056 4.309170 0
M  V30 3 O 2.814402 0.323772 3.423255 0
M  V30 4 C 2.857403 1.687433 3.173280 0
M  V30 5 O 1.910499 2.054151 3.915772 0
M  V30 6 C 3.928949 2.037004 2.213165 0 CFG=1
M  V30 7 C 3.774691 1.359711 0.873632 0
M  V30 8 C 2.823572 2.058002 -0.044927 0
M  V30 9 C 2.219874 3.285620 0.554016 0 CFG=2
M  V30 10 N 1.364785 3.946302 -0.423973 0
M  V30 11 C 0.209590 3.385091 -1.026521 0
M  V30 12 N -0.505291 4.079913 -1.919175 0
M  V30 13 C -1.606049 3.576211 -2.505964 0
M  V30 14 C -1.915952 2.301265 -2.103947 0
M  V30 15 C -1.263505 1.505400 -1.208310 0
M  V30 16 C -1.529354 0.172865 -0.744129 0
M  V30 17 C -0.664690 -0.378069 0.190449 0
M  V30 18 N -1.046926 -1.613349 0.517022 0
M  V30 19 C -2.152545 -1.919766 -0.172341 0
M  V30 20 C -2.966528 -3.065742 -0.219664 0
M  V30 21 O -2.545260 -4.041962 0.590882 0
M  V30 22 C -3.036998 -5.303180 0.835912 0
M  V30 23 C -3.049270 -6.191516 -0.348246 0
M  V30 24 C -3.967192 -6.573210 -1.281737 0
M  V30 25 C -3.684240 -7.418288 -2.312182 0
M  V30 26 C -2.435435 -7.965470 -2.501401 0
M  V30 27 C -1.476390 -7.610778 -1.585382 0
M  V30 28 C -1.771491 -6.748217 -0.536918 0
M  V30 29 C -4.026631 -2.957212 -1.081468 0
M  V30 30 C -4.302518 -1.847506 -1.847039 0
M  V30 31 C -3.445666 -0.779389 -1.728389 0
M  V30 32 N -2.393876 -0.823797 -0.904475 0
M  V30 33 N -0.199981 2.169705 -0.730277 0
M  V30 34 C 3.170551 4.222427 1.206753 0
M  V30 35 C 4.168761 3.500710 2.057104 0
M  V30 36 H 3.039706 0.496878 5.968798 0
M  V30 37 H 1.714091 -0.576696 6.409161 0
M  V30 38 H 1.275329 1.080478 5.938523 0
M  V30 39 H 0.833073 -0.128493 3.966141 0
M  V30 40 H 2.047331 -1.365001 4.336730 0
M  V30 41 H 4.875449 1.616199 2.657826 0
M  V30 42 H 4.774019 1.359508 0.366046 0
M  V30 43 H 3.524304 0.282290 0.987259 0
M  V30 44 H 3.285598 2.323509 -1.025111 0
M  V30 45 H 1.985494 1.368064 -0.320168 0
M  V30 46 H 1.499329 2.920523 1.344255 0
M  V30 47 H 1.651095 4.918548 -0.686731 0
M  V30 48 H -2.196645 4.114601 -3.225594 0
M  V30 49 H -2.793922 1.921883 -2.583194 0
M  V30 50 H 0.244682 -0.065178 0.726974 0
M  V30 51 H -2.495624 -5.814810 1.686670 0
M  V30 52 H -4.099189 -5.182990 1.179845 0
M  V30 53 H -4.929862 -6.114425 -1.063773 0
M  V30 54 H -4.521195 -7.610423 -2.950768 0
M  V30 55 H -2.359599 -8.606058 -3.344747 0
M  V30 56 H -0.499402 -8.048770 -1.746622 0
M  V30 57 H -0.882504 -6.578928 0.093885 0
M  V30 58 H -4.659452 -3.801413 -1.129609 0
M  V30 59 H -5.165067 -1.865672 -2.495439 0
M  V30 60 H -3.716952 0.047112 -2.348797 0
M  V30 61 H 2.590976 4.888160 1.908081 0
M  V30 62 H 3.662642 4.897647 0.476574 0
M  V30 63 H 5.163402 3.609216 1.556016 0
M  V30 64 H 4.243513 3.923643 3.097872 0
M  V30 END ATOM
M  V30 BEGIN BOND
M  V30 1 1 1 2
M  V30 2 1 2 3
M  V30 3 1 3 4
M  V30 4 2 4 5
M  V30 5 1 4 6
M  V30 6 1 6 7
M  V30 7 1 7 8
M  V30 8 1 8 9
M  V30 9 1 9 10
M  V30 10 1 10 11
M  V30 11 2 11 12
M  V30 12 1 12 13
M  V30 13 2 13 14
M  V30 14 1 14 15
M  V30 15 1 15 16
M  V30 16 2 16 17
M  V30 17 1 17 18
M  V30 18 2 18 19
M  V30 19 1 19 20
M  V30 20 1 20 21
M  V30 21 1 21 22
M  V30 22 1 22 23
M  V30 23 2 23 24
M  V30 24 1 24 25
M  V30 25 2 25 26
M  V30 26 1 26 27
M  V30 27 2 27 28
M  V30 28 2 20 29
M  V30 29 1 29 30
M  V30 30 2 30 31
M  V30 31 1 31 32
M  V30 32 2 15 33
M  V30 33 1 9 34
M  V30 34 1 34 35
M  V30 35 1 35 6
M  V30 36 1 33 11
M  V30 37 1 32 16
M  V30 38 1 32 19
M  V30 39 1 28 23
M  V30 40 1 1 36
M  V30 41 1 1 37
M  V30 42 1 1 38
M  V30 43 1 2 39
M  V30 44 1 2 40
M  V30 45 1 6 41 CFG=1
M  V30 46 1 7 42
M  V30 47 1 7 43
M  V30 48 1 8 44
M  V30 49 1 8 45
M  V30 50 1 9 46 CFG=1
M  V30 51 1 10 47
M  V30 52 1 13 48
M  V30 53 1 14 49
M  V30 54 1 17 50
M  V30 55 1 22 51
M  V30 56 1 22 52
M  V30 57 1 24 53
M  V30 58 1 25 54
M  V30 59 1 26 55
M  V30 60 1 27 56
M  V30 61 1 28 57
M  V30 62 1 29 58
M  V30 63 1 30 59
M  V30 64 1 31 60
M  V30 65 1 34 61
M  V30 66 1 34 62
M  V30 67 1 35 63
M  V30 68 1 35 64
M  V30 END BOND
M  V30 END CTAB
M  END
>  <Dataset>  (717) 
ChEMBL_Kinases

>  <Ligand_Instance>  (717) 
nan

>  <PDB_ID>  (717) 
nan

>  <Standardized_SMILES>  (717) 
CCOC(=O)[C@H]1CC[C@H](Nc2nccc(-c3cnc4c(OCc5ccccc5)cccn34)n2)CC1

>  <Name>  (717) 
nan

>  <Pocket>  (717) 
nan

>  <ATP_Site>  (717) 
nan

>  <Peripheral>  (717) 
nan

>  <Num_H_Atoms_ProtBoundConf>  (717) 
nan

>  <Num_Resolved_Atoms>  (717) 
nan

>  <Num_Not_Resolved_Atoms>  (717) 
nan

$$$$
CHEMBL3655584
     RDKit          3D

  0  0  0  0  0  0  0  0  0  0999 V3000
M  V30 BEGIN CTAB
M  V30 COUNTS 63 67 0 0 0
M  V30 BEGIN ATOM
M  V30 1 C 4.801044 -1.837267 2.164393 0
M  V30 2 S 4.855810 -0.384095 3.193582 0
M  V30 3 O 6.212243 0.173887 3.114184 0
M  V30 4 O 4.656666 -0.874329 4.601753 0
M  V30 5 N 3.581770 0.635408 2.813772 0
M  V30 6 C 3.508924 1.168908 1.496261 0 CFG=1
M  V30 7 C 2.340235 0.736919 0.690073 0
M  V30 8 C 1.621340 1.952513 0.139473 0
M  V30 9 C 1.314480 2.922713 1.251361 0 CFG=2
M  V30 10 N 0.395648 3.941792 0.782401 0
M  V30 11 C -0.907863 3.677079 0.304975 0
M  V30 12 N -1.694101 4.696259 -0.119542 0
M  V30 13 C -2.933108 4.481887 -0.574987 0
M  V30 14 C -3.379230 3.185289 -0.595934 0
M  V30 15 C -2.623920 2.098151 -0.175381 0
M  V30 16 C -3.185239 0.769047 -0.234601 0
M  V30 17 C -4.446067 0.450245 -0.687809 0
M  V30 18 N -4.590875 -0.865744 -0.585317 0
M  V30 19 C -3.482547 -1.465835 -0.080549 0
M  V30 20 C -3.102444 -2.771393 0.225867 0
M  V30 21 O -4.089333 -3.647510 -0.052722 0
M  V30 22 C -4.163772 -5.006291 0.076107 0
M  V30 23 C -3.182786 -5.755739 -0.721022 0
M  V30 24 C -3.582777 -5.963669 -2.046826 0
M  V30 25 C -2.836788 -6.654365 -2.978650 0
M  V30 26 C -1.629095 -7.184071 -2.629709 0
M  V30 27 C -1.208564 -6.998965 -1.340619 0
M  V30 28 C -1.972904 -6.310170 -0.444528 0
M  V30 29 C -1.841654 -2.865094 0.729790 0
M  V30 30 C -0.981457 -1.823350 0.939430 0
M  V30 31 C -1.410256 -0.573351 0.620552 0
M  V30 32 N -2.658134 -0.409321 0.113395 0
M  V30 33 N -1.415711 2.437439 0.253393 0
M  V30 34 C 2.595057 3.499568 1.747366 0
M  V30 35 C 3.798340 2.660607 1.425999 0
M  V30 36 H 4.247806 -2.676171 2.651781 0
M  V30 37 H 5.818687 -2.147909 1.847279 0
M  V30 38 H 4.285207 -1.576967 1.194176 0
M  V30 39 H 3.580985 1.454744 3.478451 0
M  V30 40 H 4.410597 0.731553 0.991649 0
M  V30 41 H 1.636257 0.068047 1.215549 0
M  V30 42 H 2.613186 0.143724 -0.233635 0
M  V30 43 H 2.321091 2.412479 -0.615137 0
M  V30 44 H 0.725400 1.684993 -0.455392 0
M  V30 45 H 0.755099 2.349248 2.017031 0
M  V30 46 H 0.739425 4.925409 0.807921 0
M  V30 47 H -3.554736 5.297251 -0.911814 0
M  V30 48 H -4.389039 3.044703 -0.971111 0
M  V30 49 H -5.199133 1.128023 -1.063431 0
M  V30 50 H -4.063540 -5.293706 1.165330 0
M  V30 51 H -5.201005 -5.331037 -0.218779 0
M  V30 52 H -4.522507 -5.592904 -2.449094 0
M  V30 53 H -3.159863 -6.805823 -3.997649 0
M  V30 54 H -0.948037 -7.740192 -3.246200 0
M  V30 55 H -0.255402 -7.384553 -0.962280 0
M  V30 56 H -1.668239 -6.157423 0.591750 0
M  V30 57 H -1.539847 -3.855646 0.975001 0
M  V30 58 H -0.014659 -2.005974 1.339078 0
M  V30 59 H -0.715721 0.237069 0.794445 0
M  V30 60 H 2.744509 4.489431 1.266370 0
M  V30 61 H 2.591414 3.722633 2.840598 0
M  V30 62 H 4.595540 2.899881 2.138874 0
M  V30 63 H 4.148127 2.949393 0.413604 0
M  V30 END ATOM
M  V30 BEGIN BOND
M  V30 1 1 1 2
M  V30 2 2 2 3
M  V30 3 2 2 4
M  V30 4 1 2 5
M  V30 5 1 5 6
M  V30 6 1 6 7
M  V30 7 1 7 8
M  V30 8 1 8 9
M  V30 9 1 9 10
M  V30 10 1 10 11
M  V30 11 2 11 12
M  V30 12 1 12 13
M  V30 13 2 13 14
M  V30 14 1 14 15
M  V30 15 1 15 16
M  V30 16 2 16 17
M  V30 17 1 17 18
M  V30 18 2 18 19
M  V30 19 1 19 20
M  V30 20 1 20 21
M  V30 21 1 21 22
M  V30 22 1 22 23
M  V30 23 2 23 24
M  V30 24 1 24 25
M  V30 25 2 25 26
M  V30 26 1 26 27
M  V30 27 2 27 28
M  V30 28 2 20 29
M  V30 29 1 29 30
M  V30 30 2 30 31
M  V30 31 1 31 32
M  V30 32 2 15 33
M  V30 33 1 9 34
M  V30 34 1 34 35
M  V30 35 1 35 6
M  V30 36 1 33 11
M  V30 37 1 32 16
M  V30 38 1 32 19
M  V30 39 1 28 23
M  V30 40 1 1 36
M  V30 41 1 1 37
M  V30 42 1 1 38
M  V30 43 1 5 39
M  V30 44 1 6 40 CFG=3
M  V30 45 1 7 41
M  V30 46 1 7 42
M  V30 47 1 8 43
M  V30 48 1 8 44
M  V30 49 1 9 45 CFG=1
M  V30 50 1 10 46
M  V30 51 1 13 47
M  V30 52 1 14 48
M  V30 53 1 17 49
M  V30 54 1 22 50
M  V30 55 1 22 51
M  V30 56 1 24 52
M  V30 57 1 25 53
M  V30 58 1 26 54
M  V30 59 1 27 55
M  V30 60 1 28 56
M  V30 61 1 29 57
M  V30 62 1 30 58
M  V30 63 1 31 59
M  V30 64 1 34 60
M  V30 65 1 34 61
M  V30 66 1 35 62
M  V30 67 1 35 63
M  V30 END BOND
M  V30 END CTAB
M  END
>  <Dataset>  (718) 
ChEMBL_Kinases

>  <Ligand_Instance>  (718) 
nan

>  <PDB_ID>  (718) 
nan

>  <Standardized_SMILES>  (718) 
CS(=O)(=O)N[C@H]1CC[C@H](Nc2nccc(-c3cnc4c(OCc5ccccc5)cccn34)n2)CC1

>  <Name>  (718) 
nan

>  <Pocket>  (718) 
nan

>  <ATP_Site>  (718) 
nan

>  <Peripheral>  (718) 
nan

>  <Num_H_Atoms_ProtBoundConf>  (718) 
nan

>  <Num_Resolved_Atoms>  (718) 
nan

>  <Num_Not_Resolved_Atoms>  (718) 
nan

$$$$
CHEMBL4065388
     RDKit          3D

  0  0  0  0  0  0  0  0  0  0999 V3000
M  V30 BEGIN CTAB
M  V30 COUNTS 26 28 0 0 0
M  V30 BEGIN ATOM
M  V30 1 N 0.107229 -4.747097 2.662000 0
M  V30 2 C 0.045854 -3.329958 2.813027 0
M  V30 3 N -0.088000 -2.713066 4.023644 0
M  V30 4 C -0.139052 -1.363925 4.088690 0
M  V30 5 C -0.048188 -0.714718 2.886501 0
M  V30 6 C 0.086253 -1.247656 1.639502 0
M  V30 7 C 0.186367 -0.611487 0.349373 0
M  V30 8 C 0.326236 -1.402881 -0.798388 0
M  V30 9 N 0.400341 -0.618936 -1.878876 0
M  V30 10 C 0.318749 0.665407 -1.532553 0
M  V30 11 C 0.339310 1.859710 -2.217992 0
M  V30 12 C 0.229699 3.075286 -1.554992 0
M  V30 13 Cl 0.266500 4.537891 -2.515557 0
M  V30 14 C 0.098223 3.020413 -0.163034 0
M  V30 15 C 0.081628 1.813842 0.486056 0
M  V30 16 C 0.189361 0.636369 -0.172088 0
M  V30 17 N 0.124236 -2.585090 1.710080 0
M  V30 18 H 0.831991 -5.417222 2.990290 0
M  V30 19 H -0.572218 -5.411013 2.184376 0
M  V30 20 H -0.243990 -0.838286 5.022959 0
M  V30 21 H -0.092030 0.342885 2.983370 0
M  V30 22 H 0.382282 -2.493631 -0.954466 0
M  V30 23 H 0.507550 -0.903933 -2.884491 0
M  V30 24 H 0.445147 1.825357 -3.307595 0
M  V30 25 H 0.013880 3.988612 0.334007 0
M  V30 26 H -0.021402 1.896200 1.524300 0
M  V30 END ATOM
M  V30 BEGIN BOND
M  V30 1 1 1 2
M  V30 2 2 2 3
M  V30 3 1 3 4
M  V30 4 2 4 5
M  V30 5 1 5 6
M  V30 6 1 6 7
M  V30 7 2 7 8
M  V30 8 1 8 9
M  V30 9 1 9 10
M  V30 10 2 10 11
M  V30 11 1 11 12
M  V30 12 1 12 13
M  V30 13 2 12 14
M  V30 14 1 14 15
M  V30 15 2 15 16
M  V30 16 2 6 17
M  V30 17 1 17 2
M  V30 18 1 16 7
M  V30 19 1 16 10
M  V30 20 1 1 18
M  V30 21 1 1 19
M  V30 22 1 4 20
M  V30 23 1 5 21
M  V30 24 1 8 22
M  V30 25 1 9 23
M  V30 26 1 11 24
M  V30 27 1 14 25
M  V30 28 1 15 26
M  V30 END BOND
M  V30 END CTAB
M  END
>  <Dataset>  (719) 
ChEMBL_Kinases

>  <Ligand_Instance>  (719) 
nan

>  <PDB_ID>  (719) 
nan

>  <Standardized_SMILES>  (719) 
Nc1nccc(-c2c[nH]c3cc(Cl)ccc23)n1

>  <Name>  (719) 
nan

>  <Pocket>  (719) 
nan

>  <ATP_Site>  (719) 
nan

>  <Peripheral>  (719) 
nan

>  <Num_H_Atoms_ProtBoundConf>  (719) 
nan

>  <Num_Resolved_Atoms>  (719) 
nan

>  <Num_Not_Resolved_Atoms>  (719) 
nan

$$$$
CHEMBL4064426
     RDKit          3D

  0  0  0  0  0  0  0  0  0  0999 V3000
M  V30 BEGIN CTAB
M  V30 COUNTS 47 51 0 0 0
M  V30 BEGIN ATOM
M  V30 1 C -3.117355 -3.256658 3.505185 0
M  V30 2 C -1.652709 -3.535387 3.460143 0
M  V30 3 C -0.864992 -2.829072 2.579599 0
M  V30 4 C 0.484600 -2.958238 2.410848 0
M  V30 5 C 1.354357 -2.219240 1.502782 0
M  V30 6 C 2.440726 -2.943252 1.026087 0
M  V30 7 C 3.405840 -2.455787 0.170515 0
M  V30 8 C 3.271198 -1.146566 -0.235655 0
M  V30 9 N 4.214119 -0.677511 -1.069139 0
M  V30 10 C 4.155292 0.589163 -1.511029 0
M  V30 11 C 3.090752 1.333866 -1.054956 0
M  V30 12 N 2.757372 2.620278 -1.304960 0
M  V30 13 N 1.655430 2.889724 -0.636329 0
M  V30 14 N 1.223955 1.826149 0.064163 0
M  V30 15 C 0.041453 1.972031 0.847697 0 CFG=1
M  V30 16 C -0.245069 3.484468 1.107134 0
M  V30 17 C -1.128771 1.497187 0.060447 0
M  V30 18 C -1.201594 2.238667 -1.129175 0
M  V30 19 C -2.220785 2.004379 -2.058249 0
M  V30 20 C -3.175119 1.029623 -1.809207 0
M  V30 21 Cl -4.495473 0.646850 -2.895538 0
M  V30 22 C -3.100048 0.296386 -0.628531 0
M  V30 23 C -2.091828 0.538720 0.275511 0
M  V30 24 C 2.105861 0.887110 -0.200815 0
M  V30 25 C 2.200378 -0.394892 0.220370 0
M  V30 26 C 1.267881 -0.897816 1.057781 0
M  V30 27 C 1.055111 -3.924162 3.250725 0
M  V30 28 C 0.312200 -4.644746 4.135756 0
M  V30 29 N -1.019079 -4.456099 4.241251 0
M  V30 30 H -3.196790 -2.142099 3.347930 0
M  V30 31 H -3.563785 -3.702543 2.581309 0
M  V30 32 H -3.577229 -3.574479 4.439075 0
M  V30 33 H -1.348837 -2.099232 1.949765 0
M  V30 34 H 2.593529 -3.978896 1.313751 0
M  V30 35 H 4.234020 -3.055394 -0.175065 0
M  V30 36 H 4.877401 1.034967 -2.182603 0
M  V30 37 H 0.078700 1.605027 1.885676 0
M  V30 38 H 0.566430 3.788841 1.810221 0
M  V30 39 H -1.194919 3.529743 1.643349 0
M  V30 40 H -0.161931 4.049301 0.182337 0
M  V30 41 H -0.568251 3.037299 -1.523269 0
M  V30 42 H -2.382894 2.493346 -2.986009 0
M  V30 43 H -3.781954 -0.489336 -0.318108 0
M  V30 44 H -1.908830 0.064629 1.228234 0
M  V30 45 H 0.400809 -0.454812 1.473512 0
M  V30 46 H 2.101072 -4.173371 3.271073 0
M  V30 47 H 0.699842 -5.392435 4.798006 0
M  V30 END ATOM
M  V30 BEGIN BOND
M  V30 1 1 1 2
M  V30 2 2 2 3
M  V30 3 1 3 4
M  V30 4 1 4 5
M  V30 5 2 5 6
M  V30 6 1 6 7
M  V30 7 2 7 8
M  V30 8 1 8 9
M  V30 9 2 9 10
M  V30 10 1 10 11
M  V30 11 1 11 12
M  V30 12 2 12 13
M  V30 13 1 13 14
M  V30 14 1 14 15
M  V30 15 1 15 16
M  V30 16 1 15 17
M  V30 17 2 17 18
M  V30 18 1 18 19
M  V30 19 2 19 20
M  V30 20 1 20 21
M  V30 21 1 20 22
M  V30 22 2 22 23
M  V30 23 1 14 24
M  V30 24 1 24 25
M  V30 25 2 25 26
M  V30 26 2 4 27
M  V30 27 1 27 28
M  V30 28 2 28 29
M  V30 29 1 29 2
M  V30 30 1 26 5
M  V30 31 1 25 8
M  V30 32 2 24 11
M  V30 33 1 23 17
M  V30 34 1 1 30
M  V30 35 1 1 31
M  V30 36 1 1 32
M  V30 37 1 3 33
M  V30 38 1 6 34
M  V30 39 1 7 35
M  V30 40 1 10 36
M  V30 41 1 15 37 CFG=1
M  V30 42 1 16 38
M  V30 43 1 16 39
M  V30 44 1 16 40
M  V30 45 1 18 41
M  V30 46 1 19 42
M  V30 47 1 22 43
M  V30 48 1 23 44
M  V30 49 1 26 45
M  V30 50 1 27 46
M  V30 51 1 28 47
M  V30 END BOND
M  V30 END CTAB
M  END
>  <Dataset>  (720) 
ChEMBL_Kinases

>  <Ligand_Instance>  (720) 
nan

>  <PDB_ID>  (720) 
nan

>  <Standardized_SMILES>  (720) 
Cc1cc(-c2ccc3ncc4nnn([C@@H](C)c5ccc(Cl)cc5)c4c3c2)ccn1

>  <Name>  (720) 
nan

>  <Pocket>  (720) 
nan

>  <ATP_Site>  (720) 
nan

>  <Peripheral>  (720) 
nan

>  <Num_H_Atoms_ProtBoundConf>  (720) 
nan

>  <Num_Resolved_Atoms>  (720) 
nan

>  <Num_Not_Resolved_Atoms>  (720) 
nan

$$$$
CHEMBL3655583
     RDKit          3D

  0  0  0  0  0  0  0  0  0  0999 V3000
M  V30 BEGIN CTAB
M  V30 COUNTS 73 78 0 0 0
M  V30 BEGIN ATOM
M  V30 1 O -2.617666 -1.681058 4.952920 0
M  V30 2 C -1.596062 -1.165371 4.436265 0
M  V30 3 C -1.620002 0.088976 3.696198 0 CFG=1
M  V30 4 C -3.058654 0.606756 3.563721 0
M  V30 5 C -2.966529 1.702425 2.498301 0
M  V30 6 C -2.185587 2.832679 3.081973 0 CFG=2
M  V30 7 N -2.080776 3.905373 2.130170 0
M  V30 8 C -1.535231 3.918081 0.804589 0
M  V30 9 N -1.520156 5.040696 0.104710 0
M  V30 10 C -1.017613 5.077138 -1.135976 0
M  V30 11 C -0.530495 3.890821 -1.617713 0
M  V30 12 C -0.505251 2.688867 -0.970116 0
M  V30 13 C -0.027034 1.408276 -1.414094 0
M  V30 14 C -0.151676 0.340287 -0.548868 0
M  V30 15 N 0.341009 -0.765165 -1.118397 0
M  V30 16 C 0.792693 -0.484097 -2.332702 0
M  V30 17 C 1.398370 -1.256636 -3.339457 0
M  V30 18 O 1.535791 -2.549023 -2.974328 0
M  V30 19 C 2.063801 -3.606038 -3.665507 0
M  V30 20 C 1.415166 -3.996316 -4.932503 0
M  V30 21 C 1.689864 -3.721645 -6.251054 0
M  V30 22 C 0.892822 -4.205895 -7.263965 0
M  V30 23 C -0.216779 -4.987080 -7.028650 0
M  V30 24 C -0.524277 -5.284129 -5.717720 0
M  V30 25 C 0.286883 -4.790881 -4.687891 0
M  V30 26 C 1.721792 -0.546058 -4.471158 0
M  V30 27 C 1.481365 0.801002 -4.624193 0
M  V30 28 C 0.883918 1.475727 -3.586631 0
M  V30 29 N 0.550360 0.829394 -2.463619 0
M  V30 30 N -1.040178 2.833829 0.243082 0
M  V30 31 C -0.810485 2.443806 3.585575 0
M  V30 32 C -0.873232 1.174575 4.413512 0
M  V30 33 N -0.332453 -1.858265 4.583924 0
M  V30 34 C 1.031720 -1.580943 4.110587 0
M  V30 35 C 1.750663 -2.832681 3.679574 0
M  V30 36 C 0.850577 -3.973369 3.331199 0
M  V30 37 O 0.162329 -3.756319 2.129395 0
M  V30 38 C -0.104651 -4.296733 4.456104 0
M  V30 39 C -0.320666 -3.102428 5.358863 0
M  V30 40 H -1.264165 -0.069560 2.668510 0
M  V30 41 H -3.349809 0.987252 4.546240 0
M  V30 42 H -3.742485 -0.200849 3.280736 0
M  V30 43 H -4.003469 2.056497 2.346713 0
M  V30 44 H -2.521818 1.236593 1.610348 0
M  V30 45 H -2.765323 3.195989 3.965710 0
M  V30 46 H -2.468703 4.847085 2.455457 0
M  V30 47 H -1.013063 6.000496 -1.691624 0
M  V30 48 H -0.152369 3.991657 -2.600423 0
M  V30 49 H -0.538254 0.182620 0.446079 0
M  V30 50 H 3.177392 -3.485211 -3.875336 0
M  V30 51 H 2.074237 -4.488462 -2.942456 0
M  V30 52 H 2.564936 -3.124260 -6.365960 0
M  V30 53 H 1.188846 -3.937235 -8.264066 0
M  V30 54 H -0.801183 -5.336541 -7.865698 0
M  V30 55 H -1.395362 -5.897036 -5.544435 0
M  V30 56 H -0.081972 -5.109275 -3.702521 0
M  V30 57 H 2.186809 -1.117562 -5.233654 0
M  V30 58 H 1.790607 1.227260 -5.571891 0
M  V30 59 H 0.735954 2.494797 -3.782015 0
M  V30 60 H -0.069132 2.293922 2.799474 0
M  V30 61 H -0.452796 3.262244 4.241048 0
M  V30 62 H -1.307085 1.344520 5.398646 0
M  V30 63 H 0.170370 0.853694 4.560889 0
M  V30 64 H 0.928397 -0.925962 3.202607 0
M  V30 65 H 1.572548 -1.033264 4.895723 0
M  V30 66 H 2.408747 -2.649806 2.792287 0
M  V30 67 H 2.404696 -3.137447 4.516784 0
M  V30 68 H 1.495188 -4.859286 3.171269 0
M  V30 69 H 0.767237 -3.722536 1.363729 0
M  V30 70 H 0.343980 -5.094141 5.080219 0
M  V30 71 H -1.038947 -4.683701 4.033581 0
M  V30 72 H 0.458767 -2.993557 6.137814 0
M  V30 73 H -1.275715 -3.233138 5.873222 0
M  V30 END ATOM
M  V30 BEGIN BOND
M  V30 1 2 1 2
M  V30 2 1 2 3
M  V30 3 1 3 4
M  V30 4 1 4 5
M  V30 5 1 5 6
M  V30 6 1 6 7
M  V30 7 1 7 8
M  V30 8 2 8 9
M  V30 9 1 9 10
M  V30 10 2 10 11
M  V30 11 1 11 12
M  V30 12 1 12 13
M  V30 13 2 13 14
M  V30 14 1 14 15
M  V30 15 2 15 16
M  V30 16 1 16 17
M  V30 17 1 17 18
M  V30 18 1 18 19
M  V30 19 1 19 20
M  V30 20 2 20 21
M  V30 21 1 21 22
M  V30 22 2 22 23
M  V30 23 1 23 24
M  V30 24 2 24 25
M  V30 25 2 17 26
M  V30 26 1 26 27
M  V30 27 2 27 28
M  V30 28 1 28 29
M  V30 29 2 12 30
M  V30 30 1 6 31
M  V30 31 1 31 32
M  V30 32 1 2 33
M  V30 33 1 33 34
M  V30 34 1 34 35
M  V30 35 1 35 36
M  V30 36 1 36 37
M  V30 37 1 36 38
M  V30 38 1 38 39
M  V30 39 1 32 3
M  V30 40 1 39 33
M  V30 41 1 30 8
M  V30 42 1 29 13
M  V30 43 1 29 16
M  V30 44 1 25 20
M  V30 45 1 3 40 CFG=3
M  V30 46 1 4 41
M  V30 47 1 4 42
M  V30 48 1 5 43
M  V30 49 1 5 44
M  V30 50 1 6 45 CFG=1
M  V30 51 1 7 46
M  V30 52 1 10 47
M  V30 53 1 11 48
M  V30 54 1 14 49
M  V30 55 1 19 50
M  V30 56 1 19 51
M  V30 57 1 21 52
M  V30 58 1 22 53
M  V30 59 1 23 54
M  V30 60 1 24 55
M  V30 61 1 25 56
M  V30 62 1 26 57
M  V30 63 1 27 58
M  V30 64 1 28 59
M  V30 65 1 31 60
M  V30 66 1 31 61
M  V30 67 1 32 62
M  V30 68 1 32 63
M  V30 69 1 34 64
M  V30 70 1 34 65
M  V30 71 1 35 66
M  V30 72 1 35 67
M  V30 73 1 36 68
M  V30 74 1 37 69
M  V30 75 1 38 70
M  V30 76 1 38 71
M  V30 77 1 39 72
M  V30 78 1 39 73
M  V30 END BOND
M  V30 END CTAB
M  END
>  <Dataset>  (721) 
ChEMBL_Kinases

>  <Ligand_Instance>  (721) 
nan

>  <PDB_ID>  (721) 
nan

>  <Standardized_SMILES>  (721) 
O=C([C@H]1CC[C@H](Nc2nccc(-c3cnc4c(OCc5ccccc5)cccn34)n2)CC1)N1CCC(O)CC1

>  <Name>  (721) 
nan

>  <Pocket>  (721) 
nan

>  <ATP_Site>  (721) 
nan

>  <Peripheral>  (721) 
nan

>  <Num_H_Atoms_ProtBoundConf>  (721) 
nan

>  <Num_Resolved_Atoms>  (721) 
nan

>  <Num_Not_Resolved_Atoms>  (721) 
nan

$$$$
CHEMBL4065167
     RDKit          3D

  0  0  0  0  0  0  0  0  0  0999 V3000
M  V30 BEGIN CTAB
M  V30 COUNTS 47 49 0 0 0
M  V30 BEGIN ATOM
M  V30 1 C 0.624392 -3.620405 0.631859 0
M  V30 2 C 1.915484 -4.348563 0.898659 0
M  V30 3 S 3.108406 -3.279263 1.669355 0
M  V30 4 O 4.375224 -4.073740 1.899589 0
M  V30 5 O 2.585127 -2.867950 3.014917 0
M  V30 6 C 3.470152 -1.904409 0.651475 0
M  V30 7 C 4.485951 -1.944553 -0.286398 0
M  V30 8 C 4.763050 -0.871906 -1.071594 0
M  V30 9 C 4.073820 0.317041 -1.002658 0
M  V30 10 O 4.221474 1.482505 -1.711428 0
M  V30 11 C 5.209930 1.597591 -2.700025 0
M  V30 12 C 3.044067 0.363720 -0.054786 0
M  V30 13 N 2.246005 1.527688 0.126593 0
M  V30 14 C 1.204876 1.508136 1.097205 0
M  V30 15 N 1.042058 1.745997 2.415229 0
M  V30 16 C -0.271006 1.520261 2.661847 0
M  V30 17 C -0.904812 1.146090 1.495808 0
M  V30 18 C -2.311901 0.810673 1.305359 0
M  V30 19 C -3.175245 0.826987 2.283896 0
M  V30 20 C -4.596208 0.510699 2.201814 0
M  V30 21 C -5.399384 0.570332 3.347061 0
M  V30 22 C -6.745364 0.271188 3.261169 0
M  V30 23 C -7.314492 -0.087598 2.058081 0
M  V30 24 C -6.533083 -0.147947 0.931882 0
M  V30 25 C -5.166628 0.151087 0.995538 0
M  V30 26 O 0.033854 1.154563 0.579766 0
M  V30 27 C 2.778718 -0.737973 0.733426 0
M  V30 28 H -0.260702 -4.281195 0.786917 0
M  V30 29 H 0.520952 -2.732432 1.292939 0
M  V30 30 H 0.599840 -3.281058 -0.425756 0
M  V30 31 H 2.317361 -4.789839 -0.026335 0
M  V30 32 H 1.668499 -5.191212 1.570341 0
M  V30 33 H 5.087485 -2.837460 -0.417317 0
M  V30 34 H 5.546055 -0.882507 -1.805669 0
M  V30 35 H 4.700224 1.443502 -3.687017 0
M  V30 36 H 5.655325 2.626311 -2.733782 0
M  V30 37 H 6.063523 0.927658 -2.538956 0
M  V30 38 H 2.411932 2.391637 -0.439208 0
M  V30 39 H -0.788444 1.607587 3.613408 0
M  V30 40 H -2.671896 0.536434 0.325495 0
M  V30 41 H -2.759655 1.110305 3.251549 0
M  V30 42 H -4.898489 0.855930 4.254989 0
M  V30 43 H -7.358278 0.319759 4.151747 0
M  V30 44 H -8.376933 -0.324058 1.987138 0
M  V30 45 H -6.975554 -0.431776 -0.029858 0
M  V30 46 H -4.629366 0.081334 0.077344 0
M  V30 47 H 1.973741 -0.713441 1.479988 0
M  V30 END ATOM
M  V30 BEGIN BOND
M  V30 1 1 1 2
M  V30 2 1 2 3
M  V30 3 2 3 4
M  V30 4 2 3 5
M  V30 5 1 3 6
M  V30 6 2 6 7
M  V30 7 1 7 8
M  V30 8 2 8 9
M  V30 9 1 9 10
M  V30 10 1 10 11
M  V30 11 1 9 12
M  V30 12 1 12 13
M  V30 13 1 13 14
M  V30 14 2 14 15
M  V30 15 1 15 16
M  V30 16 2 16 17
M  V30 17 1 17 18
M  V30 18 2 18 19
M  V30 19 1 19 20
M  V30 20 2 20 21
M  V30 21 1 21 22
M  V30 22 2 22 23
M  V30 23 1 23 24
M  V30 24 2 24 25
M  V30 25 1 17 26
M  V30 26 2 12 27
M  V30 27 1 27 6
M  V30 28 1 26 14
M  V30 29 1 25 20
M  V30 30 1 1 28
M  V30 31 1 1 29
M  V30 32 1 1 30
M  V30 33 1 2 31
M  V30 34 1 2 32
M  V30 35 1 7 33
M  V30 36 1 8 34
M  V30 37 1 11 35
M  V30 38 1 11 36
M  V30 39 1 11 37
M  V30 40 1 13 38
M  V30 41 1 16 39
M  V30 42 1 18 40
M  V30 43 1 19 41
M  V30 44 1 21 42
M  V30 45 1 22 43
M  V30 46 1 23 44
M  V30 47 1 24 45
M  V30 48 1 25 46
M  V30 49 1 27 47
M  V30 END BOND
M  V30 END CTAB
M  END
>  <Dataset>  (722) 
ChEMBL_Kinases

>  <Ligand_Instance>  (722) 
nan

>  <PDB_ID>  (722) 
nan

>  <Standardized_SMILES>  (722) 
CCS(=O)(=O)c1ccc(OC)c(Nc2ncc(/C=C/c3ccccc3)o2)c1

>  <Name>  (722) 
nan

>  <Pocket>  (722) 
nan

>  <ATP_Site>  (722) 
nan

>  <Peripheral>  (722) 
nan

>  <Num_H_Atoms_ProtBoundConf>  (722) 
nan

>  <Num_Resolved_Atoms>  (722) 
nan

>  <Num_Not_Resolved_Atoms>  (722) 
nan

$$$$
CHEMBL3655582
     RDKit          3D

  0  0  0  0  0  0  0  0  0  0999 V3000
M  V30 BEGIN CTAB
M  V30 COUNTS 75 79 0 0 0
M  V30 BEGIN ATOM
M  V30 1 C 3.501495 -7.300076 7.857310 0
M  V30 2 S 2.510253 -6.047149 7.112819 0
M  V30 3 O 1.346415 -5.742806 8.032581 0
M  V30 4 O 3.315287 -4.776508 6.895727 0
M  V30 5 C 1.818201 -6.589495 5.601449 0
M  V30 6 C 2.874672 -6.954194 4.593553 0
M  V30 7 C 3.831966 -5.807593 4.294536 0
M  V30 8 O 3.283600 -4.595524 4.029058 0
M  V30 9 C 2.393369 -4.149774 3.041800 0
M  V30 10 C 1.959292 -5.091222 2.091965 0
M  V30 11 C 1.025688 -4.451108 1.202821 0
M  V30 12 C 0.773644 -3.058452 1.493151 0
M  V30 13 N 1.423745 -2.500940 2.545351 0
M  V30 14 C 0.976903 -1.241985 2.524940 0
M  V30 15 C 0.013778 -0.255783 1.844270 0
M  V30 16 C -0.132548 0.927816 2.462593 0
M  V30 17 C -1.116877 1.749635 1.774061 0
M  V30 18 N -1.348214 0.917893 0.914286 0
M  V30 19 C -1.551285 0.076646 0.084251 0
M  V30 20 N -1.966377 -0.626553 -1.064186 0
M  V30 21 C -2.489951 0.364738 -1.975753 0 CFG=1
M  V30 22 C -2.490503 -0.327136 -3.331530 0
M  V30 23 C -2.909481 0.562200 -4.444476 0
M  V30 24 C -3.689962 1.763589 -4.002605 0 CFG=2
M  V30 25 C -2.892765 2.969411 -3.785819 0
M  V30 26 O -3.015607 3.511183 -2.631006 0
M  V30 27 N -1.959279 3.961488 -4.213300 0
M  V30 28 C -1.661718 5.039698 -3.314857 0
M  V30 29 C -0.202830 5.183952 -2.964082 0
M  V30 30 C 0.742506 4.886430 -4.066907 0
M  V30 31 O 1.861589 4.181547 -3.576257 0
M  V30 32 C 0.209747 4.312888 -5.311272 0
M  V30 33 C -1.240718 4.081171 -5.459695 0
M  V30 34 C -4.542347 1.515752 -2.796460 0
M  V30 35 C -3.858936 0.806219 -1.650176 0
M  V30 36 N -0.607177 -0.718418 0.749989 0
M  V30 37 C 1.739198 -0.723332 3.674119 0
M  V30 38 N 2.415343 -1.726671 4.083622 0
M  V30 39 C 2.355018 -2.902759 3.530211 0
M  V30 40 H 4.566756 -6.962097 7.975858 0
M  V30 41 H 3.108490 -7.492027 8.897716 0
M  V30 42 H 3.410830 -8.223351 7.257997 0
M  V30 43 H 1.170505 -5.803468 5.141292 0
M  V30 44 H 1.136667 -7.468856 5.740544 0
M  V30 45 H 2.409562 -7.455932 3.762835 0
M  V30 46 H 3.505057 -7.754407 5.107090 0
M  V30 47 H 4.572932 -5.756027 5.133276 0
M  V30 48 H 4.470205 -6.197473 3.443751 0
M  V30 49 H 2.373320 -6.050962 2.141910 0
M  V30 50 H 0.767553 -5.245541 0.557457 0
M  V30 51 H 0.079575 -2.942613 0.675475 0
M  V30 52 H 0.349827 1.325887 3.333984 0
M  V30 53 H -1.382053 2.727705 2.107560 0
M  V30 54 H -1.909039 -1.628051 -1.237597 0
M  V30 55 H -1.744038 1.194890 -2.026550 0
M  V30 56 H -1.448276 -0.725330 -3.445493 0
M  V30 57 H -3.127268 -1.226030 -3.252853 0
M  V30 58 H -3.500741 -0.006489 -5.194567 0
M  V30 59 H -1.991837 0.915166 -4.970667 0
M  V30 60 H -4.406257 2.010083 -4.820101 0
M  V30 61 H -2.333510 5.175391 -2.464594 0
M  V30 62 H -1.882926 5.975526 -3.948082 0
M  V30 63 H -0.039488 6.214239 -2.494207 0
M  V30 64 H 0.006438 4.505216 -2.113062 0
M  V30 65 H 1.191106 5.898677 -4.353709 0
M  V30 66 H 1.976289 3.325579 -4.063034 0
M  V30 67 H 0.556719 4.866029 -6.231233 0
M  V30 68 H 0.717289 3.302410 -5.445859 0
M  V30 69 H -1.498388 3.259004 -6.166584 0
M  V30 70 H -1.683956 4.996590 -5.967625 0
M  V30 71 H -5.452868 0.917803 -3.079340 0
M  V30 72 H -4.921801 2.485257 -2.422436 0
M  V30 73 H -3.883356 1.466534 -0.734843 0
M  V30 74 H -4.474710 -0.076855 -1.363281 0
M  V30 75 H 1.772374 0.147630 4.173740 0
M  V30 END ATOM
M  V30 BEGIN BOND
M  V30 1 1 1 2
M  V30 2 2 2 3
M  V30 3 2 2 4
M  V30 4 1 2 5
M  V30 5 1 5 6
M  V30 6 1 6 7
M  V30 7 1 7 8
M  V30 8 1 8 9
M  V30 9 2 9 10
M  V30 10 1 10 11
M  V30 11 2 11 12
M  V30 12 1 12 13
M  V30 13 1 13 14
M  V30 14 1 14 15
M  V30 15 2 15 16
M  V30 16 1 16 17
M  V30 17 2 17 18
M  V30 18 1 18 19
M  V30 19 1 19 20
M  V30 20 1 20 21
M  V30 21 1 21 22
M  V30 22 1 22 23
M  V30 23 1 23 24
M  V30 24 1 24 25
M  V30 25 2 25 26
M  V30 26 1 25 27
M  V30 27 1 27 28
M  V30 28 1 28 29
M  V30 29 1 29 30
M  V30 30 1 30 31
M  V30 31 1 30 32
M  V30 32 1 32 33
M  V30 33 1 24 34
M  V30 34 1 34 35
M  V30 35 2 19 36
M  V30 36 2 14 37
M  V30 37 1 37 38
M  V30 38 2 38 39
M  V30 39 1 39 9
M  V30 40 1 39 13
M  V30 41 1 36 15
M  V30 42 1 35 21
M  V30 43 1 33 27
M  V30 44 1 1 40
M  V30 45 1 1 41
M  V30 46 1 1 42
M  V30 47 1 5 43
M  V30 48 1 5 44
M  V30 49 1 6 45
M  V30 50 1 6 46
M  V30 51 1 7 47
M  V30 52 1 7 48
M  V30 53 1 10 49
M  V30 54 1 11 50
M  V30 55 1 12 51
M  V30 56 1 16 52
M  V30 57 1 17 53
M  V30 58 1 20 54
M  V30 59 1 21 55 CFG=3
M  V30 60 1 22 56
M  V30 61 1 22 57
M  V30 62 1 23 58
M  V30 63 1 23 59
M  V30 64 1 24 60 CFG=3
M  V30 65 1 28 61
M  V30 66 1 28 62
M  V30 67 1 29 63
M  V30 68 1 29 64
M  V30 69 1 30 65
M  V30 70 1 31 66
M  V30 71 1 32 67
M  V30 72 1 32 68
M  V30 73 1 33 69
M  V30 74 1 33 70
M  V30 75 1 34 71
M  V30 76 1 34 72
M  V30 77 1 35 73
M  V30 78 1 35 74
M  V30 79 1 37 75
M  V30 END BOND
M  V30 END CTAB
M  END
>  <Dataset>  (723) 
ChEMBL_Kinases

>  <Ligand_Instance>  (723) 
nan

>  <PDB_ID>  (723) 
nan

>  <Standardized_SMILES>  (723) 
CS(=O)(=O)CCCOc1cccn2c(-c3ccnc(N[C@H]4CC[C@H](C(=O)N5CCC(O)CC5)CC4)n3)cnc12

>  <Name>  (723) 
nan

>  <Pocket>  (723) 
nan

>  <ATP_Site>  (723) 
nan

>  <Peripheral>  (723) 
nan

>  <Num_H_Atoms_ProtBoundConf>  (723) 
nan

>  <Num_Resolved_Atoms>  (723) 
nan

>  <Num_Not_Resolved_Atoms>  (723) 
nan

$$$$
CHEMBL3914639
     RDKit          3D

  0  0  0  0  0  0  0  0  0  0999 V3000
M  V30 BEGIN CTAB
M  V30 COUNTS 55 59 0 0 0
M  V30 BEGIN ATOM
M  V30 1 C 1.460249 -5.084534 2.051797 0
M  V30 2 O 0.864865 -4.439218 0.938539 0
M  V30 3 C 1.264397 -3.143228 0.647320 0
M  V30 4 C 2.202369 -2.402931 1.346147 0
M  V30 5 C 2.525144 -1.115856 0.966727 0
M  V30 6 C 1.928014 -0.514485 -0.122278 0
M  V30 7 N 2.253714 0.819701 -0.526416 0
M  V30 8 N 3.036743 1.306084 -1.499674 0
M  V30 9 C 3.002549 2.651103 -1.456351 0
M  V30 10 C 2.168976 3.045082 -0.419727 0
M  V30 11 C 1.797534 4.310115 0.042829 0
M  V30 12 N 0.941676 4.365739 1.106943 0
M  V30 13 C 0.479782 3.241209 1.680546 0
M  V30 14 C -0.431503 3.352927 2.813538 0
M  V30 15 C -0.819455 4.586622 3.296518 0
M  V30 16 N -1.660898 4.676667 4.342658 0
M  V30 17 C -2.159554 3.590481 4.961996 0
M  V30 18 C -1.765610 2.341421 4.471563 0
M  V30 19 C -2.212050 1.034920 5.025889 0
M  V30 20 N -0.923373 2.259708 3.424442 0
M  V30 21 C 0.835700 1.983924 1.237293 0
M  V30 22 C 1.705887 1.868390 0.155330 0
M  V30 23 N 1.025730 -1.239762 -0.786621 0
M  V30 24 C 0.683982 -2.497806 -0.447762 0
M  V30 25 N -0.291904 -3.187367 -1.223343 0
M  V30 26 C 0.045661 -4.442625 -1.903644 0
M  V30 27 C -0.914260 -4.702931 -3.041989 0
M  V30 28 C -1.657014 -3.409303 -3.385949 0
M  V30 29 C -2.485966 -3.034921 -2.189695 0 CFG=2
M  V30 30 N -3.514140 -2.061760 -2.549281 0
M  V30 31 C -1.530949 -2.434260 -1.173841 0
M  V30 32 H 1.505885 -4.405517 2.952561 0
M  V30 33 H 2.468857 -5.469412 1.809663 0
M  V30 34 H 0.778119 -5.938586 2.289600 0
M  V30 35 H 2.655645 -2.896976 2.195368 0
M  V30 36 H 3.254523 -0.561777 1.523105 0
M  V30 37 H 3.563237 3.290845 -2.153042 0
M  V30 38 H 2.180675 5.211336 -0.432992 0
M  V30 39 H -0.461869 5.501138 2.852460 0
M  V30 40 H -2.837346 3.591518 5.804635 0
M  V30 41 H -2.848529 1.237860 5.912840 0
M  V30 42 H -2.811251 0.451562 4.311668 0
M  V30 43 H -1.346692 0.453061 5.413367 0
M  V30 44 H 0.456680 1.087427 1.707994 0
M  V30 45 H 1.084420 -4.353339 -2.290024 0
M  V30 46 H 0.015716 -5.265389 -1.139279 0
M  V30 47 H -1.707090 -5.427452 -2.723788 0
M  V30 48 H -0.323318 -5.066257 -3.905758 0
M  V30 49 H -2.255249 -3.560483 -4.306805 0
M  V30 50 H -0.861759 -2.640123 -3.567708 0
M  V30 51 H -2.929701 -3.932377 -1.709799 0
M  V30 52 H -4.321131 -2.600182 -2.932957 0
M  V30 53 H -3.793603 -1.556042 -1.701282 0
M  V30 54 H -2.003332 -2.457791 -0.172858 0
M  V30 55 H -1.374101 -1.357085 -1.413224 0
M  V30 END ATOM
M  V30 BEGIN BOND
M  V30 1 1 1 2
M  V30 2 1 2 3
M  V30 3 2 3 4
M  V30 4 1 4 5
M  V30 5 2 5 6
M  V30 6 1 6 7
M  V30 7 1 7 8
M  V30 8 2 8 9
M  V30 9 1 9 10
M  V30 10 2 10 11
M  V30 11 1 11 12
M  V30 12 2 12 13
M  V30 13 1 13 14
M  V30 14 2 14 15
M  V30 15 1 15 16
M  V30 16 2 16 17
M  V30 17 1 17 18
M  V30 18 1 18 19
M  V30 19 2 18 20
M  V30 20 1 13 21
M  V30 21 2 21 22
M  V30 22 1 6 23
M  V30 23 2 23 24
M  V30 24 1 24 25
M  V30 25 1 25 26
M  V30 26 1 26 27
M  V30 27 1 27 28
M  V30 28 1 28 29
M  V30 29 1 29 30
M  V30 30 1 29 31
M  V30 31 1 24 3
M  V30 32 1 31 25
M  V30 33 1 22 7
M  V30 34 1 22 10
M  V30 35 1 20 14
M  V30 36 1 1 32
M  V30 37 1 1 33
M  V30 38 1 1 34
M  V30 39 1 4 35
M  V30 40 1 5 36
M  V30 41 1 9 37
M  V30 42 1 11 38
M  V30 43 1 15 39
M  V30 44 1 17 40
M  V30 45 1 19 41
M  V30 46 1 19 42
M  V30 47 1 19 43
M  V30 48 1 21 44
M  V30 49 1 26 45
M  V30 50 1 26 46
M  V30 51 1 27 47
M  V30 52 1 27 48
M  V30 53 1 28 49
M  V30 54 1 28 50
M  V30 55 1 29 51 CFG=1
M  V30 56 1 30 52
M  V30 57 1 30 53
M  V30 58 1 31 54
M  V30 59 1 31 55
M  V30 END BOND
M  V30 END CTAB
M  END
>  <Dataset>  (724) 
ChEMBL_Kinases

>  <Ligand_Instance>  (724) 
nan

>  <PDB_ID>  (724) 
nan

>  <Standardized_SMILES>  (724) 
COc1ccc(-n2ncc3cnc(-c4cncc(C)n4)cc32)nc1N1CCC[C@H](N)C1

>  <Name>  (724) 
nan

>  <Pocket>  (724) 
nan

>  <ATP_Site>  (724) 
nan

>  <Peripheral>  (724) 
nan

>  <Num_H_Atoms_ProtBoundConf>  (724) 
nan

>  <Num_Resolved_Atoms>  (724) 
nan

>  <Num_Not_Resolved_Atoms>  (724) 
nan

$$$$
CHEMBL4064839
     RDKit          3D

  0  0  0  0  0  0  0  0  0  0999 V3000
M  V30 BEGIN CTAB
M  V30 COUNTS 51 55 0 0 0
M  V30 BEGIN ATOM
M  V30 1 C 2.859391 -0.355628 -1.072593 0
M  V30 2 C 2.697275 0.625529 0.031645 0
M  V30 3 C 2.810507 -0.071199 1.365765 0
M  V30 4 C 2.913921 -1.416357 1.588751 0
M  V30 5 C 2.984786 -1.806456 2.923978 0
M  V30 6 C 2.952469 -0.902680 3.956133 0
M  V30 7 C 2.847977 0.459266 3.707414 0
M  V30 8 Cl 2.816163 1.490170 5.104285 0
M  V30 9 C 2.776800 0.875982 2.395634 0
M  V30 10 N 3.780544 1.598082 -0.037567 0
M  V30 11 C 3.231054 2.905697 0.076767 0
M  V30 12 O 3.895177 3.979247 0.145373 0
M  V30 13 C 1.772376 2.736719 0.095896 0
M  V30 14 C 0.790940 3.713462 0.141669 0
M  V30 15 Cl 1.238136 5.419130 0.251772 0
M  V30 16 C -0.567116 3.382096 0.091676 0
M  V30 17 C -0.814880 2.035409 -0.003929 0
M  V30 18 N -2.146355 1.496000 -0.060032 0
M  V30 19 C -2.379426 0.575305 1.003424 0
M  V30 20 C -3.012195 -0.558460 0.487992 0
M  V30 21 C -3.332925 -1.620934 1.302175 0
M  V30 22 N -3.999586 -2.802594 0.807099 0
M  V30 23 C -3.136458 -3.720273 0.123449 0
M  V30 24 O -1.961026 -3.211510 0.128988 0
M  V30 25 C -3.307134 -5.043349 -0.550804 0
M  V30 26 C -2.786005 -5.112809 -1.981687 0
M  V30 27 C -2.090540 -5.807356 -0.891480 0
M  V30 28 N -3.013659 -1.518433 2.615332 0
M  V30 29 C -2.405482 -0.420215 3.107931 0
M  V30 30 N -2.093199 0.614563 2.295022 0
M  V30 31 C 0.182622 1.060039 -0.048463 0
M  V30 32 O -0.116380 -0.179160 -0.138610 0
M  V30 33 N 1.477665 1.406000 0.001830 0
M  V30 34 H 3.927893 -0.712286 -1.010855 0
M  V30 35 H 2.773819 0.102837 -2.057532 0
M  V30 36 H 2.210447 -1.253577 -0.999822 0
M  V30 37 H 2.936389 -2.041360 0.718491 0
M  V30 38 H 3.066460 -2.861853 3.084006 0
M  V30 39 H 3.005228 -1.298520 4.973678 0
M  V30 40 H 2.692953 1.949141 2.272278 0
M  V30 41 H 4.785796 1.293320 -0.153246 0
M  V30 42 H -1.364146 4.094405 0.118185 0
M  V30 43 H -2.833707 1.750705 -0.775251 0
M  V30 44 H -3.309098 -0.733455 -0.547596 0
M  V30 45 H -4.981788 -3.210421 0.798740 0
M  V30 46 H -4.293342 -5.489984 -0.379821 0
M  V30 47 H -3.429344 -5.703545 -2.656997 0
M  V30 48 H -2.409796 -4.159564 -2.379867 0
M  V30 49 H -1.077001 -5.451656 -0.578745 0
M  V30 50 H -2.185394 -6.935019 -0.828435 0
M  V30 51 H -2.133107 -0.291159 4.162613 0
M  V30 END ATOM
M  V30 BEGIN BOND
M  V30 1 1 1 2
M  V30 2 1 2 3
M  V30 3 2 3 4
M  V30 4 1 4 5
M  V30 5 2 5 6
M  V30 6 1 6 7
M  V30 7 1 7 8
M  V30 8 2 7 9
M  V30 9 1 2 10
M  V30 10 1 10 11
M  V30 11 2 11 12
M  V30 12 1 11 13
M  V30 13 2 13 14
M  V30 14 1 14 15
M  V30 15 1 14 16
M  V30 16 2 16 17
M  V30 17 1 17 18
M  V30 18 1 18 19
M  V30 19 2 19 20
M  V30 20 1 20 21
M  V30 21 1 21 22
M  V30 22 1 22 23
M  V30 23 2 23 24
M  V30 24 1 23 25
M  V30 25 1 25 26
M  V30 26 1 26 27
M  V30 27 2 21 28
M  V30 28 1 28 29
M  V30 29 2 29 30
M  V30 30 1 17 31
M  V30 31 2 31 32
M  V30 32 1 31 33
M  V30 33 1 33 2
M  V30 34 1 9 3
M  V30 35 1 33 13
M  V30 36 1 30 19
M  V30 37 1 27 25
M  V30 38 1 1 34
M  V30 39 1 1 35
M  V30 40 1 1 36
M  V30 41 1 4 37
M  V30 42 1 5 38
M  V30 43 1 6 39
M  V30 44 1 9 40
M  V30 45 1 10 41
M  V30 46 1 16 42
M  V30 47 1 18 43
M  V30 48 1 20 44
M  V30 49 1 22 45
M  V30 50 1 25 46
M  V30 51 1 26 47
M  V30 52 1 26 48
M  V30 53 1 27 49
M  V30 54 1 27 50
M  V30 55 1 29 51
M  V30 END BOND
M  V30 END CTAB
M  END
>  <Dataset>  (725) 
ChEMBL_Kinases

>  <Ligand_Instance>  (725) 
nan

>  <PDB_ID>  (725) 
nan

>  <Standardized_SMILES>  (725) 
CC1(c2cccc(Cl)c2)NC(=O)c2c(Cl)cc(Nc3cc(NC(=O)C4CC4)ncn3)c(=O)n21

>  <Name>  (725) 
nan

>  <Pocket>  (725) 
nan

>  <ATP_Site>  (725) 
nan

>  <Peripheral>  (725) 
nan

>  <Num_H_Atoms_ProtBoundConf>  (725) 
nan

>  <Num_Resolved_Atoms>  (725) 
nan

>  <Num_Not_Resolved_Atoms>  (725) 
nan

$$$$
CHEMBL4064666
     RDKit          3D

  0  0  0  0  0  0  0  0  0  0999 V3000
M  V30 BEGIN CTAB
M  V30 COUNTS 54 57 0 0 0
M  V30 BEGIN ATOM
M  V30 1 C 5.222282 -2.333654 4.196244 0
M  V30 2 C 4.899023 -1.767064 2.885127 0
M  V30 3 O 5.833148 -1.285614 2.195668 0
M  V30 4 N 3.653709 -1.653677 2.207814 0
M  V30 5 C 3.632535 -1.040384 0.902921 0
M  V30 6 C 2.781070 -1.777647 -0.105086 0
M  V30 7 N 1.450375 -2.014581 0.346313 0
M  V30 8 C 0.241170 -2.025821 -0.404498 0
M  V30 9 C -0.454752 -0.863922 -0.545305 0
M  V30 10 C -1.643914 -0.854981 -1.278757 0
M  V30 11 C -2.337167 0.431054 -1.386342 0
M  V30 12 C -1.862447 1.695025 -1.659696 0
M  V30 13 C -2.956333 2.547297 -1.638987 0
M  V30 14 C -2.932774 4.015376 -1.879718 0
M  V30 15 F -3.413510 4.695356 -0.756641 0
M  V30 16 F -1.617205 4.447437 -2.009430 0
M  V30 17 F -3.592766 4.377406 -3.023587 0
M  V30 18 C -4.107626 1.835596 -1.356923 0
M  V30 19 C -5.444778 2.124876 -1.209920 0
M  V30 20 N -5.866147 3.459366 -1.364757 0
M  V30 21 N -6.358576 1.176056 -0.923940 0
M  V30 22 C -5.915564 -0.067489 -0.786946 0
M  V30 23 N -4.614576 -0.351907 -0.929508 0
M  V30 24 N -3.680335 0.554290 -1.211565 0
M  V30 25 C -2.112461 -2.037462 -1.863521 0
M  V30 26 C -1.385041 -3.215893 -1.707332 0
M  V30 27 C -0.212798 -3.199720 -0.978053 0
M  V30 28 C 0.527162 -4.434372 -0.828005 0
M  V30 29 N 1.103524 -5.433785 -0.705959 0
M  V30 30 C 1.368603 -2.269256 1.740544 0
M  V30 31 O 0.315918 -2.673106 2.317604 0
M  V30 32 C 2.403220 -2.141924 2.803060 0
M  V30 33 C 2.549911 -3.459012 3.486816 0
M  V30 34 C 1.881074 -1.100702 3.793695 0
M  V30 35 H 6.013838 -1.664391 4.644199 0
M  V30 36 H 5.743011 -3.325281 4.110095 0
M  V30 37 H 4.414279 -2.357597 4.928014 0
M  V30 38 H 4.659981 -1.042360 0.486323 0
M  V30 39 H 3.328497 0.028250 0.931166 0
M  V30 40 H 3.255064 -2.717895 -0.447514 0
M  V30 41 H 2.715195 -1.112031 -0.991084 0
M  V30 42 H -0.086659 0.045599 -0.090768 0
M  V30 43 H -0.832307 1.922659 -1.845820 0
M  V30 44 H -6.018959 4.014944 -0.494330 0
M  V30 45 H -6.112723 4.193939 -2.058541 0
M  V30 46 H -6.663496 -0.822650 -0.556427 0
M  V30 47 H -3.052161 -1.940756 -2.420702 0
M  V30 48 H -1.783582 -4.102814 -2.175074 0
M  V30 49 H 3.547973 -3.920470 3.328553 0
M  V30 50 H 2.269999 -3.363850 4.552202 0
M  V30 51 H 1.818213 -4.216601 3.078319 0
M  V30 52 H 1.488944 -0.212672 3.256120 0
M  V30 53 H 1.117019 -1.538936 4.441227 0
M  V30 54 H 2.714879 -0.747704 4.411408 0
M  V30 END ATOM
M  V30 BEGIN BOND
M  V30 1 1 1 2
M  V30 2 2 2 3
M  V30 3 1 2 4
M  V30 4 1 4 5
M  V30 5 1 5 6
M  V30 6 1 6 7
M  V30 7 1 7 8
M  V30 8 2 8 9
M  V30 9 1 9 10
M  V30 10 1 10 11
M  V30 11 2 11 12
M  V30 12 1 12 13
M  V30 13 1 13 14
M  V30 14 1 14 15
M  V30 15 1 14 16
M  V30 16 1 14 17
M  V30 17 2 13 18
M  V30 18 1 18 19
M  V30 19 1 19 20
M  V30 20 2 19 21
M  V30 21 1 21 22
M  V30 22 2 22 23
M  V30 23 1 23 24
M  V30 24 2 10 25
M  V30 25 1 25 26
M  V30 26 2 26 27
M  V30 27 1 27 28
M  V30 28 3 28 29
M  V30 29 1 7 30
M  V30 30 2 30 31
M  V30 31 1 30 32
M  V30 32 1 32 33
M  V30 33 1 32 34
M  V30 34 1 32 4
M  V30 35 1 27 8
M  V30 36 1 24 11
M  V30 37 1 24 18
M  V30 38 1 1 35
M  V30 39 1 1 36
M  V30 40 1 1 37
M  V30 41 1 5 38
M  V30 42 1 5 39
M  V30 43 1 6 40
M  V30 44 1 6 41
M  V30 45 1 9 42
M  V30 46 1 12 43
M  V30 47 1 20 44
M  V30 48 1 20 45
M  V30 49 1 22 46
M  V30 50 1 25 47
M  V30 51 1 26 48
M  V30 52 1 33 49
M  V30 53 1 33 50
M  V30 54 1 33 51
M  V30 55 1 34 52
M  V30 56 1 34 53
M  V30 57 1 34 54
M  V30 END BOND
M  V30 END CTAB
M  END
>  <Dataset>  (726) 
ChEMBL_Kinases

>  <Ligand_Instance>  (726) 
nan

>  <PDB_ID>  (726) 
nan

>  <Standardized_SMILES>  (726) 
CC(=O)N1CCN(c2cc(-c3cc(C(F)(F)F)c4c(N)ncnn34)ccc2C#N)C(=O)C1(C)C

>  <Name>  (726) 
nan

>  <Pocket>  (726) 
nan

>  <ATP_Site>  (726) 
nan

>  <Peripheral>  (726) 
nan

>  <Num_H_Atoms_ProtBoundConf>  (726) 
nan

>  <Num_Resolved_Atoms>  (726) 
nan

>  <Num_Not_Resolved_Atoms>  (726) 
nan

$$$$
CHEMBL3916717
     RDKit          3D

  0  0  0  0  0  0  0  0  0  0999 V3000
M  V30 BEGIN CTAB
M  V30 COUNTS 57 61 0 0 0
M  V30 BEGIN ATOM
M  V30 1 C 2.664224 -5.834455 1.937283 0
M  V30 2 C 2.230667 -4.442866 1.666273 0
M  V30 3 C 1.994561 -3.608895 2.738049 0
M  V30 4 C 1.589915 -2.305634 2.556490 0
M  V30 5 F 1.352245 -1.469737 3.577925 0
M  V30 6 C 1.395012 -1.750160 1.311652 0
M  V30 7 C 0.974736 -0.409047 0.923224 0
M  V30 8 O 0.831988 -0.020683 -0.277386 0
M  V30 9 N 0.656198 0.679639 1.778236 0
M  V30 10 C 0.263606 1.918354 1.192315 0
M  V30 11 C 1.237092 2.869143 0.889274 0
M  V30 12 C 0.830509 4.079870 0.313945 0
M  V30 13 C -0.527421 4.289819 0.066030 0
M  V30 14 C -1.467957 3.317266 0.382364 0
M  V30 15 C -2.870188 3.607677 0.094204 0
M  V30 16 N -3.406572 3.568725 -1.160866 0
M  V30 17 N -4.696348 3.880695 -1.083710 0
M  V30 18 C -4.960622 4.111016 0.201752 0
M  V30 19 N -3.841938 3.949517 0.967190 0
M  V30 20 C -3.720786 4.106611 2.382185 0
M  V30 21 C -2.418441 4.676278 2.851636 0
M  V30 22 C -3.907756 2.753272 3.060453 0
M  V30 23 N -1.032588 2.173649 0.931708 0
M  V30 24 C 1.633453 -2.593008 0.219152 0
M  V30 25 C 2.038127 -3.895409 0.416023 0
M  V30 26 N 2.274305 -4.733026 -0.710479 0
M  V30 27 C 3.397083 -5.410414 -0.892002 0
M  V30 28 N 3.247029 -6.085970 -2.067185 0
M  V30 29 C 2.019611 -5.797724 -2.576860 0
M  V30 30 C 1.379022 -6.279186 -3.832220 0
M  V30 31 C -0.097354 -6.573285 -3.814806 0
M  V30 32 C 0.480127 -5.363502 -4.570682 0
M  V30 33 C 1.384715 -4.925743 -1.708690 0
M  V30 34 H 2.151848 -6.263896 2.832193 0
M  V30 35 H 3.758107 -5.913072 2.174474 0
M  V30 36 H 2.424957 -6.502420 1.095556 0
M  V30 37 H 2.106358 -3.906303 3.791453 0
M  V30 38 H 0.722949 0.527550 2.808659 0
M  V30 39 H 2.307509 2.707359 1.083078 0
M  V30 40 H 1.604624 4.801124 0.088164 0
M  V30 41 H -0.831601 5.229708 -0.379283 0
M  V30 42 H -5.931307 4.390789 0.603017 0
M  V30 43 H -4.571880 4.768884 2.710623 0
M  V30 44 H -2.574721 5.190548 3.841767 0
M  V30 45 H -2.129836 5.520388 2.170246 0
M  V30 46 H -1.626677 3.945105 3.027304 0
M  V30 47 H -4.494492 2.041338 2.452212 0
M  V30 48 H -2.898198 2.332156 3.215067 0
M  V30 49 H -4.454160 2.924825 4.013613 0
M  V30 50 H 1.512604 -2.265596 -0.824978 0
M  V30 51 H 4.290365 -5.469597 -0.285303 0
M  V30 52 H 1.957396 -6.979784 -4.476463 0
M  V30 53 H -0.694327 -6.352879 -2.907450 0
M  V30 54 H -0.503769 -7.406318 -4.423981 0
M  V30 55 H 0.176961 -4.388480 -4.173699 0
M  V30 56 H 0.432825 -5.421667 -5.684894 0
M  V30 57 H 0.400223 -4.506302 -1.822762 0
M  V30 END ATOM
M  V30 BEGIN BOND
M  V30 1 1 1 2
M  V30 2 2 2 3
M  V30 3 1 3 4
M  V30 4 1 4 5
M  V30 5 2 4 6
M  V30 6 1 6 7
M  V30 7 2 7 8
M  V30 8 1 7 9
M  V30 9 1 9 10
M  V30 10 2 10 11
M  V30 11 1 11 12
M  V30 12 2 12 13
M  V30 13 1 13 14
M  V30 14 1 14 15
M  V30 15 2 15 16
M  V30 16 1 16 17
M  V30 17 2 17 18
M  V30 18 1 18 19
M  V30 19 1 19 20
M  V30 20 1 20 21
M  V30 21 1 20 22
M  V30 22 2 14 23
M  V30 23 1 6 24
M  V30 24 2 24 25
M  V30 25 1 25 26
M  V30 26 1 26 27
M  V30 27 2 27 28
M  V30 28 1 28 29
M  V30 29 1 29 30
M  V30 30 1 30 31
M  V30 31 1 31 32
M  V30 32 2 29 33
M  V30 33 1 25 2
M  V30 34 1 33 26
M  V30 35 1 23 10
M  V30 36 1 32 30
M  V30 37 1 19 15
M  V30 38 1 1 34
M  V30 39 1 1 35
M  V30 40 1 1 36
M  V30 41 1 3 37
M  V30 42 1 9 38
M  V30 43 1 11 39
M  V30 44 1 12 40
M  V30 45 1 13 41
M  V30 46 1 18 42
M  V30 47 1 20 43
M  V30 48 1 21 44
M  V30 49 1 21 45
M  V30 50 1 21 46
M  V30 51 1 22 47
M  V30 52 1 22 48
M  V30 53 1 22 49
M  V30 54 1 24 50
M  V30 55 1 27 51
M  V30 56 1 30 52
M  V30 57 1 31 53
M  V30 58 1 31 54
M  V30 59 1 32 55
M  V30 60 1 32 56
M  V30 61 1 33 57
M  V30 END BOND
M  V30 END CTAB
M  END
>  <Dataset>  (727) 
ChEMBL_Kinases

>  <Ligand_Instance>  (727) 
nan

>  <PDB_ID>  (727) 
nan

>  <Standardized_SMILES>  (727) 
Cc1cc(F)c(C(=O)Nc2cccc(-c3nncn3C(C)C)n2)cc1-n1cnc(C2CC2)c1

>  <Name>  (727) 
SELONSERTIB

>  <Pocket>  (727) 
nan

>  <ATP_Site>  (727) 
nan

>  <Peripheral>  (727) 
nan

>  <Num_H_Atoms_ProtBoundConf>  (727) 
nan

>  <Num_Resolved_Atoms>  (727) 
nan

>  <Num_Not_Resolved_Atoms>  (727) 
nan

$$$$
CHEMBL4064596
     RDKit          3D

  0  0  0  0  0  0  0  0  0  0999 V3000
M  V30 BEGIN CTAB
M  V30 COUNTS 46 49 0 0 0
M  V30 BEGIN ATOM
M  V30 1 C -0.749329 -4.077450 0.245138 0
M  V30 2 C -1.166650 -2.768867 0.150911 0
M  V30 3 C -1.426908 -2.183490 -1.065296 0
M  V30 4 C -1.260948 -2.942317 -2.223800 0
M  V30 5 C -1.554358 -2.268943 -3.528139 0
M  V30 6 S 0.016845 -1.525080 -4.064450 0
M  V30 7 C 0.529663 -0.214890 -2.965840 0
M  V30 8 C 0.125794 1.077048 -3.206969 0
M  V30 9 C 0.528064 2.089388 -2.350496 0
M  V30 10 C 1.320127 1.719774 -1.297745 0
M  V30 11 C 1.756631 0.449053 -1.003096 0
M  V30 12 N 2.569596 0.093576 0.098633 0
M  V30 13 C 3.109666 0.903943 1.165786 0
M  V30 14 C 2.055436 1.461803 2.053495 0
M  V30 15 N 1.636038 0.665897 3.084565 0
M  V30 16 C 0.695815 1.284033 3.814046 0
M  V30 17 C 0.042332 0.705548 4.983878 0
M  V30 18 C -1.145290 0.036310 4.685606 0
M  V30 19 C -1.853442 -0.550640 5.699137 0
M  V30 20 N -1.428196 -0.497283 6.987143 0
M  V30 21 C -0.270854 0.152457 7.293464 0
M  V30 22 C 0.471833 0.758776 6.289164 0
M  V30 23 N 0.521332 2.483735 3.235299 0
M  V30 24 N 1.330858 2.575891 2.196303 0
M  V30 25 C 1.326152 -0.514723 -1.887584 0
M  V30 26 C -0.842825 -4.249745 -2.110981 0
M  V30 27 C -0.580406 -4.841294 -0.891177 0
M  V30 28 H -0.530716 -4.587015 1.177210 0
M  V30 29 H -1.285677 -2.203610 1.086862 0
M  V30 30 H -1.755308 -1.145721 -1.100022 0
M  V30 31 H -2.357853 -1.515087 -3.404437 0
M  V30 32 H -1.789671 -3.065842 -4.259115 0
M  V30 33 H -0.500590 1.326747 -4.050885 0
M  V30 34 H 0.219098 3.107348 -2.526824 0
M  V30 35 H 1.621640 2.531113 -0.654591 0
M  V30 36 H 2.828261 -0.940151 0.156455 0
M  V30 37 H 3.602591 1.772719 0.643502 0
M  V30 38 H 3.851215 0.324569 1.744693 0
M  V30 39 H -1.545146 -0.045416 3.675380 0
M  V30 40 H -2.786951 -1.074839 5.453841 0
M  V30 41 H 0.082468 0.204860 8.312298 0
M  V30 42 H 1.394724 1.289773 6.452736 0
M  V30 43 H 1.467939 3.348496 1.532138 0
M  V30 44 H 1.615577 -1.564440 -1.748323 0
M  V30 45 H -0.743895 -4.752866 -3.058431 0
M  V30 46 H -0.256382 -5.879615 -0.931578 0
M  V30 END ATOM
M  V30 BEGIN BOND
M  V30 1 2 1 2
M  V30 2 1 2 3
M  V30 3 2 3 4
M  V30 4 1 4 5
M  V30 5 1 5 6
M  V30 6 1 6 7
M  V30 7 2 7 8
M  V30 8 1 8 9
M  V30 9 2 9 10
M  V30 10 1 10 11
M  V30 11 1 11 12
M  V30 12 1 12 13
M  V30 13 1 13 14
M  V30 14 2 14 15
M  V30 15 1 15 16
M  V30 16 1 16 17
M  V30 17 2 17 18
M  V30 18 1 18 19
M  V30 19 2 19 20
M  V30 20 1 20 21
M  V30 21 2 21 22
M  V30 22 2 16 23
M  V30 23 1 23 24
M  V30 24 2 11 25
M  V30 25 1 4 26
M  V30 26 2 26 27
M  V30 27 1 27 1
M  V30 28 1 25 7
M  V30 29 1 24 14
M  V30 30 1 22 17
M  V30 31 1 1 28
M  V30 32 1 2 29
M  V30 33 1 3 30
M  V30 34 1 5 31
M  V30 35 1 5 32
M  V30 36 1 8 33
M  V30 37 1 9 34
M  V30 38 1 10 35
M  V30 39 1 12 36
M  V30 40 1 13 37
M  V30 41 1 13 38
M  V30 42 1 18 39
M  V30 43 1 19 40
M  V30 44 1 21 41
M  V30 45 1 22 42
M  V30 46 1 24 43
M  V30 47 1 25 44
M  V30 48 1 26 45
M  V30 49 1 27 46
M  V30 END BOND
M  V30 END CTAB
M  END
>  <Dataset>  (728) 
ChEMBL_Kinases

>  <Ligand_Instance>  (728) 
nan

>  <PDB_ID>  (728) 
nan

>  <Standardized_SMILES>  (728) 
c1ccc(CSc2cccc(NCc3nc(-c4ccncc4)n[nH]3)c2)cc1

>  <Name>  (728) 
nan

>  <Pocket>  (728) 
nan

>  <ATP_Site>  (728) 
nan

>  <Peripheral>  (728) 
nan

>  <Num_H_Atoms_ProtBoundConf>  (728) 
nan

>  <Num_Resolved_Atoms>  (728) 
nan

>  <Num_Not_Resolved_Atoms>  (728) 
nan

$$$$
CHEMBL4064515
     RDKit          3D

  0  0  0  0  0  0  0  0  0  0999 V3000
M  V30 BEGIN CTAB
M  V30 COUNTS 69 73 0 0 0
M  V30 BEGIN ATOM
M  V30 1 C 4.074882 1.870612 6.528299 0
M  V30 2 C 3.641862 1.040386 5.369031 0
M  V30 3 C 4.407178 -0.023021 4.896906 0
M  V30 4 C 3.658152 -0.509130 3.837890 0
M  V30 5 N 4.011551 -1.610615 3.011193 0
M  V30 6 C 3.325723 -2.190880 1.907420 0
M  V30 7 N 3.564929 -1.731260 0.674534 0
M  V30 8 C 2.939793 -2.246359 -0.418936 0
M  V30 9 S 3.159450 -1.735799 -2.103213 0
M  V30 10 C 2.027550 -0.430025 -2.554015 0
M  V30 11 C 2.308439 0.914064 -2.411708 0
M  V30 12 C 1.342319 1.819739 -2.799498 0
M  V30 13 C 0.147983 1.353734 -3.308043 0
M  V30 14 N -0.884887 2.272024 -3.723428 0
M  V30 15 C -1.709192 2.519492 -2.596276 0
M  V30 16 O -1.481401 1.973747 -1.473080 0
M  V30 17 C -2.907764 3.386392 -2.481154 0
M  V30 18 C -3.380897 3.270571 -1.048177 0
M  V30 19 C -4.016456 1.951815 -0.730494 0
M  V30 20 C -4.599624 1.318542 -1.975783 0
M  V30 21 C -5.131236 2.416306 -2.859211 0
M  V30 22 C -3.962919 3.114495 -3.499092 0
M  V30 23 C -0.160197 0.011286 -3.461766 0
M  V30 24 C 0.819004 -0.890618 -3.068439 0
M  V30 25 N 2.050446 -3.258574 -0.217151 0
M  V30 26 C 1.789800 -3.739403 1.000467 0
M  V30 27 N 0.877832 -4.791114 1.294183 0
M  V30 28 C 0.611489 -5.296604 2.627998 0
M  V30 29 C -0.850258 -5.567037 2.855578 0
M  V30 30 N -1.715247 -4.970317 1.888161 0
M  V30 31 C -2.255806 -3.689935 2.278276 0
M  V30 32 C -1.340984 -5.057526 0.527592 0
M  V30 33 C 0.088930 -5.503029 0.304614 0
M  V30 34 N 2.427437 -3.204692 2.057279 0
M  V30 35 N 2.518583 0.210643 3.680518 0
M  V30 36 N 2.544587 1.137434 4.623750 0
M  V30 37 H 3.795098 1.408901 7.498543 0
M  V30 38 H 3.637193 2.894540 6.479557 0
M  V30 39 H 5.181925 2.011562 6.438152 0
M  V30 40 H 5.352507 -0.447396 5.199595 0
M  V30 41 H 4.905407 -2.131635 3.176992 0
M  V30 42 H 3.265958 1.182900 -2.005906 0
M  V30 43 H 1.538373 2.883085 -2.697905 0
M  V30 44 H -1.202230 2.786627 -4.549528 0
M  V30 45 H -2.517708 4.439054 -2.571416 0
M  V30 46 H -3.991944 4.139301 -0.746956 0
M  V30 47 H -2.436840 3.333337 -0.431255 0
M  V30 48 H -3.346098 1.287443 -0.164660 0
M  V30 49 H -4.879674 2.157283 -0.055248 0
M  V30 50 H -3.829995 0.755138 -2.543019 0
M  V30 51 H -5.396687 0.588451 -1.715615 0
M  V30 52 H -5.839960 2.026931 -3.621262 0
M  V30 53 H -5.701682 3.108218 -2.218815 0
M  V30 54 H -3.622705 2.472698 -4.336952 0
M  V30 55 H -4.337810 4.101708 -3.885934 0
M  V30 56 H -1.102584 -0.327590 -3.862528 0
M  V30 57 H 0.567723 -1.934762 -3.192872 0
M  V30 58 H 1.066900 -4.719641 3.435552 0
M  V30 59 H 1.118460 -6.306049 2.649847 0
M  V30 60 H -1.118269 -5.120269 3.836400 0
M  V30 61 H -1.092525 -6.647147 2.932230 0
M  V30 62 H -2.461855 -3.730702 3.358100 0
M  V30 63 H -3.234652 -3.537745 1.768414 0
M  V30 64 H -1.527769 -2.922110 1.966400 0
M  V30 65 H -1.434258 -4.028741 0.079313 0
M  V30 66 H -2.011087 -5.683539 -0.096599 0
M  V30 67 H 0.117993 -6.601494 0.488714 0
M  V30 68 H 0.391428 -5.244443 -0.729996 0
M  V30 69 H 1.815148 1.864967 4.788755 0
M  V30 END ATOM
M  V30 BEGIN BOND
M  V30 1 1 1 2
M  V30 2 2 2 3
M  V30 3 1 3 4
M  V30 4 1 4 5
M  V30 5 1 5 6
M  V30 6 2 6 7
M  V30 7 1 7 8
M  V30 8 1 8 9
M  V30 9 1 9 10
M  V30 10 2 10 11
M  V30 11 1 11 12
M  V30 12 2 12 13
M  V30 13 1 13 14
M  V30 14 1 14 15
M  V30 15 2 15 16
M  V30 16 1 15 17
M  V30 17 1 17 18
M  V30 18 1 18 19
M  V30 19 1 19 20
M  V30 20 1 20 21
M  V30 21 1 21 22
M  V30 22 1 13 23
M  V30 23 2 23 24
M  V30 24 2 8 25
M  V30 25 1 25 26
M  V30 26 1 26 27
M  V30 27 1 27 28
M  V30 28 1 28 29
M  V30 29 1 29 30
M  V30 30 1 30 31
M  V30 31 1 30 32
M  V30 32 1 32 33
M  V30 33 2 26 34
M  V30 34 2 4 35
M  V30 35 1 35 36
M  V30 36 1 36 2
M  V30 37 1 34 6
M  V30 38 1 24 10
M  V30 39 1 33 27
M  V30 40 1 22 17
M  V30 41 1 1 37
M  V30 42 1 1 38
M  V30 43 1 1 39
M  V30 44 1 3 40
M  V30 45 1 5 41
M  V30 46 1 11 42
M  V30 47 1 12 43
M  V30 48 1 14 44
M  V30 49 1 17 45
M  V30 50 1 18 46
M  V30 51 1 18 47
M  V30 52 1 19 48
M  V30 53 1 19 49
M  V30 54 1 20 50
M  V30 55 1 20 51
M  V30 56 1 21 52
M  V30 57 1 21 53
M  V30 58 1 22 54
M  V30 59 1 22 55
M  V30 60 1 23 56
M  V30 61 1 24 57
M  V30 62 1 28 58
M  V30 63 1 28 59
M  V30 64 1 29 60
M  V30 65 1 29 61
M  V30 66 1 31 62
M  V30 67 1 31 63
M  V30 68 1 31 64
M  V30 69 1 32 65
M  V30 70 1 32 66
M  V30 71 1 33 67
M  V30 72 1 33 68
M  V30 73 1 36 69
M  V30 END BOND
M  V30 END CTAB
M  END
>  <Dataset>  (729) 
ChEMBL_Kinases

>  <Ligand_Instance>  (729) 
nan

>  <PDB_ID>  (729) 
nan

>  <Standardized_SMILES>  (729) 
Cc1cc(Nc2nc(Sc3ccc(NC(=O)C4CCCCC4)cc3)nc(N3CCN(C)CC3)n2)n[nH]1

>  <Name>  (729) 
nan

>  <Pocket>  (729) 
nan

>  <ATP_Site>  (729) 
nan

>  <Peripheral>  (729) 
nan

>  <Num_H_Atoms_ProtBoundConf>  (729) 
nan

>  <Num_Resolved_Atoms>  (729) 
nan

>  <Num_Not_Resolved_Atoms>  (729) 
nan

$$$$
CHEMBL4065359
     RDKit          3D

  0  0  0  0  0  0  0  0  0  0999 V3000
M  V30 BEGIN CTAB
M  V30 COUNTS 58 61 0 0 0
M  V30 BEGIN ATOM
M  V30 1 C 8.007501 1.328154 -0.802837 0
M  V30 2 C 6.724862 0.816372 -0.174469 0
M  V30 3 C 6.978941 0.764963 1.317015 0
M  V30 4 C 6.431224 -0.564798 -0.667577 0
M  V30 5 C 5.617615 1.750466 -0.514428 0
M  V30 6 C 4.279214 1.639746 -0.133391 0
M  V30 7 C 3.540559 2.690054 -0.632687 0
M  V30 8 N 2.166445 3.023059 -0.525586 0
M  V30 9 C 1.219349 2.264963 0.177602 0
M  V30 10 O 1.647125 1.248931 0.725697 0
M  V30 11 N -0.136420 2.590094 0.285614 0
M  V30 12 C -1.173201 1.905356 0.964172 0
M  V30 13 C -2.448679 2.429036 0.928591 0
M  V30 14 C -3.509992 1.823366 1.563988 0
M  V30 15 C -3.366873 0.656015 2.276383 0
M  V30 16 O -4.415084 0.027311 2.924987 0
M  V30 17 C -4.834868 -1.253537 2.608713 0
M  V30 18 C -4.336705 -2.087966 1.632898 0
M  V30 19 C -4.852104 -3.332056 1.431314 0
M  V30 20 N -4.370964 -4.215816 0.437699 0
M  V30 21 C -3.336844 -3.925370 -0.533285 0
M  V30 22 C -3.995886 -3.985866 -1.900435 0
M  V30 23 O -5.080294 -4.836935 -1.952186 0
M  V30 24 C -4.904646 -5.963018 -1.133415 0
M  V30 25 C -4.919365 -5.558825 0.322563 0
M  V30 26 N -5.866993 -3.715122 2.221903 0
M  V30 27 C -6.360710 -2.897527 3.183298 0
M  V30 28 N -5.859176 -1.675637 3.386004 0
M  V30 29 C -2.085097 0.096485 2.333547 0
M  V30 30 F -1.852669 -1.061625 3.027270 0
M  V30 31 C -1.053780 0.738969 1.681204 0
M  V30 32 N 4.463081 3.404058 -1.302465 0
M  V30 33 O 5.616015 2.857137 -1.220643 0
M  V30 34 H 8.488701 2.048667 -0.089732 0
M  V30 35 H 7.739793 1.807194 -1.754997 0
M  V30 36 H 8.674367 0.451800 -0.904129 0
M  V30 37 H 7.320484 -0.253832 1.645579 0
M  V30 38 H 6.101837 1.011547 1.932000 0
M  V30 39 H 7.828600 1.434767 1.601855 0
M  V30 40 H 5.349949 -0.714975 -0.798833 0
M  V30 41 H 6.939521 -0.795458 -1.644091 0
M  V30 42 H 6.828386 -1.315757 0.051687 0
M  V30 43 H 3.896932 0.831639 0.470884 0
M  V30 44 H 1.817346 3.884847 -0.993403 0
M  V30 45 H -0.381664 3.477957 -0.224481 0
M  V30 46 H -2.643097 3.360310 0.379214 0
M  V30 47 H -4.480457 2.295690 1.489521 0
M  V30 48 H -3.523958 -1.700451 1.038823 0
M  V30 49 H -2.876702 -2.942444 -0.435536 0
M  V30 50 H -2.562605 -4.721495 -0.427754 0
M  V30 51 H -4.412384 -2.964297 -2.149654 0
M  V30 52 H -3.211068 -4.194247 -2.634541 0
M  V30 53 H -3.954227 -6.499531 -1.405980 0
M  V30 54 H -5.726593 -6.657518 -1.407348 0
M  V30 55 H -4.193443 -6.221256 0.858584 0
M  V30 56 H -5.911508 -5.649666 0.797173 0
M  V30 57 H -7.185104 -3.260869 3.795432 0
M  V30 58 H -0.110080 0.269088 1.759932 0
M  V30 END ATOM
M  V30 BEGIN BOND
M  V30 1 1 1 2
M  V30 2 1 2 3
M  V30 3 1 2 4
M  V30 4 1 2 5
M  V30 5 2 5 6
M  V30 6 1 6 7
M  V30 7 1 7 8
M  V30 8 1 8 9
M  V30 9 2 9 10
M  V30 10 1 9 11
M  V30 11 1 11 12
M  V30 12 2 12 13
M  V30 13 1 13 14
M  V30 14 2 14 15
M  V30 15 1 15 16
M  V30 16 1 16 17
M  V30 17 2 17 18
M  V30 18 1 18 19
M  V30 19 1 19 20
M  V30 20 1 20 21
M  V30 21 1 21 22
M  V30 22 1 22 23
M  V30 23 1 23 24
M  V30 24 1 24 25
M  V30 25 2 19 26
M  V30 26 1 26 27
M  V30 27 2 27 28
M  V30 28 1 15 29
M  V30 29 1 29 30
M  V30 30 2 29 31
M  V30 31 2 7 32
M  V30 32 1 32 33
M  V30 33 1 33 5
M  V30 34 1 31 12
M  V30 35 1 28 17
M  V30 36 1 25 20
M  V30 37 1 1 34
M  V30 38 1 1 35
M  V30 39 1 1 36
M  V30 40 1 3 37
M  V30 41 1 3 38
M  V30 42 1 3 39
M  V30 43 1 4 40
M  V30 44 1 4 41
M  V30 45 1 4 42
M  V30 46 1 6 43
M  V30 47 1 8 44
M  V30 48 1 11 45
M  V30 49 1 13 46
M  V30 50 1 14 47
M  V30 51 1 18 48
M  V30 52 1 21 49
M  V30 53 1 21 50
M  V30 54 1 22 51
M  V30 55 1 22 52
M  V30 56 1 24 53
M  V30 57 1 24 54
M  V30 58 1 25 55
M  V30 59 1 25 56
M  V30 60 1 27 57
M  V30 61 1 31 58
M  V30 END BOND
M  V30 END CTAB
M  END
>  <Dataset>  (730) 
ChEMBL_Kinases

>  <Ligand_Instance>  (730) 
nan

>  <PDB_ID>  (730) 
nan

>  <Standardized_SMILES>  (730) 
CC(C)(C)c1cc(NC(=O)Nc2ccc(Oc3cc(N4CCOCC4)ncn3)c(F)c2)no1

>  <Name>  (730) 
nan

>  <Pocket>  (730) 
nan

>  <ATP_Site>  (730) 
nan

>  <Peripheral>  (730) 
nan

>  <Num_H_Atoms_ProtBoundConf>  (730) 
nan

>  <Num_Resolved_Atoms>  (730) 
nan

>  <Num_Not_Resolved_Atoms>  (730) 
nan

$$$$
CHEMBL4060711
     RDKit          3D

  0  0  0  0  0  0  0  0  0  0999 V3000
M  V30 BEGIN CTAB
M  V30 COUNTS 54 58 0 0 0
M  V30 BEGIN ATOM
M  V30 1 C -1.489873 3.594561 4.375467 0
M  V30 2 O -1.521790 2.703289 3.279081 0
M  V30 3 C -1.056208 1.418412 3.512069 0
M  V30 4 C -0.557103 0.876159 4.673596 0
M  V30 5 C -0.119453 -0.421817 4.792285 0
M  V30 6 C -0.202080 -1.201479 3.657436 0
M  V30 7 C -0.689322 -0.772990 2.419216 0
M  V30 8 C -1.104637 0.566645 2.411157 0
M  V30 9 C -1.538329 0.983745 1.046114 0
M  V30 10 N -0.471776 1.600087 0.378136 0
M  V30 11 C -0.618235 2.058772 -0.949480 0
M  V30 12 C 0.622977 2.812747 -1.429512 0
M  V30 13 N 0.996110 3.858862 -0.531683 0
M  V30 14 C 0.954212 3.518829 0.871319 0
M  V30 15 C 0.689309 2.029192 1.046338 0
M  V30 16 O -0.624536 -1.815705 1.510607 0
M  V30 17 C -0.093905 -2.950982 2.115852 0
M  V30 18 C 0.029769 -4.029258 1.363934 0
M  V30 19 C -0.343070 -4.139357 -0.040796 0
M  V30 20 C -1.608571 -3.697352 -0.390688 0
M  V30 21 N -1.757392 -3.847047 -1.741972 0
M  V30 22 C -0.637787 -4.365080 -2.270102 0
M  V30 23 N -0.203349 -4.712485 -3.520819 0
M  V30 24 C 1.041902 -5.205440 -3.653231 0
M  V30 25 C 1.366064 -5.503424 -5.064979 0
M  V30 26 C 1.931476 -5.390933 -2.592493 0
M  V30 27 C 1.511447 -5.048808 -1.328689 0
M  V30 28 C 0.227928 -4.542655 -1.215809 0
M  V30 29 C 0.194005 -2.606620 3.496784 0
M  V30 30 O 0.684691 -3.455040 4.270070 0
M  V30 31 H -2.202603 4.456709 4.211184 0
M  V30 32 H -0.510292 4.022609 4.579625 0
M  V30 33 H -1.911013 3.106530 5.305943 0
M  V30 34 H -0.540833 1.581774 5.508966 0
M  V30 35 H 0.262930 -0.795165 5.728472 0
M  V30 36 H -1.968954 0.143031 0.459286 0
M  V30 37 H -2.360936 1.765686 1.137587 0
M  V30 38 H -0.767432 1.193407 -1.647884 0
M  V30 39 H -1.500151 2.739997 -1.062510 0
M  V30 40 H 0.412918 3.285455 -2.408796 0
M  V30 41 H 1.428048 2.088662 -1.557415 0
M  V30 42 H 0.607535 4.801603 -0.759264 0
M  V30 43 H 0.223782 4.106683 1.420792 0
M  V30 44 H 1.970577 3.667457 1.316028 0
M  V30 45 H 1.578222 1.533146 0.551711 0
M  V30 46 H 0.759238 1.739874 2.082836 0
M  V30 47 H 0.459456 -4.894727 1.898799 0
M  V30 48 H -2.459143 -3.278615 0.165359 0
M  V30 49 H -2.590200 -3.611807 -2.328174 0
M  V30 50 H 1.171083 -4.538176 -5.627779 0
M  V30 51 H 2.441572 -5.726069 -5.211249 0
M  V30 52 H 0.701049 -6.254477 -5.541573 0
M  V30 53 H 2.892050 -5.793008 -2.827742 0
M  V30 54 H 2.181585 -5.178857 -0.474711 0
M  V30 END ATOM
M  V30 BEGIN BOND
M  V30 1 1 1 2
M  V30 2 1 2 3
M  V30 3 2 3 4
M  V30 4 1 4 5
M  V30 5 2 5 6
M  V30 6 1 6 7
M  V30 7 2 7 8
M  V30 8 1 8 9
M  V30 9 1 9 10
M  V30 10 1 10 11
M  V30 11 1 11 12
M  V30 12 1 12 13
M  V30 13 1 13 14
M  V30 14 1 14 15
M  V30 15 1 7 16
M  V30 16 1 16 17
M  V30 17 2 17 18
M  V30 18 1 18 19
M  V30 19 2 19 20
M  V30 20 1 20 21
M  V30 21 1 21 22
M  V30 22 2 22 23
M  V30 23 1 23 24
M  V30 24 1 24 25
M  V30 25 2 24 26
M  V30 26 1 26 27
M  V30 27 2 27 28
M  V30 28 1 17 29
M  V30 29 2 29 30
M  V30 30 1 8 3
M  V30 31 1 15 10
M  V30 32 1 28 19
M  V30 33 1 29 6
M  V30 34 1 28 22
M  V30 35 1 1 31
M  V30 36 1 1 32
M  V30 37 1 1 33
M  V30 38 1 4 34
M  V30 39 1 5 35
M  V30 40 1 9 36
M  V30 41 1 9 37
M  V30 42 1 11 38
M  V30 43 1 11 39
M  V30 44 1 12 40
M  V30 45 1 12 41
M  V30 46 1 13 42
M  V30 47 1 14 43
M  V30 48 1 14 44
M  V30 49 1 15 45
M  V30 50 1 15 46
M  V30 51 1 18 47
M  V30 52 1 20 48
M  V30 53 1 21 49
M  V30 54 1 25 50
M  V30 55 1 25 51
M  V30 56 1 25 52
M  V30 57 1 26 53
M  V30 58 1 27 54
M  V30 END BOND
M  V30 END CTAB
M  END
>  <Dataset>  (731) 
ChEMBL_Kinases

>  <Ligand_Instance>  (731) 
nan

>  <PDB_ID>  (731) 
nan

>  <Standardized_SMILES>  (731) 
COc1ccc2c(c1CN1CCNCC1)O/C(=C\c1c[nH]c3nc(C)ccc13)C2=O

>  <Name>  (731) 
nan

>  <Pocket>  (731) 
nan

>  <ATP_Site>  (731) 
nan

>  <Peripheral>  (731) 
nan

>  <Num_H_Atoms_ProtBoundConf>  (731) 
nan

>  <Num_Resolved_Atoms>  (731) 
nan

>  <Num_Not_Resolved_Atoms>  (731) 
nan

$$$$
CHEMBL3932537
     RDKit          3D

  0  0  0  0  0  0  0  0  0  0999 V3000
M  V30 BEGIN CTAB
M  V30 COUNTS 55 59 0 0 0
M  V30 BEGIN ATOM
M  V30 1 N 1.607083 -2.982354 2.192958 0
M  V30 2 C 2.345456 -1.724259 2.104597 0 CFG=1
M  V30 3 C 3.591450 -1.876742 2.914934 0
M  V30 4 C 4.700903 -0.942619 2.636371 0
M  V30 5 C 4.626738 -0.078778 1.426268 0
M  V30 6 N 3.347124 -0.118459 0.744962 0
M  V30 7 C 2.700271 1.026472 0.199863 0
M  V30 8 C 3.373777 2.230046 0.083083 0
M  V30 9 C 2.759546 3.353453 -0.434910 0
M  V30 10 N 1.465590 3.317979 -0.849853 0
M  V30 11 C 0.787915 2.155974 -0.745597 0
M  V30 12 N -0.578844 1.868714 -1.115598 0
M  V30 13 C -1.374447 2.164109 0.050704 0
M  V30 14 O -0.848306 2.592328 1.133691 0
M  V30 15 C -2.839661 2.000507 0.093635 0
M  V30 16 C -3.858654 2.951754 0.230673 0
M  V30 17 N -5.018732 2.282511 0.209297 0
M  V30 18 C -4.820097 0.974911 0.068926 0
M  V30 19 C -5.618163 -0.141651 -0.011287 0
M  V30 20 C -5.014450 -1.368894 -0.159929 0
M  V30 21 C -3.663761 -1.576819 -0.234691 0
M  V30 22 C -2.967810 -2.840115 -0.386516 0
M  V30 23 C -1.586977 -2.830793 -0.414272 0
M  V30 24 C -0.815039 -3.968079 -0.554278 0
M  V30 25 C -1.426867 -5.206523 -0.676677 0
M  V30 26 C -2.801856 -5.271002 -0.654978 0
M  V30 27 C -3.501467 -4.095728 -0.512317 0
M  V30 28 F -4.836533 -4.225741 -0.501185 0
M  V30 29 N -2.903961 -0.472945 -0.153585 0
M  V30 30 C -3.459130 0.746032 -0.008483 0
M  V30 31 C 1.394737 1.005010 -0.222761 0
M  V30 32 C 2.811883 -1.445942 0.675465 0
M  V30 33 H 1.799849 -3.455553 3.099629 0
M  V30 34 H 0.597453 -2.884393 1.978359 0
M  V30 35 H 1.718401 -0.868924 2.468866 0
M  V30 36 H 3.923377 -2.945801 2.764458 0
M  V30 37 H 3.260735 -1.867949 3.992803 0
M  V30 38 H 5.661135 -1.534017 2.585645 0
M  V30 39 H 4.833852 -0.315601 3.554287 0
M  V30 40 H 4.875174 0.961813 1.715925 0
M  V30 41 H 5.388112 -0.363094 0.665932 0
M  V30 42 H 4.396957 2.381776 0.374774 0
M  V30 43 H 3.227432 4.318916 -0.555659 0
M  V30 44 H -1.088644 1.524576 -1.958528 0
M  V30 45 H -3.648859 4.015926 0.330489 0
M  V30 46 H -5.972062 2.746384 0.294814 0
M  V30 47 H -6.694774 -0.052364 0.040428 0
M  V30 48 H -5.664862 -2.202860 -0.218258 0
M  V30 49 H -1.010792 -1.920322 -0.325300 0
M  V30 50 H 0.263582 -3.929463 -0.573384 0
M  V30 51 H -0.788369 -6.073787 -0.785154 0
M  V30 52 H -3.295053 -6.228090 -0.749014 0
M  V30 53 H 0.909685 0.047146 -0.108061 0
M  V30 54 H 3.643237 -2.178642 0.459624 0
M  V30 55 H 2.031800 -1.618965 -0.073933 0
M  V30 END ATOM
M  V30 BEGIN BOND
M  V30 1 1 1 2
M  V30 2 1 2 3
M  V30 3 1 3 4
M  V30 4 1 4 5
M  V30 5 1 5 6
M  V30 6 1 6 7
M  V30 7 2 7 8
M  V30 8 1 8 9
M  V30 9 2 9 10
M  V30 10 1 10 11
M  V30 11 1 11 12
M  V30 12 1 12 13
M  V30 13 2 13 14
M  V30 14 1 13 15
M  V30 15 2 15 16
M  V30 16 1 16 17
M  V30 17 1 17 18
M  V30 18 2 18 19
M  V30 19 1 19 20
M  V30 20 2 20 21
M  V30 21 1 21 22
M  V30 22 2 22 23
M  V30 23 1 23 24
M  V30 24 2 24 25
M  V30 25 1 25 26
M  V30 26 2 26 27
M  V30 27 1 27 28
M  V30 28 1 21 29
M  V30 29 2 29 30
M  V30 30 2 11 31
M  V30 31 1 6 32
M  V30 32 1 32 2
M  V30 33 1 31 7
M  V30 34 1 30 15
M  V30 35 1 30 18
M  V30 36 1 27 22
M  V30 37 1 1 33
M  V30 38 1 1 34
M  V30 39 1 2 35 CFG=1
M  V30 40 1 3 36
M  V30 41 1 3 37
M  V30 42 1 4 38
M  V30 43 1 4 39
M  V30 44 1 5 40
M  V30 45 1 5 41
M  V30 46 1 8 42
M  V30 47 1 9 43
M  V30 48 1 12 44
M  V30 49 1 16 45
M  V30 50 1 17 46
M  V30 51 1 19 47
M  V30 52 1 20 48
M  V30 53 1 23 49
M  V30 54 1 24 50
M  V30 55 1 25 51
M  V30 56 1 26 52
M  V30 57 1 31 53
M  V30 58 1 32 54
M  V30 59 1 32 55
M  V30 END BOND
M  V30 END CTAB
M  END
>  <Dataset>  (732) 
ChEMBL_Kinases

>  <Ligand_Instance>  (732) 
nan

>  <PDB_ID>  (732) 
nan

>  <Standardized_SMILES>  (732) 
N[C@H]1CCCN(c2ccnc(NC(=O)c3c[nH]c4ccc(-c5ccccc5F)nc34)c2)C1

>  <Name>  (732) 
nan

>  <Pocket>  (732) 
nan

>  <ATP_Site>  (732) 
nan

>  <Peripheral>  (732) 
nan

>  <Num_H_Atoms_ProtBoundConf>  (732) 
nan

>  <Num_Resolved_Atoms>  (732) 
nan

>  <Num_Not_Resolved_Atoms>  (732) 
nan

$$$$
CHEMBL4060440
     RDKit          3D

  0  0  0  0  0  0  0  0  0  0999 V3000
M  V30 BEGIN CTAB
M  V30 COUNTS 47 51 0 0 0
M  V30 BEGIN ATOM
M  V30 1 C -2.625546 -3.704362 2.888012 0
M  V30 2 C -1.215461 -3.951043 2.445237 0
M  V30 3 C -0.545018 -2.986834 1.699319 0
M  V30 4 C 0.742857 -3.181361 1.279658 0
M  V30 5 C 1.502795 -2.194892 0.487152 0
M  V30 6 C 2.442465 -2.709776 -0.398241 0
M  V30 7 C 3.237915 -1.933034 -1.213475 0
M  V30 8 C 3.055092 -0.570662 -1.109380 0
M  V30 9 N 3.829410 0.197517 -1.907001 0
M  V30 10 C 3.732984 1.540542 -1.889206 0
M  V30 11 C 2.810059 2.056711 -1.019265 0
M  V30 12 N 2.474309 3.329448 -0.762724 0
M  V30 13 N 1.528548 3.330659 0.159956 0
M  V30 14 N 1.204698 2.084277 0.545528 0
M  V30 15 C 0.195251 1.879627 1.548188 0 CFG=1
M  V30 16 C -0.085864 3.234430 2.272804 0
M  V30 17 C -1.143152 1.532809 0.990771 0
M  V30 18 C -2.136473 1.345974 1.930143 0
M  V30 19 C -3.430981 1.020497 1.583245 0
M  V30 20 C -3.748238 0.874377 0.226836 0
M  V30 21 F -5.007781 0.555786 -0.147546 0
M  V30 22 C -2.746912 1.062502 -0.724392 0
M  V30 23 C -1.455336 1.388312 -0.357931 0
M  V30 24 C 2.000395 1.321010 -0.188847 0
M  V30 25 C 2.134540 -0.026570 -0.243834 0
M  V30 26 C 1.361819 -0.823559 0.549941 0
M  V30 27 C 1.349478 -4.373563 1.626813 0
M  V30 28 C 0.693287 -5.334618 2.365471 0
M  V30 29 N -0.584873 -5.087948 2.755423 0
M  V30 30 H -2.991611 -2.773804 2.419241 0
M  V30 31 H -3.234710 -4.558377 2.483718 0
M  V30 32 H -2.719827 -3.687879 3.991403 0
M  V30 33 H -1.038742 -2.054559 1.435567 0
M  V30 34 H 2.583382 -3.779700 -0.477012 0
M  V30 35 H 3.966430 -2.338628 -1.899918 0
M  V30 36 H 4.339538 2.188983 -2.516946 0
M  V30 37 H 0.451091 1.229677 2.385230 0
M  V30 38 H -0.117917 3.987501 1.458649 0
M  V30 39 H 0.715293 3.486746 2.968445 0
M  V30 40 H -1.082563 3.202213 2.718753 0
M  V30 41 H -2.041898 1.425297 3.018155 0
M  V30 42 H -4.252435 0.860970 2.266713 0
M  V30 43 H -2.975380 0.953466 -1.775100 0
M  V30 44 H -0.646500 1.545038 -1.036989 0
M  V30 45 H 0.613882 -0.577825 1.256450 0
M  V30 46 H 2.349577 -4.639024 1.357687 0
M  V30 47 H 1.102210 -6.290620 2.674896 0
M  V30 END ATOM
M  V30 BEGIN BOND
M  V30 1 1 1 2
M  V30 2 2 2 3
M  V30 3 1 3 4
M  V30 4 1 4 5
M  V30 5 2 5 6
M  V30 6 1 6 7
M  V30 7 2 7 8
M  V30 8 1 8 9
M  V30 9 2 9 10
M  V30 10 1 10 11
M  V30 11 1 11 12
M  V30 12 2 12 13
M  V30 13 1 13 14
M  V30 14 1 14 15
M  V30 15 1 15 16
M  V30 16 1 15 17
M  V30 17 2 17 18
M  V30 18 1 18 19
M  V30 19 2 19 20
M  V30 20 1 20 21
M  V30 21 1 20 22
M  V30 22 2 22 23
M  V30 23 1 14 24
M  V30 24 1 24 25
M  V30 25 2 25 26
M  V30 26 2 4 27
M  V30 27 1 27 28
M  V30 28 2 28 29
M  V30 29 1 29 2
M  V30 30 1 26 5
M  V30 31 1 25 8
M  V30 32 2 24 11
M  V30 33 1 23 17
M  V30 34 1 1 30
M  V30 35 1 1 31
M  V30 36 1 1 32
M  V30 37 1 3 33
M  V30 38 1 6 34
M  V30 39 1 7 35
M  V30 40 1 10 36
M  V30 41 1 15 37 CFG=1
M  V30 42 1 16 38
M  V30 43 1 16 39
M  V30 44 1 16 40
M  V30 45 1 18 41
M  V30 46 1 19 42
M  V30 47 1 22 43
M  V30 48 1 23 44
M  V30 49 1 26 45
M  V30 50 1 27 46
M  V30 51 1 28 47
M  V30 END BOND
M  V30 END CTAB
M  END
>  <Dataset>  (733) 
ChEMBL_Kinases

>  <Ligand_Instance>  (733) 
nan

>  <PDB_ID>  (733) 
nan

>  <Standardized_SMILES>  (733) 
Cc1cc(-c2ccc3ncc4nnn([C@@H](C)c5ccc(F)cc5)c4c3c2)ccn1

>  <Name>  (733) 
nan

>  <Pocket>  (733) 
nan

>  <ATP_Site>  (733) 
nan

>  <Peripheral>  (733) 
nan

>  <Num_H_Atoms_ProtBoundConf>  (733) 
nan

>  <Num_Resolved_Atoms>  (733) 
nan

>  <Num_Not_Resolved_Atoms>  (733) 
nan

$$$$
CHEMBL4060295
     RDKit          3D

  0  0  0  0  0  0  0  0  0  0999 V3000
M  V30 BEGIN CTAB
M  V30 COUNTS 53 55 0 0 0
M  V30 BEGIN ATOM
M  V30 1 C -0.460201 -3.527007 3.867979 0
M  V30 2 N 0.241461 -4.374142 2.915952 0
M  V30 3 C 1.605004 -4.763217 2.858484 0
M  V30 4 C 2.385365 -3.885042 2.117295 0
M  V30 5 C 3.756839 -4.088571 1.938658 0
M  V30 6 O 4.541187 -3.205198 1.193260 0
M  V30 7 C 3.994774 -2.075288 0.589503 0
M  V30 8 C 3.964958 -0.899903 1.310952 0
M  V30 9 C 3.425211 0.225057 0.720450 0
M  V30 10 C 2.940932 0.113092 -0.568891 0
M  V30 11 N 2.384755 1.311685 -1.150598 0
M  V30 12 C 1.013206 1.393424 -0.872728 0
M  V30 13 O 0.515416 0.457229 -0.196378 0
M  V30 14 N 0.154596 2.443166 -1.293754 0
M  V30 15 C -1.235687 2.534074 -1.016776 0
M  V30 16 C -2.042616 1.671031 -0.310080 0
M  V30 17 C -3.308218 2.219029 -0.335136 0
M  V30 18 C -4.571519 1.715732 0.265903 0
M  V30 19 C -4.319458 0.393681 0.993934 0
M  V30 20 C -5.608954 1.441490 -0.801023 0
M  V30 21 C -5.134812 2.656720 1.305341 0
M  V30 22 O -3.225367 3.332305 -1.018458 0
M  V30 23 N -2.018228 3.538679 -1.429121 0
M  V30 24 C 2.976043 -1.068097 -1.280975 0
M  V30 25 C 2.434128 -1.099086 -2.659907 0
M  V30 26 C 3.517998 -2.216082 -0.700550 0
M  V30 27 N 4.291376 -5.194422 2.529513 0
M  V30 28 C 3.504152 -6.037382 3.249606 0
M  V30 29 N 2.185746 -5.838889 3.419507 0
M  V30 30 H 0.144907 -3.515635 4.797669 0
M  V30 31 H -1.463803 -3.925513 4.062778 0
M  V30 32 H -0.523915 -2.528357 3.424231 0
M  V30 33 H -0.211271 -4.827704 2.104136 0
M  V30 34 H 2.010471 -2.989419 1.625662 0
M  V30 35 H 4.349421 -0.832359 2.320125 0
M  V30 36 H 3.393144 1.156581 1.271026 0
M  V30 37 H 2.829059 2.082624 -1.715689 0
M  V30 38 H 0.655042 3.154573 -1.836822 0
M  V30 39 H -1.762276 0.760043 0.166154 0
M  V30 40 H -3.725395 -0.308421 0.349966 0
M  V30 41 H -3.832861 0.546095 1.956746 0
M  V30 42 H -5.279388 -0.135730 1.163180 0
M  V30 43 H -6.304265 2.305530 -0.826573 0
M  V30 44 H -5.111622 1.353716 -1.805863 0
M  V30 45 H -6.133267 0.486331 -0.604681 0
M  V30 46 H -5.663002 3.470198 0.779081 0
M  V30 47 H -4.304949 3.038052 1.914796 0
M  V30 48 H -5.851525 2.040991 1.905919 0
M  V30 49 H 2.916018 -1.963347 -3.175116 0
M  V30 50 H 2.709329 -0.204373 -3.250411 0
M  V30 51 H 1.351819 -1.280737 -2.681260 0
M  V30 52 H 3.556667 -3.154091 -1.239002 0
M  V30 53 H 3.929642 -6.917099 3.719589 0
M  V30 END ATOM
M  V30 BEGIN BOND
M  V30 1 1 1 2
M  V30 2 1 2 3
M  V30 3 2 3 4
M  V30 4 1 4 5
M  V30 5 1 5 6
M  V30 6 1 6 7
M  V30 7 2 7 8
M  V30 8 1 8 9
M  V30 9 2 9 10
M  V30 10 1 10 11
M  V30 11 1 11 12
M  V30 12 2 12 13
M  V30 13 1 12 14
M  V30 14 1 14 15
M  V30 15 1 15 16
M  V30 16 2 16 17
M  V30 17 1 17 18
M  V30 18 1 18 19
M  V30 19 1 18 20
M  V30 20 1 18 21
M  V30 21 1 17 22
M  V30 22 1 22 23
M  V30 23 1 10 24
M  V30 24 1 24 25
M  V30 25 2 24 26
M  V30 26 2 5 27
M  V30 27 1 27 28
M  V30 28 2 28 29
M  V30 29 1 29 3
M  V30 30 1 26 7
M  V30 31 2 23 15
M  V30 32 1 1 30
M  V30 33 1 1 31
M  V30 34 1 1 32
M  V30 35 1 2 33
M  V30 36 1 4 34
M  V30 37 1 8 35
M  V30 38 1 9 36
M  V30 39 1 11 37
M  V30 40 1 14 38
M  V30 41 1 16 39
M  V30 42 1 19 40
M  V30 43 1 19 41
M  V30 44 1 19 42
M  V30 45 1 20 43
M  V30 46 1 20 44
M  V30 47 1 20 45
M  V30 48 1 21 46
M  V30 49 1 21 47
M  V30 50 1 21 48
M  V30 51 1 25 49
M  V30 52 1 25 50
M  V30 53 1 25 51
M  V30 54 1 26 52
M  V30 55 1 28 53
M  V30 END BOND
M  V30 END CTAB
M  END
>  <Dataset>  (734) 
ChEMBL_Kinases

>  <Ligand_Instance>  (734) 
nan

>  <PDB_ID>  (734) 
nan

>  <Standardized_SMILES>  (734) 
CNc1cc(Oc2ccc(NC(=O)Nc3cc(C(C)(C)C)on3)c(C)c2)ncn1

>  <Name>  (734) 
nan

>  <Pocket>  (734) 
nan

>  <ATP_Site>  (734) 
nan

>  <Peripheral>  (734) 
nan

>  <Num_H_Atoms_ProtBoundConf>  (734) 
nan

>  <Num_Resolved_Atoms>  (734) 
nan

>  <Num_Not_Resolved_Atoms>  (734) 
nan

$$$$
CHEMBL3932879
     RDKit          3D

  0  0  0  0  0  0  0  0  0  0999 V3000
M  V30 BEGIN CTAB
M  V30 COUNTS 49 52 0 0 0
M  V30 BEGIN ATOM
M  V30 1 C -0.671744 -4.498268 -1.895024 0
M  V30 2 C -0.084299 -3.226133 -1.349884 0
M  V30 3 N 1.060252 -2.868092 -1.956865 0
M  V30 4 C 1.683984 -1.761795 -1.557805 0
M  V30 5 C 2.856269 -1.488461 -2.224485 0
M  V30 6 C 3.571786 -0.377039 -1.864019 0
M  V30 7 C 3.101249 0.430328 -0.852190 0
M  V30 8 C 1.933513 0.196263 -0.158807 0
M  V30 9 C 1.555040 1.091298 0.904555 0
M  V30 10 N 2.453603 2.003083 1.368843 0
M  V30 11 C 1.956096 2.781769 2.333134 0
M  V30 12 C 0.654036 2.406646 2.559437 0
M  V30 13 C 0.465786 1.382984 1.668682 0
M  V30 14 Cl -1.058613 0.568051 1.514301 0
M  V30 15 C 0.057334 3.223708 3.605199 0
M  V30 16 O -1.108186 3.113038 4.022346 0
M  V30 17 N 1.093958 4.112818 3.987020 0
M  V30 18 C 2.307060 3.899742 3.243101 0 CFG=2
M  V30 19 C 2.703994 5.109933 2.429261 0
M  V30 20 C 1.269442 -0.923412 -0.563637 0
M  V30 21 N 0.142728 -1.305853 0.009542 0
M  V30 22 C -0.531284 -2.400926 -0.340799 0
M  V30 23 N -1.741084 -2.893318 0.202684 0
M  V30 24 C -2.953132 -3.384281 0.749099 0
M  V30 25 C -3.449442 -4.657013 0.021326 0
M  V30 26 C -4.150497 -2.445434 0.661239 0
M  V30 27 C -2.867436 -3.829494 2.215319 0
M  V30 28 H -1.624304 -4.295311 -2.367320 0
M  V30 29 H -0.823875 -5.136600 -1.003438 0
M  V30 30 H 0.051129 -5.032001 -2.548973 0
M  V30 31 H 3.236190 -2.116221 -3.022265 0
M  V30 32 H 4.490152 -0.166087 -2.389559 0
M  V30 33 H 3.761070 1.277779 -0.666988 0
M  V30 34 H 3.465423 2.177223 1.084357 0
M  V30 35 H 0.973000 4.840557 4.731725 0
M  V30 36 H 3.103794 3.606290 3.961712 0
M  V30 37 H 2.110787 6.014177 2.714111 0
M  V30 38 H 3.795305 5.254728 2.564081 0
M  V30 39 H 2.556862 4.890221 1.342644 0
M  V30 40 H -1.910511 -2.162213 0.958998 0
M  V30 41 H -3.556558 -4.469600 -1.057802 0
M  V30 42 H -2.826248 -5.518610 0.204985 0
M  V30 43 H -4.482731 -4.890807 0.372370 0
M  V30 44 H -3.953947 -1.449882 1.085968 0
M  V30 45 H -4.972710 -2.979850 1.182139 0
M  V30 46 H -4.429921 -2.402271 -0.409806 0
M  V30 47 H -2.149036 -3.195749 2.777231 0
M  V30 48 H -3.851863 -3.704692 2.712499 0
M  V30 49 H -2.619524 -4.908673 2.287356 0
M  V30 END ATOM
M  V30 BEGIN BOND
M  V30 1 1 1 2
M  V30 2 2 2 3
M  V30 3 1 3 4
M  V30 4 2 4 5
M  V30 5 1 5 6
M  V30 6 2 6 7
M  V30 7 1 7 8
M  V30 8 1 8 9
M  V30 9 1 9 10
M  V30 10 1 10 11
M  V30 11 2 11 12
M  V30 12 1 12 13
M  V30 13 1 13 14
M  V30 14 1 12 15
M  V30 15 2 15 16
M  V30 16 1 15 17
M  V30 17 1 17 18
M  V30 18 1 18 19
M  V30 19 2 8 20
M  V30 20 1 20 21
M  V30 21 2 21 22
M  V30 22 1 22 23
M  V30 23 1 23 24
M  V30 24 1 24 25
M  V30 25 1 24 26
M  V30 26 1 24 27
M  V30 27 1 22 2
M  V30 28 1 20 4
M  V30 29 2 13 9
M  V30 30 1 18 11
M  V30 31 1 1 28
M  V30 32 1 1 29
M  V30 33 1 1 30
M  V30 34 1 5 31
M  V30 35 1 6 32
M  V30 36 1 7 33
M  V30 37 1 10 34
M  V30 38 1 17 35
M  V30 39 1 18 36 CFG=1
M  V30 40 1 19 37
M  V30 41 1 19 38
M  V30 42 1 19 39
M  V30 43 1 23 40
M  V30 44 1 25 41
M  V30 45 1 25 42
M  V30 46 1 25 43
M  V30 47 1 26 44
M  V30 48 1 26 45
M  V30 49 1 26 46
M  V30 50 1 27 47
M  V30 51 1 27 48
M  V30 52 1 27 49
M  V30 END BOND
M  V30 END CTAB
M  END
>  <Dataset>  (735) 
ChEMBL_Kinases

>  <Ligand_Instance>  (735) 
nan

>  <PDB_ID>  (735) 
nan

>  <Standardized_SMILES>  (735) 
Cc1nc2cccc(-c3[nH]c4c(c3Cl)C(=O)N[C@@H]4C)c2nc1NC(C)(C)C

>  <Name>  (735) 
nan

>  <Pocket>  (735) 
nan

>  <ATP_Site>  (735) 
nan

>  <Peripheral>  (735) 
nan

>  <Num_H_Atoms_ProtBoundConf>  (735) 
nan

>  <Num_Resolved_Atoms>  (735) 
nan

>  <Num_Not_Resolved_Atoms>  (735) 
nan

$$$$
CHEMBL3932938
     RDKit          3D

  0  0  0  0  0  0  0  0  0  0999 V3000
M  V30 BEGIN CTAB
M  V30 COUNTS 50 53 0 0 0
M  V30 BEGIN ATOM
M  V30 1 C -0.320558 2.569393 4.375173 0
M  V30 2 C 0.806348 1.626415 4.125467 0
M  V30 3 C 1.754238 1.252305 5.067636 0
M  V30 4 C 2.765185 0.358934 4.712864 0
M  V30 5 S 3.946563 -0.088421 5.940598 0
M  V30 6 N 5.300972 0.952445 5.959922 0
M  V30 7 O 3.332813 -0.086315 7.321763 0
M  V30 8 O 4.430677 -1.490073 5.712017 0
M  V30 9 C 2.862134 -0.180107 3.431958 0
M  V30 10 C 1.929584 0.178600 2.479277 0
M  V30 11 C 0.947185 1.063961 2.871475 0
M  V30 12 N -0.002765 1.417084 1.870980 0
M  V30 13 C -0.098951 0.998847 0.514720 0
M  V30 14 N 0.477068 1.618931 -0.553063 0
M  V30 15 C 0.322805 1.138169 -1.798615 0
M  V30 16 C -0.425655 0.011962 -1.971287 0
M  V30 17 C -1.029790 -0.653109 -0.922785 0
M  V30 18 N -0.835915 -0.118244 0.305132 0
M  V30 19 N -1.851673 -1.830763 -0.821398 0
M  V30 20 C -2.611278 -2.010642 0.383871 0
M  V30 21 C -1.957587 -2.825149 -1.838801 0
M  V30 22 C -2.565364 -3.966617 -1.314762 0
M  V30 23 C -2.740119 -5.033632 -2.194248 0
M  V30 24 C -2.357895 -5.030304 -3.520167 0
M  V30 25 C -1.757733 -3.878838 -4.003726 0
M  V30 26 C -1.557513 -2.778867 -3.166806 0
M  V30 27 C -0.908510 -1.679701 -3.891945 0
M  V30 28 O -0.655950 -1.837497 -5.108247 0
M  V30 29 N -0.523000 -0.409213 -3.337448 0
M  V30 30 C -0.168501 0.640019 -4.283032 0
M  V30 31 H -0.255251 3.478417 3.712604 0
M  V30 32 H -1.302110 2.122804 4.171811 0
M  V30 33 H -0.269362 2.930327 5.425955 0
M  V30 34 H 1.662326 1.679110 6.050252 0
M  V30 35 H 6.067267 0.683607 5.309566 0
M  V30 36 H 5.712723 0.922750 6.921491 0
M  V30 37 H 3.660056 -0.860586 3.220013 0
M  V30 38 H 1.966607 -0.213977 1.476669 0
M  V30 39 H -0.814795 2.064182 1.970053 0
M  V30 40 H 0.768606 1.616255 -2.634648 0
M  V30 41 H -2.117610 -2.709513 1.087423 0
M  V30 42 H -3.685089 -2.210834 0.217675 0
M  V30 43 H -2.604248 -1.025618 0.937151 0
M  V30 44 H -2.878921 -4.014501 -0.289682 0
M  V30 45 H -3.217888 -5.907464 -1.749845 0
M  V30 46 H -2.533027 -5.904457 -4.128959 0
M  V30 47 H -1.441164 -3.835601 -5.045775 0
M  V30 48 H -0.669747 1.593909 -4.080585 0
M  V30 49 H -0.578319 0.309645 -5.283469 0
M  V30 50 H 0.924652 0.710534 -4.464960 0
M  V30 END ATOM
M  V30 BEGIN BOND
M  V30 1 1 1 2
M  V30 2 2 2 3
M  V30 3 1 3 4
M  V30 4 1 4 5
M  V30 5 1 5 6
M  V30 6 2 5 7
M  V30 7 2 5 8
M  V30 8 2 4 9
M  V30 9 1 9 10
M  V30 10 2 10 11
M  V30 11 1 11 12
M  V30 12 1 12 13
M  V30 13 2 13 14
M  V30 14 1 14 15
M  V30 15 2 15 16
M  V30 16 1 16 17
M  V30 17 2 17 18
M  V30 18 1 17 19
M  V30 19 1 19 20
M  V30 20 1 19 21
M  V30 21 2 21 22
M  V30 22 1 22 23
M  V30 23 2 23 24
M  V30 24 1 24 25
M  V30 25 2 25 26
M  V30 26 1 26 27
M  V30 27 2 27 28
M  V30 28 1 27 29
M  V30 29 1 29 30
M  V30 30 1 11 2
M  V30 31 1 18 13
M  V30 32 1 26 21
M  V30 33 1 29 16
M  V30 34 1 1 31
M  V30 35 1 1 32
M  V30 36 1 1 33
M  V30 37 1 3 34
M  V30 38 1 6 35
M  V30 39 1 6 36
M  V30 40 1 9 37
M  V30 41 1 10 38
M  V30 42 1 12 39
M  V30 43 1 15 40
M  V30 44 1 20 41
M  V30 45 1 20 42
M  V30 46 1 20 43
M  V30 47 1 22 44
M  V30 48 1 23 45
M  V30 49 1 24 46
M  V30 50 1 25 47
M  V30 51 1 30 48
M  V30 52 1 30 49
M  V30 53 1 30 50
M  V30 END BOND
M  V30 END CTAB
M  END
>  <Dataset>  (736) 
ChEMBL_Kinases

>  <Ligand_Instance>  (736) 
nan

>  <PDB_ID>  (736) 
nan

>  <Standardized_SMILES>  (736) 
Cc1cc(S(N)(=O)=O)ccc1Nc1ncc2c(n1)N(C)c1ccccc1C(=O)N2C

>  <Name>  (736) 
nan

>  <Pocket>  (736) 
nan

>  <ATP_Site>  (736) 
nan

>  <Peripheral>  (736) 
nan

>  <Num_H_Atoms_ProtBoundConf>  (736) 
nan

>  <Num_Resolved_Atoms>  (736) 
nan

>  <Num_Not_Resolved_Atoms>  (736) 
nan

$$$$
CHEMBL3932994
     RDKit          3D

  0  0  0  0  0  0  0  0  0  0999 V3000
M  V30 BEGIN CTAB
M  V30 COUNTS 38 41 0 0 0
M  V30 BEGIN ATOM
M  V30 1 F 1.993022 -5.475717 5.560105 0
M  V30 2 C 2.434583 -5.200041 4.302042 0
M  V30 3 C 3.444200 -5.986072 3.741245 0
M  V30 4 C 3.862449 -5.663593 2.448839 0
M  V30 5 C 3.263408 -4.601784 1.808215 0
M  V30 6 C 2.275016 -3.839286 2.368805 0
M  V30 7 C 1.655799 -2.721779 1.674607 0
M  V30 8 C 1.850456 -2.222219 0.508313 0
M  V30 9 C 1.354406 -1.157941 -0.323317 0
M  V30 10 N 1.857790 -0.951988 -1.575995 0
M  V30 11 N 1.253005 0.066660 -2.133366 0
M  V30 12 C 0.323511 0.616016 -1.334773 0
M  V30 13 C -0.556543 1.671336 -1.450945 0
M  V30 14 C -1.382493 1.936256 -0.378153 0
M  V30 15 C -2.327963 3.043923 -0.458320 0
M  V30 16 C -1.981031 4.155926 -1.204024 0
M  V30 17 C -2.851019 5.220238 -1.300529 0
M  V30 18 N -4.062529 5.210901 -0.673588 0
M  V30 19 C -4.415037 4.125617 0.061395 0
M  V30 20 C -3.566827 3.043026 0.178309 0
M  V30 21 C -1.317715 1.161031 0.766805 0
M  V30 22 C -0.421909 0.116386 0.836550 0
M  V30 23 C 0.410617 -0.171692 -0.210548 0
M  V30 24 C 1.847089 -4.138866 3.641020 0
M  V30 25 H 3.820894 -6.785200 4.359392 0
M  V30 26 H 4.642476 -6.298236 2.059307 0
M  V30 27 H 3.651227 -4.435506 0.828546 0
M  V30 28 H 0.882718 -2.176534 2.189507 0
M  V30 29 H 2.652605 -2.859095 0.089733 0
M  V30 30 H 1.516307 0.366049 -3.101348 0
M  V30 31 H -0.559075 2.238696 -2.369723 0
M  V30 32 H -1.036426 4.192212 -1.707769 0
M  V30 33 H -2.554766 6.088177 -1.895949 0
M  V30 34 H -5.370495 4.084871 0.572223 0
M  V30 35 H -3.812544 2.170820 0.749585 0
M  V30 36 H -1.966044 1.385319 1.582391 0
M  V30 37 H -0.404260 -0.457864 1.739616 0
M  V30 38 H 1.069818 -3.571179 4.133978 0
M  V30 END ATOM
M  V30 BEGIN BOND
M  V30 1 1 1 2
M  V30 2 2 2 3
M  V30 3 1 3 4
M  V30 4 2 4 5
M  V30 5 1 5 6
M  V30 6 1 6 7
M  V30 7 2 7 8
M  V30 8 1 8 9
M  V30 9 2 9 10
M  V30 10 1 10 11
M  V30 11 1 11 12
M  V30 12 2 12 13
M  V30 13 1 13 14
M  V30 14 1 14 15
M  V30 15 2 15 16
M  V30 16 1 16 17
M  V30 17 2 17 18
M  V30 18 1 18 19
M  V30 19 2 19 20
M  V30 20 2 14 21
M  V30 21 1 21 22
M  V30 22 2 22 23
M  V30 23 2 6 24
M  V30 24 1 24 2
M  V30 25 1 23 9
M  V30 26 1 23 12
M  V30 27 1 20 15
M  V30 28 1 3 25
M  V30 29 1 4 26
M  V30 30 1 5 27
M  V30 31 1 7 28
M  V30 32 1 8 29
M  V30 33 1 11 30
M  V30 34 1 13 31
M  V30 35 1 16 32
M  V30 36 1 17 33
M  V30 37 1 19 34
M  V30 38 1 20 35
M  V30 39 1 21 36
M  V30 40 1 22 37
M  V30 41 1 24 38
M  V30 END BOND
M  V30 END CTAB
M  END
>  <Dataset>  (737) 
ChEMBL_Kinases

>  <Ligand_Instance>  (737) 
nan

>  <PDB_ID>  (737) 
nan

>  <Standardized_SMILES>  (737) 
Fc1cccc(/C=C/c2n[nH]c3cc(-c4ccncc4)ccc23)c1

>  <Name>  (737) 
nan

>  <Pocket>  (737) 
nan

>  <ATP_Site>  (737) 
nan

>  <Peripheral>  (737) 
nan

>  <Num_H_Atoms_ProtBoundConf>  (737) 
nan

>  <Num_Resolved_Atoms>  (737) 
nan

>  <Num_Not_Resolved_Atoms>  (737) 
nan

$$$$
CHEMBL3641908
     RDKit          3D

  0  0  0  0  0  0  0  0  0  0999 V3000
M  V30 BEGIN CTAB
M  V30 COUNTS 65 70 0 0 0
M  V30 BEGIN ATOM
M  V30 1 C 4.400105 1.055074 1.825699 0
M  V30 2 N 3.326663 1.392720 2.735925 0
M  V30 3 C 3.287967 0.348663 3.771159 0
M  V30 4 C 3.567490 2.641890 3.425176 0
M  V30 5 C 2.382426 2.906279 4.324260 0
M  V30 6 C 1.057648 2.867899 3.558976 0
M  V30 7 N 1.306761 3.319741 2.217568 0
M  V30 8 C 0.644875 2.779580 1.106773 0
M  V30 9 C -0.348655 1.832901 1.213213 0
M  V30 10 C -1.005450 1.287177 0.128335 0
M  V30 11 C -0.675347 1.688041 -1.149327 0
M  V30 12 N -1.313845 1.162103 -2.306423 0
M  V30 13 C -2.315515 0.193844 -2.018398 0
M  V30 14 N -3.626160 0.477642 -1.828561 0
M  V30 15 C -4.518259 -0.515816 -1.553407 0
M  V30 16 C -4.081307 -1.819701 -1.467893 0
M  V30 17 C -4.658885 -3.046704 -1.217007 0
M  V30 18 C -5.965112 -3.374392 -0.952211 0
M  V30 19 C -6.259240 -4.723745 -0.734664 0
M  V30 20 N -5.280900 -5.671607 -0.785344 0
M  V30 21 C -3.996040 -5.324399 -1.048902 0
M  V30 22 C -3.641089 -3.997469 -1.274084 0
M  V30 23 N -2.456826 -3.425837 -1.547891 0
M  V30 24 C -1.176370 -4.038699 -1.689276 0 CFG=2
M  V30 25 C -1.023961 -4.970615 -2.842753 0
M  V30 26 C 0.147491 -5.834943 -2.356656 0
M  V30 27 N -0.201493 -6.075613 -0.970149 0
M  V30 28 C -0.762701 -4.836488 -0.473295 0
M  V30 29 C -2.746373 -2.097069 -1.662752 0
M  V30 30 N -1.918029 -1.088373 -1.928895 0
M  V30 31 N 0.308434 2.627247 -1.276278 0
M  V30 32 C 0.924338 3.134364 -0.194250 0
M  V30 33 C 2.291347 4.368251 2.144083 0
M  V30 34 C 3.683190 3.809349 2.473811 0
M  V30 35 H 5.404215 1.158643 2.234051 0
M  V30 36 H 4.294672 1.611419 0.850148 0
M  V30 37 H 4.256672 -0.017696 1.547823 0
M  V30 38 H 3.957889 0.670563 4.590556 0
M  V30 39 H 3.754520 -0.594697 3.369949 0
M  V30 40 H 2.265899 0.172392 4.133339 0
M  V30 41 H 4.440462 2.535124 4.088712 0
M  V30 42 H 2.364974 2.089091 5.072539 0
M  V30 43 H 2.495722 3.850580 4.897484 0
M  V30 44 H 0.639026 1.865908 3.651478 0
M  V30 45 H 0.395940 3.592804 4.108468 0
M  V30 46 H -0.676287 1.458633 2.172082 0
M  V30 47 H -1.792436 0.534348 0.265520 0
M  V30 48 H -1.027129 1.496521 -3.236160 0
M  V30 49 H -5.563461 -0.292327 -1.401765 0
M  V30 50 H -6.737853 -2.630243 -0.911751 0
M  V30 51 H -7.266498 -5.054205 -0.520660 0
M  V30 52 H -3.242127 -6.120615 -1.079742 0
M  V30 53 H -0.400741 -3.231632 -1.825588 0
M  V30 54 H -0.744767 -4.463643 -3.789481 0
M  V30 55 H -1.877114 -5.627222 -3.039971 0
M  V30 56 H 0.224345 -6.759052 -2.936028 0
M  V30 57 H 1.099902 -5.272282 -2.399877 0
M  V30 58 H 0.665613 -6.370766 -0.488107 0
M  V30 59 H -1.580370 -4.995903 0.246926 0
M  V30 60 H 0.051136 -4.336028 0.091679 0
M  V30 61 H 1.676900 3.861364 -0.431165 0
M  V30 62 H 2.377125 4.865932 1.176112 0
M  V30 63 H 2.031207 5.122997 2.938805 0
M  V30 64 H 4.259900 3.599628 1.573790 0
M  V30 65 H 4.214424 4.621266 3.009061 0
M  V30 END ATOM
M  V30 BEGIN BOND
M  V30 1 1 1 2
M  V30 2 1 2 3
M  V30 3 1 2 4
M  V30 4 1 4 5
M  V30 5 1 5 6
M  V30 6 1 6 7
M  V30 7 1 7 8
M  V30 8 2 8 9
M  V30 9 1 9 10
M  V30 10 2 10 11
M  V30 11 1 11 12
M  V30 12 1 12 13
M  V30 13 2 13 14
M  V30 14 1 14 15
M  V30 15 2 15 16
M  V30 16 1 16 17
M  V30 17 2 17 18
M  V30 18 1 18 19
M  V30 19 2 19 20
M  V30 20 1 20 21
M  V30 21 2 21 22
M  V30 22 1 22 23
M  V30 23 1 23 24
M  V30 24 1 24 25
M  V30 25 1 25 26
M  V30 26 1 26 27
M  V30 27 1 27 28
M  V30 28 1 23 29
M  V30 29 2 29 30
M  V30 30 1 11 31
M  V30 31 2 31 32
M  V30 32 1 7 33
M  V30 33 1 33 34
M  V30 34 1 34 4
M  V30 35 1 32 8
M  V30 36 1 30 13
M  V30 37 1 29 16
M  V30 38 1 22 17
M  V30 39 1 28 24
M  V30 40 1 1 35
M  V30 41 1 1 36
M  V30 42 1 1 37
M  V30 43 1 3 38
M  V30 44 1 3 39
M  V30 45 1 3 40
M  V30 46 1 4 41
M  V30 47 1 5 42
M  V30 48 1 5 43
M  V30 49 1 6 44
M  V30 50 1 6 45
M  V30 51 1 9 46
M  V30 52 1 10 47
M  V30 53 1 12 48
M  V30 54 1 15 49
M  V30 55 1 18 50
M  V30 56 1 19 51
M  V30 57 1 21 52
M  V30 58 1 24 53 CFG=3
M  V30 59 1 25 54
M  V30 60 1 25 55
M  V30 61 1 26 56
M  V30 62 1 26 57
M  V30 63 1 27 58
M  V30 64 1 28 59
M  V30 65 1 28 60
M  V30 66 1 32 61
M  V30 67 1 33 62
M  V30 68 1 33 63
M  V30 69 1 34 64
M  V30 70 1 34 65
M  V30 END BOND
M  V30 END CTAB
M  END
>  <Dataset>  (738) 
ChEMBL_Kinases

>  <Ligand_Instance>  (738) 
nan

>  <PDB_ID>  (738) 
nan

>  <Standardized_SMILES>  (738) 
CN(C)C1CCN(c2ccc(Nc3ncc4c5ccncc5n([C@@H]5CCNC5)c4n3)nc2)CC1

>  <Name>  (738) 
nan

>  <Pocket>  (738) 
nan

>  <ATP_Site>  (738) 
nan

>  <Peripheral>  (738) 
nan

>  <Num_H_Atoms_ProtBoundConf>  (738) 
nan

>  <Num_Resolved_Atoms>  (738) 
nan

>  <Num_Not_Resolved_Atoms>  (738) 
nan

$$$$
CHEMBL3641909
     RDKit          3D

  0  0  0  0  0  0  0  0  0  0999 V3000
M  V30 BEGIN CTAB
M  V30 COUNTS 63 67 0 0 0
M  V30 BEGIN ATOM
M  V30 1 C 5.788774 4.727223 1.862926 0
M  V30 2 N 5.210847 3.930095 0.831757 0
M  V30 3 C 5.332866 2.522867 1.014985 0
M  V30 4 C 3.909012 4.353179 0.381313 0
M  V30 5 C 3.479401 3.398516 -0.689934 0
M  V30 6 C 2.003811 3.504225 -1.005402 0
M  V30 7 N 1.240732 3.411872 0.223683 0
M  V30 8 C 0.359416 2.374693 0.624942 0
M  V30 9 C -0.341319 2.313961 1.810294 0
M  V30 10 C -1.168550 1.244361 2.077940 0
M  V30 11 C -1.355841 0.200002 1.228834 0
M  V30 12 N -2.218660 -0.883871 1.544630 0
M  V30 13 C -2.338622 -1.923929 0.580266 0
M  V30 14 N -1.634512 -1.817212 -0.560796 0
M  V30 15 C -1.694918 -2.771838 -1.534501 0
M  V30 16 C -2.507741 -3.850109 -1.299742 0
M  V30 17 C -2.818422 -4.982166 -2.026001 0
M  V30 18 C -2.370233 -5.372033 -3.271343 0
M  V30 19 C -2.825729 -6.572951 -3.816134 0
M  V30 20 N -3.690917 -7.289548 -3.077465 0
M  V30 21 C -4.122737 -6.907451 -1.870292 0
M  V30 22 C -3.706862 -5.724632 -1.275010 0
M  V30 23 N -3.965173 -5.095826 -0.099343 0
M  V30 24 C -4.858998 -5.649766 0.874734 0
M  V30 25 C -4.147423 -6.549496 1.863637 0
M  V30 26 C -3.076619 -5.822601 2.633800 0
M  V30 27 O -3.685766 -4.765575 3.341194 0
M  V30 28 C -3.234208 -3.970489 -0.134114 0
M  V30 29 N -3.136267 -2.998777 0.791696 0
M  V30 30 N -0.666597 0.275971 0.081325 0
M  V30 31 C 0.147250 1.301599 -0.212214 0
M  V30 32 C 1.518058 4.585285 1.027412 0
M  V30 33 C 2.940811 4.499321 1.498887 0
M  V30 34 H 5.348745 5.718358 1.980471 0
M  V30 35 H 5.789111 4.136070 2.816033 0
M  V30 36 H 6.877363 4.854522 1.630817 0
M  V30 37 H 5.671154 1.971509 0.099867 0
M  V30 38 H 4.425190 2.004704 1.378333 0
M  V30 39 H 6.108206 2.328760 1.785743 0
M  V30 40 H 4.043319 5.357448 -0.102872 0
M  V30 41 H 3.757338 2.354802 -0.516869 0
M  V30 42 H 4.002803 3.698905 -1.630243 0
M  V30 43 H 1.785097 4.493973 -1.502582 0
M  V30 44 H 1.783655 2.692081 -1.713816 0
M  V30 45 H -0.226795 3.109005 2.508303 0
M  V30 46 H -1.682749 1.273910 3.031917 0
M  V30 47 H -2.717071 -0.872695 2.449606 0
M  V30 48 H -1.125756 -2.667064 -2.435923 0
M  V30 49 H -1.672062 -4.778106 -3.849675 0
M  V30 50 H -2.513101 -6.934639 -4.786516 0
M  V30 51 H -4.822667 -7.531265 -1.322569 0
M  V30 52 H -5.398153 -4.866234 1.449367 0
M  V30 53 H -5.645422 -6.263926 0.390401 0
M  V30 54 H -4.850771 -7.001868 2.577462 0
M  V30 55 H -3.652817 -7.395853 1.334427 0
M  V30 56 H -2.635392 -6.552097 3.338543 0
M  V30 57 H -2.266376 -5.454455 1.983298 0
M  V30 58 H -3.399731 -4.832532 4.290637 0
M  V30 59 H 0.598515 1.161193 -1.178555 0
M  V30 60 H 1.391201 5.508198 0.388407 0
M  V30 61 H 0.844239 4.697235 1.902891 0
M  V30 62 H 2.975291 3.709343 2.264515 0
M  V30 63 H 3.187313 5.453252 2.036908 0
M  V30 END ATOM
M  V30 BEGIN BOND
M  V30 1 1 1 2
M  V30 2 1 2 3
M  V30 3 1 2 4
M  V30 4 1 4 5
M  V30 5 1 5 6
M  V30 6 1 6 7
M  V30 7 1 7 8
M  V30 8 2 8 9
M  V30 9 1 9 10
M  V30 10 2 10 11
M  V30 11 1 11 12
M  V30 12 1 12 13
M  V30 13 2 13 14
M  V30 14 1 14 15
M  V30 15 2 15 16
M  V30 16 1 16 17
M  V30 17 2 17 18
M  V30 18 1 18 19
M  V30 19 2 19 20
M  V30 20 1 20 21
M  V30 21 2 21 22
M  V30 22 1 22 23
M  V30 23 1 23 24
M  V30 24 1 24 25
M  V30 25 1 25 26
M  V30 26 1 26 27
M  V30 27 1 23 28
M  V30 28 2 28 29
M  V30 29 1 11 30
M  V30 30 2 30 31
M  V30 31 1 7 32
M  V30 32 1 32 33
M  V30 33 1 33 4
M  V30 34 1 31 8
M  V30 35 1 29 13
M  V30 36 1 28 16
M  V30 37 1 22 17
M  V30 38 1 1 34
M  V30 39 1 1 35
M  V30 40 1 1 36
M  V30 41 1 3 37
M  V30 42 1 3 38
M  V30 43 1 3 39
M  V30 44 1 4 40
M  V30 45 1 5 41
M  V30 46 1 5 42
M  V30 47 1 6 43
M  V30 48 1 6 44
M  V30 49 1 9 45
M  V30 50 1 10 46
M  V30 51 1 12 47
M  V30 52 1 15 48
M  V30 53 1 18 49
M  V30 54 1 19 50
M  V30 55 1 21 51
M  V30 56 1 24 52
M  V30 57 1 24 53
M  V30 58 1 25 54
M  V30 59 1 25 55
M  V30 60 1 26 56
M  V30 61 1 26 57
M  V30 62 1 27 58
M  V30 63 1 31 59
M  V30 64 1 32 60
M  V30 65 1 32 61
M  V30 66 1 33 62
M  V30 67 1 33 63
M  V30 END BOND
M  V30 END CTAB
M  END
>  <Dataset>  (739) 
ChEMBL_Kinases

>  <Ligand_Instance>  (739) 
nan

>  <PDB_ID>  (739) 
nan

>  <Standardized_SMILES>  (739) 
CN(C)C1CCN(c2ccc(Nc3ncc4c5ccncc5n(CCCO)c4n3)nc2)CC1

>  <Name>  (739) 
nan

>  <Pocket>  (739) 
nan

>  <ATP_Site>  (739) 
nan

>  <Peripheral>  (739) 
nan

>  <Num_H_Atoms_ProtBoundConf>  (739) 
nan

>  <Num_Resolved_Atoms>  (739) 
nan

>  <Num_Not_Resolved_Atoms>  (739) 
nan

$$$$
CHEMBL3922175
     RDKit          3D

  0  0  0  0  0  0  0  0  0  0999 V3000
M  V30 BEGIN CTAB
M  V30 COUNTS 59 62 0 0 0
M  V30 BEGIN ATOM
M  V30 1 C 2.495658 -1.546193 6.664793 0
M  V30 2 C 3.968207 -1.858901 6.618434 0
M  V30 3 O 4.478407 -1.850377 5.298490 0
M  V30 4 C 4.414845 -0.725564 4.525855 0
M  V30 5 O 3.855298 0.124714 5.258731 0
M  V30 6 C 4.928701 -0.671847 3.156980 0
M  V30 7 C 3.912792 -0.708302 2.072572 0
M  V30 8 C 2.958261 0.425681 2.126329 0
M  V30 9 O 3.119342 1.286432 3.025744 0
M  V30 10 N 1.890444 0.561888 1.208874 0
M  V30 11 C 0.912477 1.582712 1.140971 0
M  V30 12 C 0.797512 2.688666 1.949804 0
M  V30 13 C -0.181647 3.636862 1.823002 0
M  V30 14 C -1.135050 3.523307 0.841531 0
M  V30 15 C -1.039675 2.418222 0.015386 0
M  V30 16 C -2.025604 2.254406 -1.047118 0
M  V30 17 N -2.469632 3.173278 -1.924152 0
M  V30 18 N -3.363728 2.671449 -2.744627 0
M  V30 19 C -3.544878 1.376932 -2.431511 0
M  V30 20 C -4.332193 0.354790 -2.917743 0
M  V30 21 C -4.335075 -0.938406 -2.397450 0
M  V30 22 C -3.493477 -1.228682 -1.317611 0
M  V30 23 N -3.451861 -2.523066 -0.744325 0
M  V30 24 S -3.375844 -4.032431 -1.589106 0
M  V30 25 O -3.307170 -5.106122 -0.545372 0
M  V30 26 O -4.548307 -4.251173 -2.467275 0
M  V30 27 C -1.896399 -4.079215 -2.528204 0
M  V30 28 C -0.762715 -4.611160 -1.956312 0
M  V30 29 C 0.381640 -4.634941 -2.712532 0
M  V30 30 C 0.343050 -4.125310 -4.009598 0
M  V30 31 C -0.819648 -3.590793 -4.567412 0
M  V30 32 C -1.973391 -3.568317 -3.801287 0
M  V30 33 C -2.725900 -0.198497 -0.857454 0
M  V30 34 C -2.702008 1.087559 -1.351116 0
M  V30 35 C -0.049873 1.499272 0.175644 0
M  V30 36 H 2.050131 -1.346458 5.682775 0
M  V30 37 H 1.938710 -2.429493 7.093140 0
M  V30 38 H 2.236207 -0.694623 7.323259 0
M  V30 39 H 4.484370 -1.097551 7.255493 0
M  V30 40 H 4.153584 -2.836604 7.123636 0
M  V30 41 H 5.608346 -1.538456 3.002922 0
M  V30 42 H 5.569298 0.229028 3.002919 0
M  V30 43 H 4.470518 -0.597074 1.105844 0
M  V30 44 H 3.408878 -1.704401 1.973442 0
M  V30 45 H 1.865814 -0.210820 0.520309 0
M  V30 46 H 1.502026 2.838316 2.729727 0
M  V30 47 H -0.228597 4.481479 2.479450 0
M  V30 48 H -1.919120 4.246496 0.710450 0
M  V30 49 H -3.876945 3.172706 -3.531504 0
M  V30 50 H -5.005504 0.530611 -3.759200 0
M  V30 51 H -4.964111 -1.694204 -2.812066 0
M  V30 52 H -3.475562 -2.452488 0.316353 0
M  V30 53 H -0.729718 -5.007037 -0.950217 0
M  V30 54 H 1.292316 -5.048276 -2.292733 0
M  V30 55 H 1.231579 -4.131301 -4.634450 0
M  V30 56 H -0.844913 -3.196016 -5.576100 0
M  V30 57 H -2.900055 -3.154609 -4.214440 0
M  V30 58 H -2.083766 -0.449380 -0.017375 0
M  V30 59 H -0.037180 0.658342 -0.515020 0
M  V30 END ATOM
M  V30 BEGIN BOND
M  V30 1 1 1 2
M  V30 2 1 2 3
M  V30 3 1 3 4
M  V30 4 2 4 5
M  V30 5 1 4 6
M  V30 6 1 6 7
M  V30 7 1 7 8
M  V30 8 2 8 9
M  V30 9 1 8 10
M  V30 10 1 10 11
M  V30 11 2 11 12
M  V30 12 1 12 13
M  V30 13 2 13 14
M  V30 14 1 14 15
M  V30 15 1 15 16
M  V30 16 2 16 17
M  V30 17 1 17 18
M  V30 18 1 18 19
M  V30 19 2 19 20
M  V30 20 1 20 21
M  V30 21 2 21 22
M  V30 22 1 22 23
M  V30 23 1 23 24
M  V30 24 2 24 25
M  V30 25 2 24 26
M  V30 26 1 24 27
M  V30 27 2 27 28
M  V30 28 1 28 29
M  V30 29 2 29 30
M  V30 30 1 30 31
M  V30 31 2 31 32
M  V30 32 1 22 33
M  V30 33 2 33 34
M  V30 34 2 15 35
M  V30 35 1 35 11
M  V30 36 1 34 16
M  V30 37 1 34 19
M  V30 38 1 32 27
M  V30 39 1 1 36
M  V30 40 1 1 37
M  V30 41 1 1 38
M  V30 42 1 2 39
M  V30 43 1 2 40
M  V30 44 1 6 41
M  V30 45 1 6 42
M  V30 46 1 7 43
M  V30 47 1 7 44
M  V30 48 1 10 45
M  V30 49 1 12 46
M  V30 50 1 13 47
M  V30 51 1 14 48
M  V30 52 1 18 49
M  V30 53 1 20 50
M  V30 54 1 21 51
M  V30 55 1 23 52
M  V30 56 1 28 53
M  V30 57 1 29 54
M  V30 58 1 30 55
M  V30 59 1 31 56
M  V30 60 1 32 57
M  V30 61 1 33 58
M  V30 62 1 35 59
M  V30 END BOND
M  V30 END CTAB
M  END
>  <Dataset>  (740) 
ChEMBL_Kinases

>  <Ligand_Instance>  (740) 
nan

>  <PDB_ID>  (740) 
nan

>  <Standardized_SMILES>  (740) 
CCOC(=O)CCC(=O)Nc1cccc(-c2n[nH]c3ccc(NS(=O)(=O)c4ccccc4)cc23)c1

>  <Name>  (740) 
nan

>  <Pocket>  (740) 
nan

>  <ATP_Site>  (740) 
nan

>  <Peripheral>  (740) 
nan

>  <Num_H_Atoms_ProtBoundConf>  (740) 
nan

>  <Num_Resolved_Atoms>  (740) 
nan

>  <Num_Not_Resolved_Atoms>  (740) 
nan

$$$$
CHEMBL3641911
     RDKit          3D

  0  0  0  0  0  0  0  0  0  0999 V3000
M  V30 BEGIN CTAB
M  V30 COUNTS 53 57 0 0 0
M  V30 BEGIN ATOM
M  V30 1 O 3.383468 -4.196574 0.689118 0
M  V30 2 C 3.966162 -2.958936 0.981354 0
M  V30 3 C 3.131569 -2.318828 2.070898 0
M  V30 4 C 3.659905 -0.966986 2.479317 0
M  V30 5 N 3.704616 -0.001161 1.428376 0
M  V30 6 C 4.730466 0.236249 0.579077 0
M  V30 7 C 5.991085 -0.301094 0.415344 0
M  V30 8 N 6.825071 0.154728 -0.554182 0
M  V30 9 C 6.430770 1.156084 -1.387475 0
M  V30 10 C 5.155302 1.703537 -1.225803 0
M  V30 11 C 4.292488 1.254160 -0.246336 0
M  V30 12 C 3.009484 1.647365 0.083358 0
M  V30 13 C 2.160113 2.606583 -0.440287 0
M  V30 14 N 0.932230 2.742696 0.130096 0
M  V30 15 C 0.590299 1.940244 1.180909 0
M  V30 16 N -0.668014 1.997503 1.852506 0
M  V30 17 C -1.779267 1.192113 1.414790 0
M  V30 18 C -3.011936 1.206776 2.022702 0
M  V30 19 C -4.063594 0.428656 1.589263 0
M  V30 20 C -3.838626 -0.385651 0.500975 0
M  V30 21 N -4.865381 -1.223584 -0.016151 0
M  V30 22 C -6.195570 -1.363096 0.465501 0
M  V30 23 C -6.793561 -2.724810 0.426622 0
M  V30 24 N -6.148420 -3.710290 -0.363572 0
M  V30 25 C -4.771292 -3.484478 -0.662898 0
M  V30 26 C -4.615206 -2.068966 -1.168894 0
M  V30 27 N -2.630425 -0.394561 -0.088288 0
M  V30 28 N -1.640254 0.367717 0.355508 0
M  V30 29 N 1.433415 1.012716 1.674567 0
M  V30 30 C 2.675121 0.825205 1.150691 0
M  V30 31 H 2.402945 -4.170706 0.702353 0
M  V30 32 H 4.986266 -3.080643 1.367299 0
M  V30 33 H 3.994429 -2.373462 0.053274 0
M  V30 34 H 2.060200 -2.350760 1.864433 0
M  V30 35 H 3.275550 -2.970446 2.975040 0
M  V30 36 H 4.653996 -1.131669 2.943933 0
M  V30 37 H 3.007644 -0.613019 3.304778 0
M  V30 38 H 6.307337 -1.098569 1.077786 0
M  V30 39 H 7.137610 1.483298 -2.146499 0
M  V30 40 H 4.898137 2.494815 -1.916013 0
M  V30 41 H 2.446041 3.232184 -1.270846 0
M  V30 42 H -0.850128 2.610849 2.678432 0
M  V30 43 H -3.152675 1.851058 2.865953 0
M  V30 44 H -4.994355 0.478129 2.094188 0
M  V30 45 H -6.820066 -0.623132 -0.113657 0
M  V30 46 H -6.263515 -1.000839 1.512250 0
M  V30 47 H -7.840179 -2.626066 0.063199 0
M  V30 48 H -6.895712 -3.161978 1.464398 0
M  V30 49 H -6.205362 -4.678590 0.075054 0
M  V30 50 H -4.504019 -4.161154 -1.513255 0
M  V30 51 H -4.072514 -3.717165 0.160086 0
M  V30 52 H -3.609918 -1.888573 -1.600187 0
M  V30 53 H -5.425661 -1.890859 -1.911485 0
M  V30 END ATOM
M  V30 BEGIN BOND
M  V30 1 1 1 2
M  V30 2 1 2 3
M  V30 3 1 3 4
M  V30 4 1 4 5
M  V30 5 1 5 6
M  V30 6 2 6 7
M  V30 7 1 7 8
M  V30 8 2 8 9
M  V30 9 1 9 10
M  V30 10 2 10 11
M  V30 11 1 11 12
M  V30 12 2 12 13
M  V30 13 1 13 14
M  V30 14 2 14 15
M  V30 15 1 15 16
M  V30 16 1 16 17
M  V30 17 2 17 18
M  V30 18 1 18 19
M  V30 19 2 19 20
M  V30 20 1 20 21
M  V30 21 1 21 22
M  V30 22 1 22 23
M  V30 23 1 23 24
M  V30 24 1 24 25
M  V30 25 1 25 26
M  V30 26 1 20 27
M  V30 27 2 27 28
M  V30 28 1 15 29
M  V30 29 2 29 30
M  V30 30 1 30 5
M  V30 31 1 11 6
M  V30 32 1 30 12
M  V30 33 1 28 17
M  V30 34 1 26 21
M  V30 35 1 1 31
M  V30 36 1 2 32
M  V30 37 1 2 33
M  V30 38 1 3 34
M  V30 39 1 3 35
M  V30 40 1 4 36
M  V30 41 1 4 37
M  V30 42 1 7 38
M  V30 43 1 9 39
M  V30 44 1 10 40
M  V30 45 1 13 41
M  V30 46 1 16 42
M  V30 47 1 18 43
M  V30 48 1 19 44
M  V30 49 1 22 45
M  V30 50 1 22 46
M  V30 51 1 23 47
M  V30 52 1 23 48
M  V30 53 1 24 49
M  V30 54 1 25 50
M  V30 55 1 25 51
M  V30 56 1 26 52
M  V30 57 1 26 53
M  V30 END BOND
M  V30 END CTAB
M  END
>  <Dataset>  (741) 
ChEMBL_Kinases

>  <Ligand_Instance>  (741) 
nan

>  <PDB_ID>  (741) 
nan

>  <Standardized_SMILES>  (741) 
OCCCn1c2cnccc2c2cnc(Nc3ccc(N4CCNCC4)nn3)nc21

>  <Name>  (741) 
nan

>  <Pocket>  (741) 
nan

>  <ATP_Site>  (741) 
nan

>  <Peripheral>  (741) 
nan

>  <Num_H_Atoms_ProtBoundConf>  (741) 
nan

>  <Num_Resolved_Atoms>  (741) 
nan

>  <Num_Not_Resolved_Atoms>  (741) 
nan

$$$$
CHEMBL3641912
     RDKit          3D

  0  0  0  0  0  0  0  0  0  0999 V3000
M  V30 BEGIN CTAB
M  V30 COUNTS 52 56 0 0 0
M  V30 BEGIN ATOM
M  V30 1 O 1.447296 -1.500102 3.651516 0
M  V30 2 C 1.587904 -1.052314 2.323418 0
M  V30 3 C 2.756396 -1.753226 1.677545 0
M  V30 4 C 2.877483 -1.256171 0.256773 0
M  V30 5 N 3.092941 0.153149 0.160551 0
M  V30 6 C 4.279202 0.786928 0.151438 0
M  V30 7 C 5.553088 0.239319 0.235497 0
M  V30 8 N 6.613003 1.060700 0.207908 0
M  V30 9 C 6.485294 2.395236 0.101762 0
M  V30 10 C 5.227859 3.000211 0.013868 0
M  V30 11 C 4.141290 2.161482 0.041894 0
M  V30 12 C 2.767052 2.360200 -0.018857 0
M  V30 13 C 2.041299 3.546024 -0.134640 0
M  V30 14 N 0.684169 3.458964 -0.174212 0
M  V30 15 C 0.077923 2.261837 -0.102969 0
M  V30 16 N -1.343237 2.172459 -0.144651 0
M  V30 17 C -2.038218 0.951098 -0.074386 0
M  V30 18 C -3.419507 0.863559 -0.114922 0
M  V30 19 C -4.096756 -0.357786 -0.043988 0
M  V30 20 C -3.264435 -1.429667 0.067112 0
M  V30 21 N -3.835579 -2.734264 0.148139 0
M  V30 22 C -5.229909 -3.151346 0.132035 0
M  V30 23 C -5.283163 -3.893357 1.453698 0
M  V30 24 C -3.953171 -4.609970 1.456551 0 CFG=1
M  V30 25 O -4.071967 -5.984667 1.350532 0
M  V30 26 C -3.174489 -4.024418 0.270824 0
M  V30 27 N -1.920518 -1.362335 0.107930 0
M  V30 28 N -1.293709 -0.184122 0.038586 0
M  V30 29 N 0.769616 1.097319 0.010060 0
M  V30 30 C 2.133900 1.118551 0.054987 0
M  V30 31 H 0.495212 -1.482337 3.923556 0
M  V30 32 H 0.695957 -1.228112 1.709661 0
M  V30 33 H 1.853779 0.027816 2.345653 0
M  V30 34 H 2.555288 -2.830242 1.708327 0
M  V30 35 H 3.697847 -1.558086 2.235906 0
M  V30 36 H 3.791447 -1.774470 -0.157805 0
M  V30 37 H 2.026491 -1.575332 -0.368437 0
M  V30 38 H 5.752831 -0.831628 0.323908 0
M  V30 39 H 7.383505 3.017842 0.084002 0
M  V30 40 H 5.103573 4.065019 -0.071588 0
M  V30 41 H 2.592303 4.477521 -0.187377 0
M  V30 42 H -1.916077 3.056571 -0.232283 0
M  V30 43 H -3.950844 1.800516 -0.205316 0
M  V30 44 H -5.156663 -0.381947 -0.078423 0
M  V30 45 H -5.322664 -3.880107 -0.696191 0
M  V30 46 H -5.932965 -2.310932 0.059727 0
M  V30 47 H -6.140290 -4.588832 1.517316 0
M  V30 48 H -5.346473 -3.112270 2.235278 0
M  V30 49 H -3.375847 -4.346723 2.370045 0
M  V30 50 H -3.578228 -6.258881 0.531276 0
M  V30 51 H -2.096062 -3.927486 0.490516 0
M  V30 52 H -3.378835 -4.587732 -0.658062 0
M  V30 END ATOM
M  V30 BEGIN BOND
M  V30 1 1 1 2
M  V30 2 1 2 3
M  V30 3 1 3 4
M  V30 4 1 4 5
M  V30 5 1 5 6
M  V30 6 2 6 7
M  V30 7 1 7 8
M  V30 8 2 8 9
M  V30 9 1 9 10
M  V30 10 2 10 11
M  V30 11 1 11 12
M  V30 12 2 12 13
M  V30 13 1 13 14
M  V30 14 2 14 15
M  V30 15 1 15 16
M  V30 16 1 16 17
M  V30 17 2 17 18
M  V30 18 1 18 19
M  V30 19 2 19 20
M  V30 20 1 20 21
M  V30 21 1 21 22
M  V30 22 1 22 23
M  V30 23 1 23 24
M  V30 24 1 24 25
M  V30 25 1 24 26
M  V30 26 1 20 27
M  V30 27 2 27 28
M  V30 28 1 15 29
M  V30 29 2 29 30
M  V30 30 1 30 5
M  V30 31 1 11 6
M  V30 32 1 30 12
M  V30 33 1 28 17
M  V30 34 1 26 21
M  V30 35 1 1 31
M  V30 36 1 2 32
M  V30 37 1 2 33
M  V30 38 1 3 34
M  V30 39 1 3 35
M  V30 40 1 4 36
M  V30 41 1 4 37
M  V30 42 1 7 38
M  V30 43 1 9 39
M  V30 44 1 10 40
M  V30 45 1 13 41
M  V30 46 1 16 42
M  V30 47 1 18 43
M  V30 48 1 19 44
M  V30 49 1 22 45
M  V30 50 1 22 46
M  V30 51 1 23 47
M  V30 52 1 23 48
M  V30 53 1 24 49 CFG=1
M  V30 54 1 25 50
M  V30 55 1 26 51
M  V30 56 1 26 52
M  V30 END BOND
M  V30 END CTAB
M  END
>  <Dataset>  (742) 
ChEMBL_Kinases

>  <Ligand_Instance>  (742) 
nan

>  <PDB_ID>  (742) 
nan

>  <Standardized_SMILES>  (742) 
OCCCn1c2cnccc2c2cnc(Nc3ccc(N4CC[C@@H](O)C4)nn3)nc21

>  <Name>  (742) 
nan

>  <Pocket>  (742) 
nan

>  <ATP_Site>  (742) 
nan

>  <Peripheral>  (742) 
nan

>  <Num_H_Atoms_ProtBoundConf>  (742) 
nan

>  <Num_Resolved_Atoms>  (742) 
nan

>  <Num_Not_Resolved_Atoms>  (742) 
nan

$$$$
CHEMBL3641913
     RDKit          3D

  0  0  0  0  0  0  0  0  0  0999 V3000
M  V30 BEGIN CTAB
M  V30 COUNTS 67 72 0 0 0
M  V30 BEGIN ATOM
M  V30 1 C 4.638355 1.579089 6.516902 0
M  V30 2 N 5.402475 1.974513 5.333940 0
M  V30 3 C 6.473976 0.991319 5.203691 0
M  V30 4 C 4.543849 1.962969 4.157813 0
M  V30 5 C 3.426675 2.923426 4.376068 0
M  V30 6 C 2.815139 3.419845 3.082832 0
M  V30 7 N 3.153534 2.542112 1.980883 0
M  V30 8 C 2.253430 1.699782 1.280729 0
M  V30 9 C 0.920457 1.608050 1.602970 0
M  V30 10 C 0.134775 0.755464 0.853782 0
M  V30 11 C 0.557331 -0.025221 -0.200617 0
M  V30 12 N -0.244581 -0.900467 -0.975013 0
M  V30 13 C -1.633706 -1.168139 -0.854940 0
M  V30 14 N -2.448077 -0.606130 0.047677 0
M  V30 15 C -3.754011 -0.830761 0.190531 0
M  V30 16 C -4.304862 -1.734432 -0.686581 0
M  V30 17 C -5.589370 -2.212161 -0.845144 0
M  V30 18 C -6.805796 -1.990868 -0.214146 0
M  V30 19 C -7.966053 -2.634579 -0.603291 0
M  V30 20 N -7.841959 -3.490373 -1.633742 0
M  V30 21 C -6.696079 -3.740447 -2.276514 0
M  V30 22 C -5.533017 -3.104666 -1.897322 0
M  V30 23 N -4.255383 -3.179857 -2.377636 0
M  V30 24 C -3.830880 -4.011157 -3.467532 0 CFG=1
M  V30 25 C -3.031461 -3.230717 -4.495387 0
M  V30 26 C -1.978644 -4.222524 -5.003725 0
M  V30 27 C -1.589275 -4.876002 -3.693065 0
M  V30 28 C -2.939116 -5.156256 -3.073055 0 CFG=1
M  V30 29 O -2.753887 -5.241828 -1.700014 0
M  V30 30 C -3.492267 -2.329055 -1.626335 0
M  V30 31 N -2.184731 -2.046571 -1.702702 0
M  V30 32 N 1.870455 0.117000 -0.457110 0
M  V30 33 C 2.687934 0.927024 0.231641 0
M  V30 34 C 4.575182 2.688652 1.739080 0
M  V30 35 C 5.386746 2.391459 2.977628 0
M  V30 36 H 3.730522 1.023167 6.194182 0
M  V30 37 H 5.217979 0.889456 7.166200 0
M  V30 38 H 4.362686 2.470045 7.128883 0
M  V30 39 H 6.579386 0.361151 6.115491 0
M  V30 40 H 6.284298 0.272288 4.374580 0
M  V30 41 H 7.467195 1.492196 5.093778 0
M  V30 42 H 4.170961 0.935774 4.061841 0
M  V30 43 H 2.607576 2.396453 4.916617 0
M  V30 44 H 3.692775 3.797845 4.981626 0
M  V30 45 H 3.201806 4.445159 2.897829 0
M  V30 46 H 1.710771 3.555851 3.205259 0
M  V30 47 H 0.492083 2.177601 2.412863 0
M  V30 48 H -0.901885 0.718792 1.145624 0
M  V30 49 H 0.281673 -1.409756 -1.735557 0
M  V30 50 H -4.371507 -0.358350 0.928432 0
M  V30 51 H -6.836534 -1.283566 0.615406 0
M  V30 52 H -8.920061 -2.483960 -0.134927 0
M  V30 53 H -6.629362 -4.441484 -3.110177 0
M  V30 54 H -4.746847 -4.460484 -3.942942 0
M  V30 55 H -3.666756 -2.865696 -5.333767 0
M  V30 56 H -2.455602 -2.409060 -4.027417 0
M  V30 57 H -1.109210 -3.678275 -5.381152 0
M  V30 58 H -2.415123 -4.934944 -5.722891 0
M  V30 59 H -0.994934 -4.148773 -3.108625 0
M  V30 60 H -1.041487 -5.828009 -3.858306 0
M  V30 61 H -3.275263 -6.144714 -3.448624 0
M  V30 62 H -1.873045 -4.980294 -1.392278 0
M  V30 63 H 3.698179 0.897980 -0.128217 0
M  V30 64 H 4.961918 2.042674 0.926318 0
M  V30 65 H 4.748783 3.765339 1.464846 0
M  V30 66 H 5.984414 3.288331 3.218795 0
M  V30 67 H 6.088214 1.548557 2.788789 0
M  V30 END ATOM
M  V30 BEGIN BOND
M  V30 1 1 1 2
M  V30 2 1 2 3
M  V30 3 1 2 4
M  V30 4 1 4 5
M  V30 5 1 5 6
M  V30 6 1 6 7
M  V30 7 1 7 8
M  V30 8 2 8 9
M  V30 9 1 9 10
M  V30 10 2 10 11
M  V30 11 1 11 12
M  V30 12 1 12 13
M  V30 13 2 13 14
M  V30 14 1 14 15
M  V30 15 2 15 16
M  V30 16 1 16 17
M  V30 17 2 17 18
M  V30 18 1 18 19
M  V30 19 2 19 20
M  V30 20 1 20 21
M  V30 21 2 21 22
M  V30 22 1 22 23
M  V30 23 1 23 24
M  V30 24 1 24 25
M  V30 25 1 25 26
M  V30 26 1 26 27
M  V30 27 1 27 28
M  V30 28 1 28 29
M  V30 29 1 23 30
M  V30 30 2 30 31
M  V30 31 1 11 32
M  V30 32 2 32 33
M  V30 33 1 7 34
M  V30 34 1 34 35
M  V30 35 1 35 4
M  V30 36 1 33 8
M  V30 37 1 31 13
M  V30 38 1 30 16
M  V30 39 1 22 17
M  V30 40 1 28 24
M  V30 41 1 1 36
M  V30 42 1 1 37
M  V30 43 1 1 38
M  V30 44 1 3 39
M  V30 45 1 3 40
M  V30 46 1 3 41
M  V30 47 1 4 42
M  V30 48 1 5 43
M  V30 49 1 5 44
M  V30 50 1 6 45
M  V30 51 1 6 46
M  V30 52 1 9 47
M  V30 53 1 10 48
M  V30 54 1 12 49
M  V30 55 1 15 50
M  V30 56 1 18 51
M  V30 57 1 19 52
M  V30 58 1 21 53
M  V30 59 1 24 54 CFG=3
M  V30 60 1 25 55
M  V30 61 1 25 56
M  V30 62 1 26 57
M  V30 63 1 26 58
M  V30 64 1 27 59
M  V30 65 1 27 60
M  V30 66 1 28 61 CFG=3
M  V30 67 1 29 62
M  V30 68 1 33 63
M  V30 69 1 34 64
M  V30 70 1 34 65
M  V30 71 1 35 66
M  V30 72 1 35 67
M  V30 END BOND
M  V30 END CTAB
M  END
>  <Dataset>  (743) 
ChEMBL_Kinases

>  <Ligand_Instance>  (743) 
nan

>  <PDB_ID>  (743) 
nan

>  <Standardized_SMILES>  (743) 
CN(C)C1CCN(c2ccc(Nc3ncc4c5ccncc5n([C@H]5CCC[C@H]5O)c4n3)nc2)CC1

>  <Name>  (743) 
nan

>  <Pocket>  (743) 
nan

>  <ATP_Site>  (743) 
nan

>  <Peripheral>  (743) 
nan

>  <Num_H_Atoms_ProtBoundConf>  (743) 
nan

>  <Num_Resolved_Atoms>  (743) 
nan

>  <Num_Not_Resolved_Atoms>  (743) 
nan

$$$$
CHEMBL3641914
     RDKit          3D

  0  0  0  0  0  0  0  0  0  0999 V3000
M  V30 BEGIN CTAB
M  V30 COUNTS 66 71 0 0 0
M  V30 BEGIN ATOM
M  V30 1 C 3.527286 3.459359 5.428568 0
M  V30 2 N 3.952013 4.102740 4.200822 0
M  V30 3 C 5.307510 3.698575 3.924003 0
M  V30 4 C 3.120284 3.737279 3.081376 0
M  V30 5 C 1.673202 4.122150 3.302924 0
M  V30 6 C 0.905446 3.748104 2.054816 0
M  V30 7 N 1.726182 3.116475 1.065392 0
M  V30 8 C 1.591261 1.815694 0.509561 0
M  V30 9 C 0.593130 0.960597 0.926485 0
M  V30 10 C 0.582054 -0.269116 0.298336 0
M  V30 11 C 1.494659 -0.658825 -0.690463 0
M  V30 12 N 1.423107 -1.945536 -1.295966 0
M  V30 13 C 0.372630 -2.773500 -0.812534 0
M  V30 14 N 0.733750 -3.561195 0.233364 0
M  V30 15 C -0.158391 -4.415734 0.816839 0
M  V30 16 C -1.461393 -4.496013 0.348260 0
M  V30 17 C -2.633591 -5.171722 0.612552 0
M  V30 18 C -2.842431 -6.130527 1.611588 0
M  V30 19 C -4.088288 -6.708548 1.737441 0
M  V30 20 N -5.050294 -6.302913 0.868055 0
M  V30 21 C -4.826901 -5.380504 -0.083519 0
M  V30 22 C -3.609174 -4.758932 -0.270928 0
M  V30 23 N -3.077816 -3.827468 -1.099008 0
M  V30 24 C -3.948824 -3.261668 -2.109305 0 CFG=1
M  V30 25 C -3.454235 -1.997511 -2.715970 0
M  V30 26 C -2.691163 -2.355987 -3.929667 0
M  V30 27 C -2.903831 -3.820741 -4.137567 0
M  V30 28 C -4.142558 -4.160219 -3.306868 0 CFG=1
M  V30 29 O -4.173271 -5.513302 -3.002667 0
M  V30 30 C -1.800617 -3.686933 -0.712570 0
M  V30 31 N -0.894232 -2.860658 -1.257961 0
M  V30 32 N 2.440891 0.269143 -1.024963 0
M  V30 33 N 2.477014 1.460565 -0.438220 0
M  V30 34 C 2.768952 4.022717 0.684908 0
M  V30 35 C 3.580067 4.508400 1.865001 0
M  V30 36 H 2.967049 2.512459 5.255355 0
M  V30 37 H 4.420771 3.245249 6.026664 0
M  V30 38 H 2.924903 4.187741 6.019022 0
M  V30 39 H 5.714927 3.050965 4.742253 0
M  V30 40 H 5.368996 3.080218 3.013149 0
M  V30 41 H 6.010770 4.568209 3.800166 0
M  V30 42 H 3.165354 2.653640 2.889754 0
M  V30 43 H 1.655621 5.214812 3.496443 0
M  V30 44 H 1.254671 3.645218 4.218232 0
M  V30 45 H 0.502081 4.710042 1.627548 0
M  V30 46 H 0.058139 3.113683 2.386447 0
M  V30 47 H -0.120425 1.219515 1.676251 0
M  V30 48 H -0.195665 -0.963239 0.608898 0
M  V30 49 H 2.121398 -2.166526 -2.017075 0
M  V30 50 H 0.069586 -5.061557 1.644782 0
M  V30 51 H -2.027854 -6.415534 2.281534 0
M  V30 52 H -4.219788 -7.436620 2.507556 0
M  V30 53 H -5.647289 -5.110670 -0.734518 0
M  V30 54 H -4.945417 -3.009955 -1.641970 0
M  V30 55 H -4.367576 -1.422540 -3.078420 0
M  V30 56 H -2.891977 -1.352890 -2.001225 0
M  V30 57 H -2.995898 -1.759068 -4.834942 0
M  V30 58 H -1.588492 -2.156680 -3.830006 0
M  V30 59 H -2.081001 -4.465321 -3.742243 0
M  V30 60 H -3.084479 -3.981449 -5.213844 0
M  V30 61 H -5.008621 -3.792442 -3.859296 0
M  V30 62 H -3.869981 -6.004052 -3.813374 0
M  V30 63 H 2.364974 4.841274 0.058186 0
M  V30 64 H 3.482543 3.447144 0.032817 0
M  V30 65 H 3.341070 5.599921 2.023969 0
M  V30 66 H 4.665963 4.469901 1.693010 0
M  V30 END ATOM
M  V30 BEGIN BOND
M  V30 1 1 1 2
M  V30 2 1 2 3
M  V30 3 1 2 4
M  V30 4 1 4 5
M  V30 5 1 5 6
M  V30 6 1 6 7
M  V30 7 1 7 8
M  V30 8 2 8 9
M  V30 9 1 9 10
M  V30 10 2 10 11
M  V30 11 1 11 12
M  V30 12 1 12 13
M  V30 13 2 13 14
M  V30 14 1 14 15
M  V30 15 2 15 16
M  V30 16 1 16 17
M  V30 17 2 17 18
M  V30 18 1 18 19
M  V30 19 2 19 20
M  V30 20 1 20 21
M  V30 21 2 21 22
M  V30 22 1 22 23
M  V30 23 1 23 24
M  V30 24 1 24 25
M  V30 25 1 25 26
M  V30 26 1 26 27
M  V30 27 1 27 28
M  V30 28 1 28 29
M  V30 29 1 23 30
M  V30 30 2 30 31
M  V30 31 1 11 32
M  V30 32 2 32 33
M  V30 33 1 7 34
M  V30 34 1 34 35
M  V30 35 1 35 4
M  V30 36 1 33 8
M  V30 37 1 31 13
M  V30 38 1 30 16
M  V30 39 1 22 17
M  V30 40 1 28 24
M  V30 41 1 1 36
M  V30 42 1 1 37
M  V30 43 1 1 38
M  V30 44 1 3 39
M  V30 45 1 3 40
M  V30 46 1 3 41
M  V30 47 1 4 42
M  V30 48 1 5 43
M  V30 49 1 5 44
M  V30 50 1 6 45
M  V30 51 1 6 46
M  V30 52 1 9 47
M  V30 53 1 10 48
M  V30 54 1 12 49
M  V30 55 1 15 50
M  V30 56 1 18 51
M  V30 57 1 19 52
M  V30 58 1 21 53
M  V30 59 1 24 54 CFG=1
M  V30 60 1 25 55
M  V30 61 1 25 56
M  V30 62 1 26 57
M  V30 63 1 26 58
M  V30 64 1 27 59
M  V30 65 1 27 60
M  V30 66 1 28 61 CFG=3
M  V30 67 1 29 62
M  V30 68 1 34 63
M  V30 69 1 34 64
M  V30 70 1 35 65
M  V30 71 1 35 66
M  V30 END BOND
M  V30 END CTAB
M  END
>  <Dataset>  (744) 
ChEMBL_Kinases

>  <Ligand_Instance>  (744) 
nan

>  <PDB_ID>  (744) 
nan

>  <Standardized_SMILES>  (744) 
CN(C)C1CCN(c2ccc(Nc3ncc4c5ccncc5n([C@H]5CCC[C@H]5O)c4n3)nn2)CC1

>  <Name>  (744) 
nan

>  <Pocket>  (744) 
nan

>  <ATP_Site>  (744) 
nan

>  <Peripheral>  (744) 
nan

>  <Num_H_Atoms_ProtBoundConf>  (744) 
nan

>  <Num_Resolved_Atoms>  (744) 
nan

>  <Num_Not_Resolved_Atoms>  (744) 
nan

$$$$
CHEMBL3641915
     RDKit          3D

  0  0  0  0  0  0  0  0  0  0999 V3000
M  V30 BEGIN CTAB
M  V30 COUNTS 54 58 0 0 0
M  V30 BEGIN ATOM
M  V30 1 C 3.473659 -1.606190 2.675129 0
M  V30 2 C 2.328167 -1.721242 1.714964 0 CFG=1
M  V30 3 O 1.115911 -1.279207 2.240493 0
M  V30 4 C 2.622726 -1.185719 0.355083 0
M  V30 5 N 2.972513 0.194291 0.298467 0
M  V30 6 C 4.205349 0.729834 0.388275 0
M  V30 7 C 5.479268 0.204375 0.553184 0
M  V30 8 N 6.588746 0.975071 0.614695 0
M  V30 9 C 6.496923 2.317070 0.515610 0
M  V30 10 C 5.260040 2.906602 0.350184 0
M  V30 11 C 4.135201 2.102904 0.289334 0
M  V30 12 C 2.792745 2.444853 0.129698 0
M  V30 13 C 2.119369 3.639133 -0.018679 0
M  V30 14 N 0.772369 3.589796 -0.152530 0
M  V30 15 C 0.125951 2.392629 -0.138338 0
M  V30 16 N -1.298672 2.285075 -0.275979 0
M  V30 17 C -1.983107 1.042958 -0.263136 0
M  V30 18 C -3.363769 1.011269 -0.400715 0
M  V30 19 C -3.974796 -0.247453 -0.379274 0
M  V30 20 C -3.180032 -1.363764 -0.225002 0
M  V30 21 N -3.841242 -2.623206 -0.208075 0
M  V30 22 C -5.283642 -2.692219 -0.341376 0
M  V30 23 C -5.798778 -4.035339 0.125110 0
M  V30 24 N -5.144118 -4.465859 1.332427 0
M  V30 25 C -3.722675 -4.530777 1.231708 0
M  V30 26 C -3.224603 -3.916815 -0.067129 0
M  V30 27 C -1.810113 -1.280973 -0.091914 0
M  V30 28 N -1.229403 -0.067332 -0.113486 0
M  V30 29 N 0.804363 1.229801 0.008427 0
M  V30 30 C 2.128150 1.243024 0.142342 0
M  V30 31 H 3.841829 -0.574609 2.818010 0
M  V30 32 H 4.307254 -2.229111 2.291054 0
M  V30 33 H 3.145181 -2.076652 3.625087 0
M  V30 34 H 2.176463 -2.833010 1.576108 0
M  V30 35 H 0.358021 -1.882369 2.033473 0
M  V30 36 H 1.775692 -1.460973 -0.312576 0
M  V30 37 H 3.497454 -1.775079 -0.025255 0
M  V30 38 H 5.567171 -0.866690 0.633826 0
M  V30 39 H 7.427984 2.849277 0.574862 0
M  V30 40 H 5.208696 3.990239 0.272529 0
M  V30 41 H 2.645557 4.578446 -0.027928 0
M  V30 42 H -1.816362 3.183903 -0.388249 0
M  V30 43 H -3.874219 1.954823 -0.514792 0
M  V30 44 H -5.048859 -0.216107 -0.490274 0
M  V30 45 H -5.614973 -2.511680 -1.365064 0
M  V30 46 H -5.729022 -1.935364 0.366800 0
M  V30 47 H -6.880833 -3.914107 0.337285 0
M  V30 48 H -5.614912 -4.758458 -0.694975 0
M  V30 49 H -5.490325 -3.997078 2.177577 0
M  V30 50 H -3.456408 -5.624954 1.158358 0
M  V30 51 H -3.175858 -4.107097 2.080933 0
M  V30 52 H -2.139067 -3.933755 -0.129376 0
M  V30 53 H -3.598311 -4.538622 -0.905869 0
M  V30 54 H -1.187694 -2.137017 0.027656 0
M  V30 END ATOM
M  V30 BEGIN BOND
M  V30 1 1 1 2
M  V30 2 1 2 3
M  V30 3 1 2 4
M  V30 4 1 4 5
M  V30 5 1 5 6
M  V30 6 2 6 7
M  V30 7 1 7 8
M  V30 8 2 8 9
M  V30 9 1 9 10
M  V30 10 2 10 11
M  V30 11 1 11 12
M  V30 12 2 12 13
M  V30 13 1 13 14
M  V30 14 2 14 15
M  V30 15 1 15 16
M  V30 16 1 16 17
M  V30 17 2 17 18
M  V30 18 1 18 19
M  V30 19 2 19 20
M  V30 20 1 20 21
M  V30 21 1 21 22
M  V30 22 1 22 23
M  V30 23 1 23 24
M  V30 24 1 24 25
M  V30 25 1 25 26
M  V30 26 1 20 27
M  V30 27 2 27 28
M  V30 28 1 15 29
M  V30 29 2 29 30
M  V30 30 1 30 5
M  V30 31 1 11 6
M  V30 32 1 30 12
M  V30 33 1 28 17
M  V30 34 1 26 21
M  V30 35 1 1 31
M  V30 36 1 1 32
M  V30 37 1 1 33
M  V30 38 1 2 34 CFG=3
M  V30 39 1 3 35
M  V30 40 1 4 36
M  V30 41 1 4 37
M  V30 42 1 7 38
M  V30 43 1 9 39
M  V30 44 1 10 40
M  V30 45 1 13 41
M  V30 46 1 16 42
M  V30 47 1 18 43
M  V30 48 1 19 44
M  V30 49 1 22 45
M  V30 50 1 22 46
M  V30 51 1 23 47
M  V30 52 1 23 48
M  V30 53 1 24 49
M  V30 54 1 25 50
M  V30 55 1 25 51
M  V30 56 1 26 52
M  V30 57 1 26 53
M  V30 58 1 27 54
M  V30 END BOND
M  V30 END CTAB
M  END
>  <Dataset>  (745) 
ChEMBL_Kinases

>  <Ligand_Instance>  (745) 
nan

>  <PDB_ID>  (745) 
nan

>  <Standardized_SMILES>  (745) 
C[C@@H](O)Cn1c2cnccc2c2cnc(Nc3ccc(N4CCNCC4)cn3)nc21

>  <Name>  (745) 
nan

>  <Pocket>  (745) 
nan

>  <ATP_Site>  (745) 
nan

>  <Peripheral>  (745) 
nan

>  <Num_H_Atoms_ProtBoundConf>  (745) 
nan

>  <Num_Resolved_Atoms>  (745) 
nan

>  <Num_Not_Resolved_Atoms>  (745) 
nan

$$$$
CHEMBL3641916
     RDKit          3D

  0  0  0  0  0  0  0  0  0  0999 V3000
M  V30 BEGIN CTAB
M  V30 COUNTS 63 67 0 0 0
M  V30 BEGIN ATOM
M  V30 1 C 4.281292 0.110420 0.794937 0
M  V30 2 C 2.886374 -0.020734 0.266451 0 CFG=1
M  V30 3 O 1.939952 -0.233573 1.265634 0
M  V30 4 C 2.450758 1.157334 -0.577306 0
M  V30 5 N 2.474552 2.406919 0.145288 0
M  V30 6 C 3.437594 3.315818 0.295175 0
M  V30 7 C 4.738672 3.359600 -0.202733 0
M  V30 8 N 5.513466 4.405459 0.102075 0
M  V30 9 C 5.090661 5.426996 0.875084 0
M  V30 10 C 3.806968 5.465608 1.415567 0
M  V30 11 C 3.026157 4.386699 1.092936 0
M  V30 12 C 1.721143 4.009781 1.393231 0
M  V30 13 C 0.809115 4.721027 2.179679 0
M  V30 14 N -0.418897 4.173739 2.350790 0
M  V30 15 C -0.768077 3.000399 1.797463 0
M  V30 16 N -2.059769 2.419904 1.986936 0
M  V30 17 C -2.395381 1.181240 1.349874 0
M  V30 18 C -3.617917 0.573127 1.522791 0
M  V30 19 C -3.951141 -0.613417 0.908525 0
M  V30 20 C -3.040163 -1.232141 0.085013 0
M  V30 21 N -3.350480 -2.465785 -0.552344 0
M  V30 22 C -2.642847 -3.052531 -1.673087 0
M  V30 23 C -1.861063 -4.228059 -1.149270 0
M  V30 24 C -2.432431 -4.733514 0.118826 0
M  V30 25 N -1.995021 -6.039083 0.517757 0
M  V30 26 C -2.307573 -7.105587 -0.398810 0
M  V30 27 C -0.548554 -6.059945 0.706857 0
M  V30 28 C -3.967287 -4.746833 0.037656 0
M  V30 29 C -4.473830 -3.303182 -0.084432 0
M  V30 30 C -1.818859 -0.610005 -0.079251 0
M  V30 31 N -1.512887 0.567077 0.542005 0
M  V30 32 N 0.124585 2.343927 1.050239 0
M  V30 33 C 1.361267 2.808523 0.828199 0
M  V30 34 H 4.392149 1.004258 1.431557 0
M  V30 35 H 4.442269 -0.766472 1.481160 0
M  V30 36 H 5.001446 0.020476 -0.015791 0
M  V30 37 H 2.854772 -0.902419 -0.407128 0
M  V30 38 H 1.098388 -0.511881 0.782585 0
M  V30 39 H 3.109230 1.153735 -1.477537 0
M  V30 40 H 1.431319 0.900100 -0.960653 0
M  V30 41 H 5.094665 2.540999 -0.825597 0
M  V30 42 H 5.751649 6.256337 1.102296 0
M  V30 43 H 3.416510 6.252740 2.036351 0
M  V30 44 H 0.953035 5.665178 2.679232 0
M  V30 45 H -2.784057 2.854448 2.574547 0
M  V30 46 H -4.312802 1.087008 2.178840 0
M  V30 47 H -4.922436 -0.980824 1.121063 0
M  V30 48 H -2.022181 -2.318967 -2.226335 0
M  V30 49 H -3.425959 -3.363023 -2.407311 0
M  V30 50 H -0.821051 -3.843020 -0.927715 0
M  V30 51 H -1.688960 -5.001484 -1.921958 0
M  V30 52 H -2.200435 -4.052531 0.962908 0
M  V30 53 H -3.373089 -7.390126 -0.427327 0
M  V30 54 H -1.782272 -8.009934 0.001574 0
M  V30 55 H -1.896218 -6.968541 -1.417289 0
M  V30 56 H -0.086070 -6.009496 -0.317266 0
M  V30 57 H -0.267035 -5.123368 1.220405 0
M  V30 58 H -0.198284 -6.946629 1.247360 0
M  V30 59 H -4.340165 -5.372523 -0.780833 0
M  V30 60 H -4.376954 -5.144249 0.982459 0
M  V30 61 H -5.307458 -3.320877 -0.788786 0
M  V30 62 H -4.808469 -2.977315 0.914885 0
M  V30 63 H -1.087377 -1.053374 -0.707163 0
M  V30 END ATOM
M  V30 BEGIN BOND
M  V30 1 1 1 2
M  V30 2 1 2 3
M  V30 3 1 2 4
M  V30 4 1 4 5
M  V30 5 1 5 6
M  V30 6 2 6 7
M  V30 7 1 7 8
M  V30 8 2 8 9
M  V30 9 1 9 10
M  V30 10 2 10 11
M  V30 11 1 11 12
M  V30 12 2 12 13
M  V30 13 1 13 14
M  V30 14 2 14 15
M  V30 15 1 15 16
M  V30 16 1 16 17
M  V30 17 2 17 18
M  V30 18 1 18 19
M  V30 19 2 19 20
M  V30 20 1 20 21
M  V30 21 1 21 22
M  V30 22 1 22 23
M  V30 23 1 23 24
M  V30 24 1 24 25
M  V30 25 1 25 26
M  V30 26 1 25 27
M  V30 27 1 24 28
M  V30 28 1 28 29
M  V30 29 1 20 30
M  V30 30 2 30 31
M  V30 31 1 15 32
M  V30 32 2 32 33
M  V30 33 1 33 5
M  V30 34 1 11 6
M  V30 35 1 33 12
M  V30 36 1 31 17
M  V30 37 1 29 21
M  V30 38 1 1 34
M  V30 39 1 1 35
M  V30 40 1 1 36
M  V30 41 1 2 37 CFG=3
M  V30 42 1 3 38
M  V30 43 1 4 39
M  V30 44 1 4 40
M  V30 45 1 7 41
M  V30 46 1 9 42
M  V30 47 1 10 43
M  V30 48 1 13 44
M  V30 49 1 16 45
M  V30 50 1 18 46
M  V30 51 1 19 47
M  V30 52 1 22 48
M  V30 53 1 22 49
M  V30 54 1 23 50
M  V30 55 1 23 51
M  V30 56 1 24 52
M  V30 57 1 26 53
M  V30 58 1 26 54
M  V30 59 1 26 55
M  V30 60 1 27 56
M  V30 61 1 27 57
M  V30 62 1 27 58
M  V30 63 1 28 59
M  V30 64 1 28 60
M  V30 65 1 29 61
M  V30 66 1 29 62
M  V30 67 1 30 63
M  V30 END BOND
M  V30 END CTAB
M  END
>  <Dataset>  (746) 
ChEMBL_Kinases

>  <Ligand_Instance>  (746) 
nan

>  <PDB_ID>  (746) 
nan

>  <Standardized_SMILES>  (746) 
C[C@@H](O)Cn1c2cnccc2c2cnc(Nc3ccc(N4CCC(N(C)C)CC4)cn3)nc21

>  <Name>  (746) 
nan

>  <Pocket>  (746) 
nan

>  <ATP_Site>  (746) 
nan

>  <Peripheral>  (746) 
nan

>  <Num_H_Atoms_ProtBoundConf>  (746) 
nan

>  <Num_Resolved_Atoms>  (746) 
nan

>  <Num_Not_Resolved_Atoms>  (746) 
nan

$$$$
CHEMBL3641917
     RDKit          3D

  0  0  0  0  0  0  0  0  0  0999 V3000
M  V30 BEGIN CTAB
M  V30 COUNTS 53 57 0 0 0
M  V30 BEGIN ATOM
M  V30 1 C 1.452544 -0.134545 4.061995 0
M  V30 2 C 2.333608 -1.237045 3.538417 0 CFG=1
M  V30 3 O 1.973847 -2.434093 4.152962 0
M  V30 4 C 2.232967 -1.387572 2.016788 0
M  V30 5 N 2.629052 -0.182519 1.356202 0
M  V30 6 C 3.931336 0.037146 1.027287 0
M  V30 7 C 5.097276 -0.702428 1.178040 0
M  V30 8 N 6.295556 -0.230194 0.741172 0
M  V30 9 C 6.368642 0.992896 0.141792 0
M  V30 10 C 5.252790 1.785483 -0.041597 0
M  V30 11 C 4.047763 1.287406 0.408457 0
M  V30 12 C 2.785354 1.856765 0.353058 0
M  V30 13 C 2.238542 3.031958 -0.116843 0
M  V30 14 N 0.898126 3.244411 0.005644 0
M  V30 15 C 0.105424 2.324330 0.577014 0
M  V30 16 N -1.316312 2.413550 0.764941 0
M  V30 17 C -2.065531 1.197949 0.527807 0
M  V30 18 C -3.411273 1.095722 0.664073 0
M  V30 19 C -4.077351 -0.095005 0.382316 0
M  V30 20 C -3.385158 -1.195711 -0.040700 0
M  V30 21 N -3.937235 -2.456345 -0.395411 0
M  V30 22 C -5.247737 -2.993289 -0.708763 0
M  V30 23 C -4.982312 -3.410368 -2.164715 0
M  V30 24 C -3.650231 -4.149890 -1.951942 0 CFG=1
M  V30 25 O -2.693091 -3.790667 -2.874376 0
M  V30 26 C -3.219138 -3.725364 -0.550699 0
M  V30 27 C -2.011757 -1.063659 -0.170658 0
M  V30 28 N -1.431516 0.108017 0.116096 0
M  V30 29 N 0.659270 1.175932 1.035334 0
M  V30 30 C 1.973759 0.914518 0.942370 0
M  V30 31 H 0.496304 -0.167387 3.461971 0
M  V30 32 H 1.917736 0.850316 4.082036 0
M  V30 33 H 1.111346 -0.349131 5.108972 0
M  V30 34 H 3.413393 -1.047352 3.792907 0
M  V30 35 H 1.337876 -2.931657 3.599141 0
M  V30 36 H 1.169728 -1.616263 1.739815 0
M  V30 37 H 2.832869 -2.259997 1.710376 0
M  V30 38 H 5.037087 -1.690225 1.658588 0
M  V30 39 H 7.360485 1.308405 -0.183445 0
M  V30 40 H 5.324017 2.741368 -0.511186 0
M  V30 41 H 2.873510 3.770093 -0.576554 0
M  V30 42 H -1.853687 3.254573 1.054110 0
M  V30 43 H -3.974477 1.962266 1.000549 0
M  V30 44 H -5.143609 -0.210613 0.481158 0
M  V30 45 H -6.063804 -2.251367 -0.660769 0
M  V30 46 H -5.434895 -3.895621 -0.122683 0
M  V30 47 H -4.719386 -2.514135 -2.747294 0
M  V30 48 H -5.762303 -4.048375 -2.578020 0
M  V30 49 H -3.871474 -5.238234 -1.982080 0
M  V30 50 H -2.187651 -3.020123 -2.494916 0
M  V30 51 H -2.148867 -3.657384 -0.412910 0
M  V30 52 H -3.676327 -4.458283 0.163217 0
M  V30 53 H -1.299017 -1.822245 -0.491439 0
M  V30 END ATOM
M  V30 BEGIN BOND
M  V30 1 1 1 2
M  V30 2 1 2 3
M  V30 3 1 2 4
M  V30 4 1 4 5
M  V30 5 1 5 6
M  V30 6 2 6 7
M  V30 7 1 7 8
M  V30 8 2 8 9
M  V30 9 1 9 10
M  V30 10 2 10 11
M  V30 11 1 11 12
M  V30 12 2 12 13
M  V30 13 1 13 14
M  V30 14 2 14 15
M  V30 15 1 15 16
M  V30 16 1 16 17
M  V30 17 2 17 18
M  V30 18 1 18 19
M  V30 19 2 19 20
M  V30 20 1 20 21
M  V30 21 1 21 22
M  V30 22 1 22 23
M  V30 23 1 23 24
M  V30 24 1 24 25
M  V30 25 1 24 26
M  V30 26 1 20 27
M  V30 27 2 27 28
M  V30 28 1 15 29
M  V30 29 2 29 30
M  V30 30 1 30 5
M  V30 31 1 11 6
M  V30 32 1 30 12
M  V30 33 1 28 17
M  V30 34 1 26 21
M  V30 35 1 1 31
M  V30 36 1 1 32
M  V30 37 1 1 33
M  V30 38 1 2 34 CFG=3
M  V30 39 1 3 35
M  V30 40 1 4 36
M  V30 41 1 4 37
M  V30 42 1 7 38
M  V30 43 1 9 39
M  V30 44 1 10 40
M  V30 45 1 13 41
M  V30 46 1 16 42
M  V30 47 1 18 43
M  V30 48 1 19 44
M  V30 49 1 22 45
M  V30 50 1 22 46
M  V30 51 1 23 47
M  V30 52 1 23 48
M  V30 53 1 24 49 CFG=1
M  V30 54 1 25 50
M  V30 55 1 26 51
M  V30 56 1 26 52
M  V30 57 1 27 53
M  V30 END BOND
M  V30 END CTAB
M  END
>  <Dataset>  (747) 
ChEMBL_Kinases

>  <Ligand_Instance>  (747) 
nan

>  <PDB_ID>  (747) 
nan

>  <Standardized_SMILES>  (747) 
C[C@@H](O)Cn1c2cnccc2c2cnc(Nc3ccc(N4CC[C@@H](O)C4)cn3)nc21

>  <Name>  (747) 
nan

>  <Pocket>  (747) 
nan

>  <ATP_Site>  (747) 
nan

>  <Peripheral>  (747) 
nan

>  <Num_H_Atoms_ProtBoundConf>  (747) 
nan

>  <Num_Resolved_Atoms>  (747) 
nan

>  <Num_Not_Resolved_Atoms>  (747) 
nan

$$$$
CHEMBL3641920
     RDKit          3D

  0  0  0  0  0  0  0  0  0  0999 V3000
M  V30 BEGIN CTAB
M  V30 COUNTS 58 63 0 0 0
M  V30 BEGIN ATOM
M  V30 1 O 1.355699 -0.714790 3.072635 0
M  V30 2 C 2.191508 -0.440685 1.994723 0 CFG=2
M  V30 3 C 3.509672 -1.156321 2.351990 0
M  V30 4 C 3.907497 -0.345553 3.566346 0
M  V30 5 C 3.469928 1.087287 3.232612 0
M  V30 6 C 2.688883 0.965290 1.950100 0 CFG=2
M  V30 7 N 1.737036 1.981846 1.704853 0
M  V30 8 C 1.987469 3.268357 1.425741 0
M  V30 9 C 3.224523 3.914553 1.316786 0
M  V30 10 N 3.233482 5.231324 1.025356 0
M  V30 11 C 2.080482 5.899882 0.845635 0
M  V30 12 C 0.837631 5.318363 0.940512 0
M  V30 13 C 0.789921 3.947838 1.242323 0
M  V30 14 C -0.234602 3.018503 1.420447 0
M  V30 15 C -1.598856 3.196401 1.340486 0
M  V30 16 N -2.400762 2.129831 1.552939 0
M  V30 17 C -1.815513 0.940549 1.833732 0
M  V30 18 N -2.359140 -0.354987 2.091496 0
M  V30 19 C -2.239962 -1.329527 1.060890 0
M  V30 20 C -1.640978 -1.113076 -0.158483 0
M  V30 21 C -1.492369 -2.042707 -1.163520 0
M  V30 22 C -1.982039 -3.306043 -0.943892 0
M  V30 23 N -1.897635 -4.389239 -1.870433 0
M  V30 24 C -2.358337 -5.764422 -1.667923 0
M  V30 25 C -3.650884 -5.870684 -2.445173 0
M  V30 26 N -3.617164 -5.076947 -3.625459 0
M  V30 27 C -2.328453 -4.815968 -4.170682 0
M  V30 28 C -1.315327 -4.275007 -3.194418 0
M  V30 29 C -2.589124 -3.550832 0.270023 0
M  V30 30 N -2.706739 -2.594176 1.223407 0
M  V30 31 N -0.479111 0.790770 1.905979 0
M  V30 32 C 0.399256 1.827194 1.702821 0
M  V30 33 H 1.366031 -1.643448 3.372875 0
M  V30 34 H 1.797337 -0.841790 1.064516 0
M  V30 35 H 3.345579 -2.215162 2.543622 0
M  V30 36 H 4.202399 -0.924294 1.524937 0
M  V30 37 H 3.278454 -0.675229 4.441491 0
M  V30 38 H 4.968387 -0.423507 3.805711 0
M  V30 39 H 4.375724 1.731932 3.071097 0
M  V30 40 H 2.808709 1.506105 4.007069 0
M  V30 41 H 3.469587 0.974878 1.130082 0
M  V30 42 H 4.179637 3.466809 1.441765 0
M  V30 43 H 2.108823 6.975997 0.608485 0
M  V30 44 H -0.103929 5.841103 0.800230 0
M  V30 45 H -2.084667 4.132570 1.118507 0
M  V30 46 H -2.829693 -0.650715 2.968904 0
M  V30 47 H -1.252397 -0.125367 -0.348236 0
M  V30 48 H -1.020540 -1.824992 -2.087871 0
M  V30 49 H -2.494250 -6.008032 -0.595151 0
M  V30 50 H -1.644005 -6.507939 -2.102707 0
M  V30 51 H -4.429897 -5.424236 -1.761389 0
M  V30 52 H -3.962948 -6.923568 -2.596649 0
M  V30 53 H -4.283070 -4.285765 -3.675571 0
M  V30 54 H -1.925104 -5.729767 -4.665085 0
M  V30 55 H -2.456081 -4.074396 -4.996370 0
M  V30 56 H -0.915141 -3.302280 -3.450187 0
M  V30 57 H -0.435092 -4.984323 -3.170974 0
M  V30 58 H -3.025238 -4.479458 0.606314 0
M  V30 END ATOM
M  V30 BEGIN BOND
M  V30 1 1 1 2
M  V30 2 1 2 3
M  V30 3 1 3 4
M  V30 4 1 4 5
M  V30 5 1 5 6
M  V30 6 1 6 7
M  V30 7 1 7 8
M  V30 8 2 8 9
M  V30 9 1 9 10
M  V30 10 2 10 11
M  V30 11 1 11 12
M  V30 12 2 12 13
M  V30 13 1 13 14
M  V30 14 2 14 15
M  V30 15 1 15 16
M  V30 16 2 16 17
M  V30 17 1 17 18
M  V30 18 1 18 19
M  V30 19 2 19 20
M  V30 20 1 20 21
M  V30 21 2 21 22
M  V30 22 1 22 23
M  V30 23 1 23 24
M  V30 24 1 24 25
M  V30 25 1 25 26
M  V30 26 1 26 27
M  V30 27 1 27 28
M  V30 28 1 22 29
M  V30 29 2 29 30
M  V30 30 1 17 31
M  V30 31 2 31 32
M  V30 32 1 6 2
M  V30 33 1 32 7
M  V30 34 1 13 8
M  V30 35 1 32 14
M  V30 36 1 30 19
M  V30 37 1 28 23
M  V30 38 1 1 33
M  V30 39 1 2 34 CFG=3
M  V30 40 1 3 35
M  V30 41 1 3 36
M  V30 42 1 4 37
M  V30 43 1 4 38
M  V30 44 1 5 39
M  V30 45 1 5 40
M  V30 46 1 6 41 CFG=3
M  V30 47 1 9 42
M  V30 48 1 11 43
M  V30 49 1 12 44
M  V30 50 1 15 45
M  V30 51 1 18 46
M  V30 52 1 20 47
M  V30 53 1 21 48
M  V30 54 1 24 49
M  V30 55 1 24 50
M  V30 56 1 25 51
M  V30 57 1 25 52
M  V30 58 1 26 53
M  V30 59 1 27 54
M  V30 60 1 27 55
M  V30 61 1 28 56
M  V30 62 1 28 57
M  V30 63 1 29 58
M  V30 END BOND
M  V30 END CTAB
M  END
>  <Dataset>  (748) 
ChEMBL_Kinases

>  <Ligand_Instance>  (748) 
nan

>  <PDB_ID>  (748) 
nan

>  <Standardized_SMILES>  (748) 
O[C@@H]1CCC[C@@H]1n1c2cnccc2c2cnc(Nc3ccc(N4CCNCC4)cn3)nc21

>  <Name>  (748) 
nan

>  <Pocket>  (748) 
nan

>  <ATP_Site>  (748) 
nan

>  <Peripheral>  (748) 
nan

>  <Num_H_Atoms_ProtBoundConf>  (748) 
nan

>  <Num_Resolved_Atoms>  (748) 
nan

>  <Num_Not_Resolved_Atoms>  (748) 
nan

$$$$
CHEMBL4059521
     RDKit          3D

  0  0  0  0  0  0  0  0  0  0999 V3000
M  V30 BEGIN CTAB
M  V30 COUNTS 42 44 0 0 0
M  V30 BEGIN ATOM
M  V30 1 C -0.260433 -4.865463 1.544979 0
M  V30 2 N -0.474356 -5.833901 0.515414 0
M  V30 3 C -0.296718 -5.516490 -0.845001 0
M  V30 4 C 0.093929 -4.220758 -1.111254 0
M  V30 5 C 0.287039 -3.839209 -2.423664 0
M  V30 6 O 0.671415 -2.629214 -2.982737 0
M  V30 7 C 0.962990 -1.476158 -2.268081 0
M  V30 8 C 0.238131 -0.316676 -2.463514 0
M  V30 9 C 0.546028 0.825045 -1.738862 0
M  V30 10 C 1.581494 0.853371 -0.798243 0
M  V30 11 N 1.895631 2.030861 -0.053927 0
M  V30 12 C 1.265049 2.266618 1.186657 0
M  V30 13 O 0.416412 1.431524 1.643743 0
M  V30 14 N 1.488176 3.388092 2.015442 0
M  V30 15 C 0.725889 3.416649 3.245327 0
M  V30 16 C 1.185922 2.860751 4.422031 0
M  V30 17 C 0.408759 2.917872 5.576348 0
M  V30 18 C -0.839565 3.543458 5.528652 0
M  V30 19 Br -1.955732 3.659995 7.063827 0
M  V30 20 C -1.232471 4.075705 4.318906 0
M  V30 21 C -0.500074 4.044506 3.150447 0
M  V30 22 C 2.278115 -0.329998 -0.637614 0
M  V30 23 C 1.991072 -1.479404 -1.346609 0
M  V30 24 F 2.751611 -2.554993 -1.088702 0
M  V30 25 N 0.085029 -4.756821 -3.416252 0
M  V30 26 C -0.301655 -6.029356 -3.107098 0
M  V30 27 N -0.493256 -6.413251 -1.828304 0
M  V30 28 H -0.221515 -5.395800 2.534695 0
M  V30 29 H -1.143366 -4.174045 1.651239 0
M  V30 30 H 0.624038 -4.218812 1.415906 0
M  V30 31 H -0.773842 -6.820440 0.754142 0
M  V30 32 H 0.283385 -3.412353 -0.434653 0
M  V30 33 H -0.585922 -0.275048 -3.186861 0
M  V30 34 H -0.045281 1.724071 -1.916666 0
M  V30 35 H 2.573097 2.812269 -0.298060 0
M  V30 36 H 2.173757 4.110447 1.696377 0
M  V30 37 H 2.167660 2.377742 4.427468 0
M  V30 38 H 0.767117 2.482744 6.500368 0
M  V30 39 H -2.217518 4.560412 4.313153 0
M  V30 40 H -0.857051 4.474558 2.241994 0
M  V30 41 H 3.075643 -0.300473 0.089856 0
M  V30 42 H -0.473739 -6.790573 -3.859153 0
M  V30 END ATOM
M  V30 BEGIN BOND
M  V30 1 1 1 2
M  V30 2 1 2 3
M  V30 3 2 3 4
M  V30 4 1 4 5
M  V30 5 1 5 6
M  V30 6 1 6 7
M  V30 7 2 7 8
M  V30 8 1 8 9
M  V30 9 2 9 10
M  V30 10 1 10 11
M  V30 11 1 11 12
M  V30 12 2 12 13
M  V30 13 1 12 14
M  V30 14 1 14 15
M  V30 15 2 15 16
M  V30 16 1 16 17
M  V30 17 2 17 18
M  V30 18 1 18 19
M  V30 19 1 18 20
M  V30 20 2 20 21
M  V30 21 1 10 22
M  V30 22 2 22 23
M  V30 23 1 23 24
M  V30 24 2 5 25
M  V30 25 1 25 26
M  V30 26 2 26 27
M  V30 27 1 27 3
M  V30 28 1 23 7
M  V30 29 1 21 15
M  V30 30 1 1 28
M  V30 31 1 1 29
M  V30 32 1 1 30
M  V30 33 1 2 31
M  V30 34 1 4 32
M  V30 35 1 8 33
M  V30 36 1 9 34
M  V30 37 1 11 35
M  V30 38 1 14 36
M  V30 39 1 16 37
M  V30 40 1 17 38
M  V30 41 1 20 39
M  V30 42 1 21 40
M  V30 43 1 22 41
M  V30 44 1 26 42
M  V30 END BOND
M  V30 END CTAB
M  END
>  <Dataset>  (749) 
ChEMBL_Kinases

>  <Ligand_Instance>  (749) 
nan

>  <PDB_ID>  (749) 
nan

>  <Standardized_SMILES>  (749) 
CNc1cc(Oc2ccc(NC(=O)Nc3ccc(Br)cc3)cc2F)ncn1

>  <Name>  (749) 
nan

>  <Pocket>  (749) 
nan

>  <ATP_Site>  (749) 
nan

>  <Peripheral>  (749) 
nan

>  <Num_H_Atoms_ProtBoundConf>  (749) 
nan

>  <Num_Resolved_Atoms>  (749) 
nan

>  <Num_Not_Resolved_Atoms>  (749) 
nan

$$$$
CHEMBL3641910
     RDKit          3D

  0  0  0  0  0  0  0  0  0  0999 V3000
M  V30 BEGIN CTAB
M  V30 COUNTS 57 61 0 0 0
M  V30 BEGIN ATOM
M  V30 1 C 0.293876 -6.288931 2.707501 0
M  V30 2 C 0.496201 -5.403964 1.513575 0 CFG=1
M  V30 3 C 1.897119 -4.806296 1.550898 0
M  V30 4 N 2.175972 -4.447591 0.170690 0
M  V30 5 C 2.170164 -3.084815 -0.235184 0
M  V30 6 C 1.596779 -2.126945 0.573574 0
M  V30 7 C 1.654161 -0.826044 0.111310 0
M  V30 8 C 2.233628 -0.437701 -1.076491 0
M  V30 9 N 2.270160 0.902988 -1.521881 0
M  V30 10 C 1.695314 2.021962 -0.854066 0
M  V30 11 N 2.206060 3.230387 -0.559203 0
M  V30 12 C 1.405670 4.118074 0.078097 0
M  V30 13 C 0.105174 3.858922 0.441192 0
M  V30 14 C -0.922110 4.522869 1.067617 0
M  V30 15 C -0.983626 5.793836 1.591805 0
M  V30 16 C -2.187790 6.161884 2.164501 0
M  V30 17 N -3.248397 5.356140 2.222039 0
M  V30 18 C -3.228190 4.094049 1.716084 0
M  V30 19 C -2.028655 3.679027 1.126679 0
M  V30 20 N -1.687099 2.517009 0.547295 0
M  V30 21 C -2.481426 1.310462 0.343096 0
M  V30 22 C -3.195956 1.336766 -0.978874 0
M  V30 23 C -3.986366 0.034768 -1.063676 0
M  V30 24 O -4.901991 -0.060115 -0.028117 0
M  V30 25 C -0.393180 2.604445 0.123300 0
M  V30 26 N 0.430477 1.737573 -0.513817 0
M  V30 27 N 2.779738 -1.400319 -1.833585 0
M  V30 28 C 2.759886 -2.687917 -1.444650 0
M  V30 29 C 2.437816 -5.578687 -0.700729 0
M  V30 30 C 1.377062 -6.616399 -0.395316 0
M  V30 31 N 0.237317 -6.110836 0.302321 0
M  V30 32 H 0.046185 -7.301670 2.357913 0
M  V30 33 H 1.248639 -6.388884 3.268700 0
M  V30 34 H -0.471551 -5.901496 3.400413 0
M  V30 35 H -0.209558 -4.528754 1.558618 0
M  V30 36 H 2.610027 -5.615336 1.856249 0
M  V30 37 H 2.023206 -4.001998 2.270606 0
M  V30 38 H 1.117759 -2.350769 1.527402 0
M  V30 39 H 1.197694 -0.084276 0.766656 0
M  V30 40 H 2.740147 1.165379 -2.401224 0
M  V30 41 H 1.805938 5.077542 0.314814 0
M  V30 42 H -0.109901 6.442360 1.538244 0
M  V30 43 H -2.278486 7.153824 2.589475 0
M  V30 44 H -4.063220 3.385653 1.733165 0
M  V30 45 H -1.834537 0.422461 0.335989 0
M  V30 46 H -3.169486 1.232731 1.187594 0
M  V30 47 H -2.429656 1.257747 -1.801726 0
M  V30 48 H -3.808163 2.209673 -1.175244 0
M  V30 49 H -3.307049 -0.844259 -0.992281 0
M  V30 50 H -4.539591 -0.055311 -2.020819 0
M  V30 51 H -4.937259 -0.988653 0.317645 0
M  V30 52 H 3.219896 -3.443052 -2.098513 0
M  V30 53 H 2.433860 -5.287689 -1.770150 0
M  V30 54 H 3.419778 -6.021878 -0.457241 0
M  V30 55 H 1.768164 -7.522444 0.092120 0
M  V30 56 H 0.980262 -6.983021 -1.389248 0
M  V30 57 H -0.368872 -6.946231 0.535947 0
M  V30 END ATOM
M  V30 BEGIN BOND
M  V30 1 1 1 2
M  V30 2 1 2 3
M  V30 3 1 3 4
M  V30 4 1 4 5
M  V30 5 2 5 6
M  V30 6 1 6 7
M  V30 7 2 7 8
M  V30 8 1 8 9
M  V30 9 1 9 10
M  V30 10 2 10 11
M  V30 11 1 11 12
M  V30 12 2 12 13
M  V30 13 1 13 14
M  V30 14 2 14 15
M  V30 15 1 15 16
M  V30 16 2 16 17
M  V30 17 1 17 18
M  V30 18 2 18 19
M  V30 19 1 19 20
M  V30 20 1 20 21
M  V30 21 1 21 22
M  V30 22 1 22 23
M  V30 23 1 23 24
M  V30 24 1 20 25
M  V30 25 2 25 26
M  V30 26 1 8 27
M  V30 27 2 27 28
M  V30 28 1 4 29
M  V30 29 1 29 30
M  V30 30 1 30 31
M  V30 31 1 31 2
M  V30 32 1 28 5
M  V30 33 1 26 10
M  V30 34 1 25 13
M  V30 35 1 19 14
M  V30 36 1 1 32
M  V30 37 1 1 33
M  V30 38 1 1 34
M  V30 39 1 2 35 CFG=1
M  V30 40 1 3 36
M  V30 41 1 3 37
M  V30 42 1 6 38
M  V30 43 1 7 39
M  V30 44 1 9 40
M  V30 45 1 12 41
M  V30 46 1 15 42
M  V30 47 1 16 43
M  V30 48 1 18 44
M  V30 49 1 21 45
M  V30 50 1 21 46
M  V30 51 1 22 47
M  V30 52 1 22 48
M  V30 53 1 23 49
M  V30 54 1 23 50
M  V30 55 1 24 51
M  V30 56 1 28 52
M  V30 57 1 29 53
M  V30 58 1 29 54
M  V30 59 1 30 55
M  V30 60 1 30 56
M  V30 61 1 31 57
M  V30 END BOND
M  V30 END CTAB
M  END
>  <Dataset>  (750) 
ChEMBL_Kinases

>  <Ligand_Instance>  (750) 
nan

>  <PDB_ID>  (750) 
nan

>  <Standardized_SMILES>  (750) 
C[C@H]1CN(c2ccc(Nc3ncc4c5ccncc5n(CCCO)c4n3)nc2)CCN1

>  <Name>  (750) 
nan

>  <Pocket>  (750) 
nan

>  <ATP_Site>  (750) 
nan

>  <Peripheral>  (750) 
nan

>  <Num_H_Atoms_ProtBoundConf>  (750) 
nan

>  <Num_Resolved_Atoms>  (750) 
nan

>  <Num_Not_Resolved_Atoms>  (750) 
nan

$$$$
CHEMBL3922469
     RDKit          3D

  0  0  0  0  0  0  0  0  0  0999 V3000
M  V30 BEGIN CTAB
M  V30 COUNTS 52 56 0 0 0
M  V30 BEGIN ATOM
M  V30 1 N 4.783509 -2.489850 1.586332 0
M  V30 2 C 3.579616 -3.134731 2.022479 0 CFG=1
M  V30 3 C 3.388270 -3.040959 3.516674 0
M  V30 4 C 3.500009 -1.580577 3.894606 0
M  V30 5 C 2.461827 -0.741483 3.187641 0
M  V30 6 N 2.387557 -1.066393 1.767899 0
M  V30 7 C 2.292840 -0.084223 0.728523 0
M  V30 8 C 3.253425 0.074472 -0.248072 0
M  V30 9 C 3.188273 1.013576 -1.254735 0
M  V30 10 N 2.129596 1.840468 -1.309977 0
M  V30 11 C 1.158055 1.736933 -0.386743 0
M  V30 12 C 1.234960 0.792917 0.615516 0
M  V30 13 N 0.165786 0.767272 1.521140 0
M  V30 14 C -0.949574 1.645094 1.463170 0
M  V30 15 N -1.119523 2.859287 2.029939 0
M  V30 16 C -2.340768 3.321340 1.698147 0
M  V30 17 C -2.990884 2.402484 0.900717 0
M  V30 18 C -4.202152 2.269458 0.256700 0
M  V30 19 C -4.529512 1.157968 -0.490410 0
M  V30 20 C -3.591936 0.154709 -0.581283 0
M  V30 21 C -3.838831 -1.062295 -1.346007 0
M  V30 22 C -4.992370 -1.333428 -2.035869 0
M  V30 23 C -5.184208 -2.499599 -2.747238 0
M  V30 24 C -4.168259 -3.445603 -2.770210 0
M  V30 25 C -2.985056 -3.233312 -2.097645 0
M  V30 26 C -2.870202 -2.042738 -1.409699 0
M  V30 27 F -1.698161 -1.814748 -0.734090 0
M  V30 28 N -2.420810 0.314837 0.058131 0
M  V30 29 N -2.102296 1.379119 0.775868 0
M  V30 30 C 2.404105 -2.458237 1.362925 0
M  V30 31 H 4.900835 -2.647748 0.567948 0
M  V30 32 H 5.634427 -2.804513 2.102772 0
M  V30 33 H 3.537293 -4.202518 1.683880 0
M  V30 34 H 2.392357 -3.435291 3.769899 0
M  V30 35 H 4.223575 -3.578288 4.000255 0
M  V30 36 H 4.532098 -1.268222 3.739526 0
M  V30 37 H 3.281636 -1.527983 4.980955 0
M  V30 38 H 1.489682 -0.984114 3.690001 0
M  V30 39 H 2.660120 0.317054 3.340002 0
M  V30 40 H 4.119586 -0.539202 -0.274262 0
M  V30 41 H 3.968467 1.111135 -2.012596 0
M  V30 42 H 0.322406 2.426603 -0.471986 0
M  V30 43 H -0.074619 0.190305 2.354081 0
M  V30 44 H -2.838536 4.257013 1.961263 0
M  V30 45 H -4.883322 3.101415 0.377614 0
M  V30 46 H -5.487649 1.094399 -0.977754 0
M  V30 47 H -5.787345 -0.614982 -2.029487 0
M  V30 48 H -6.113168 -2.668955 -3.276630 0
M  V30 49 H -4.300270 -4.381481 -3.330658 0
M  V30 50 H -2.178972 -3.954997 -2.100649 0
M  V30 51 H 1.437001 -2.932595 1.649370 0
M  V30 52 H 2.585452 -2.555338 0.265716 0
M  V30 END ATOM
M  V30 BEGIN BOND
M  V30 1 1 1 2
M  V30 2 1 2 3
M  V30 3 1 3 4
M  V30 4 1 4 5
M  V30 5 1 5 6
M  V30 6 1 6 7
M  V30 7 2 7 8
M  V30 8 1 8 9
M  V30 9 2 9 10
M  V30 10 1 10 11
M  V30 11 2 11 12
M  V30 12 1 12 13
M  V30 13 1 13 14
M  V30 14 2 14 15
M  V30 15 1 15 16
M  V30 16 2 16 17
M  V30 17 1 17 18
M  V30 18 2 18 19
M  V30 19 1 19 20
M  V30 20 1 20 21
M  V30 21 2 21 22
M  V30 22 1 22 23
M  V30 23 2 23 24
M  V30 24 1 24 25
M  V30 25 2 25 26
M  V30 26 1 26 27
M  V30 27 2 20 28
M  V30 28 1 28 29
M  V30 29 1 6 30
M  V30 30 1 30 2
M  V30 31 1 12 7
M  V30 32 1 29 14
M  V30 33 1 29 17
M  V30 34 1 26 21
M  V30 35 1 1 31
M  V30 36 1 1 32
M  V30 37 1 2 33 CFG=3
M  V30 38 1 3 34
M  V30 39 1 3 35
M  V30 40 1 4 36
M  V30 41 1 4 37
M  V30 42 1 5 38
M  V30 43 1 5 39
M  V30 44 1 8 40
M  V30 45 1 9 41
M  V30 46 1 11 42
M  V30 47 1 13 43
M  V30 48 1 16 44
M  V30 49 1 18 45
M  V30 50 1 19 46
M  V30 51 1 22 47
M  V30 52 1 23 48
M  V30 53 1 24 49
M  V30 54 1 25 50
M  V30 55 1 30 51
M  V30 56 1 30 52
M  V30 END BOND
M  V30 END CTAB
M  END
>  <Dataset>  (751) 
ChEMBL_Kinases

>  <Ligand_Instance>  (751) 
nan

>  <PDB_ID>  (751) 
nan

>  <Standardized_SMILES>  (751) 
N[C@H]1CCCN(c2ccncc2Nc2ncc3ccc(-c4ccccc4F)nn23)C1

>  <Name>  (751) 
nan

>  <Pocket>  (751) 
nan

>  <ATP_Site>  (751) 
nan

>  <Peripheral>  (751) 
nan

>  <Num_H_Atoms_ProtBoundConf>  (751) 
nan

>  <Num_Resolved_Atoms>  (751) 
nan

>  <Num_Not_Resolved_Atoms>  (751) 
nan

$$$$
CHEMBL4062649
     RDKit          3D

  0  0  0  0  0  0  0  0  0  0999 V3000
M  V30 BEGIN CTAB
M  V30 COUNTS 52 55 0 0 0
M  V30 BEGIN ATOM
M  V30 1 C 3.898353 1.780856 -2.506918 0
M  V30 2 C 5.107356 1.148533 -1.928657 0
M  V30 3 C 6.143990 0.663733 -2.710774 0
M  V30 4 N 7.210777 0.100254 -2.102109 0
M  V30 5 C 7.294663 -0.002917 -0.764165 0
M  V30 6 C 6.284346 0.466244 0.068812 0
M  V30 7 C 5.186022 1.046216 -0.554826 0
M  V30 8 C 4.106869 1.550754 0.299611 0
M  V30 9 N 4.129543 1.469572 1.654190 0
M  V30 10 N 3.041025 2.004764 2.138962 0
M  V30 11 C 2.272227 2.450915 1.145688 0
M  V30 12 C 0.949067 3.130509 1.044535 0
M  V30 13 N -0.158107 2.229612 0.849585 0
M  V30 14 C -0.710910 1.259441 1.717073 0
M  V30 15 C -0.289495 0.989238 2.990285 0
M  V30 16 C -0.830099 0.045162 3.828819 0
M  V30 17 C -1.879229 -0.689076 3.354404 0
M  V30 18 C -2.357934 -0.471936 2.080765 0
M  V30 19 C -3.477530 -1.216991 1.519072 0
M  V30 20 O -3.880982 -1.009752 0.343533 0
M  V30 21 N -4.209955 -2.219071 2.206353 0
M  V30 22 C -5.316936 -2.978329 1.698899 0
M  V30 23 C -4.939063 -4.068561 0.771531 0
M  V30 24 C -4.824016 -4.015970 -0.601244 0
M  V30 25 C -4.462610 -5.092016 -1.372918 0
M  V30 26 C -4.195448 -6.303963 -0.757340 0
M  V30 27 C -4.292750 -6.418934 0.604979 0
M  V30 28 C -4.658938 -5.313377 1.343704 0
M  V30 29 C -1.765288 0.490983 1.298695 0
M  V30 30 N 2.966375 2.152168 0.006877 0
M  V30 31 H 4.044370 1.803718 -3.617112 0
M  V30 32 H 3.753949 2.834682 -2.206939 0
M  V30 33 H 3.028149 1.140405 -2.315645 0
M  V30 34 H 6.043040 0.763823 -3.785075 0
M  V30 35 H 8.165696 -0.461337 -0.289971 0
M  V30 36 H 6.375163 0.371467 1.142632 0
M  V30 37 H 2.783926 2.093227 3.134006 0
M  V30 38 H 1.021404 3.862736 0.215368 0
M  V30 39 H 0.811999 3.717389 2.002502 0
M  V30 40 H -0.605742 2.328503 -0.091770 0
M  V30 41 H 0.528936 1.553909 3.396917 0
M  V30 42 H -0.457919 -0.132072 4.834336 0
M  V30 43 H -2.318286 -1.435348 3.998237 0
M  V30 44 H -3.892027 -2.417581 3.202875 0
M  V30 45 H -5.873495 -3.427113 2.538147 0
M  V30 46 H -6.049740 -2.348514 1.145572 0
M  V30 47 H -5.043280 -3.055079 -1.045172 0
M  V30 48 H -4.395584 -4.966478 -2.441192 0
M  V30 49 H -3.909198 -7.164928 -1.348911 0
M  V30 50 H -4.093051 -7.351208 1.137815 0
M  V30 51 H -4.729159 -5.429655 2.425042 0
M  V30 52 H -2.166134 0.644845 0.284606 0
M  V30 END ATOM
M  V30 BEGIN BOND
M  V30 1 1 1 2
M  V30 2 2 2 3
M  V30 3 1 3 4
M  V30 4 2 4 5
M  V30 5 1 5 6
M  V30 6 2 6 7
M  V30 7 1 7 8
M  V30 8 2 8 9
M  V30 9 1 9 10
M  V30 10 1 10 11
M  V30 11 1 11 12
M  V30 12 1 12 13
M  V30 13 1 13 14
M  V30 14 2 14 15
M  V30 15 1 15 16
M  V30 16 2 16 17
M  V30 17 1 17 18
M  V30 18 1 18 19
M  V30 19 2 19 20
M  V30 20 1 19 21
M  V30 21 1 21 22
M  V30 22 1 22 23
M  V30 23 2 23 24
M  V30 24 1 24 25
M  V30 25 2 25 26
M  V30 26 1 26 27
M  V30 27 2 27 28
M  V30 28 2 18 29
M  V30 29 2 11 30
M  V30 30 1 7 2
M  V30 31 1 30 8
M  V30 32 1 29 14
M  V30 33 1 28 23
M  V30 34 1 1 31
M  V30 35 1 1 32
M  V30 36 1 1 33
M  V30 37 1 3 34
M  V30 38 1 5 35
M  V30 39 1 6 36
M  V30 40 1 10 37
M  V30 41 1 12 38
M  V30 42 1 12 39
M  V30 43 1 13 40
M  V30 44 1 15 41
M  V30 45 1 16 42
M  V30 46 1 17 43
M  V30 47 1 21 44
M  V30 48 1 22 45
M  V30 49 1 22 46
M  V30 50 1 24 47
M  V30 51 1 25 48
M  V30 52 1 26 49
M  V30 53 1 27 50
M  V30 54 1 28 51
M  V30 55 1 29 52
M  V30 END BOND
M  V30 END CTAB
M  END
>  <Dataset>  (752) 
ChEMBL_Kinases

>  <Ligand_Instance>  (752) 
nan

>  <PDB_ID>  (752) 
nan

>  <Standardized_SMILES>  (752) 
Cc1cnccc1-c1n[nH]c(CNc2cccc(C(=O)NCc3ccccc3)c2)n1

>  <Name>  (752) 
nan

>  <Pocket>  (752) 
nan

>  <ATP_Site>  (752) 
nan

>  <Peripheral>  (752) 
nan

>  <Num_H_Atoms_ProtBoundConf>  (752) 
nan

>  <Num_Resolved_Atoms>  (752) 
nan

>  <Num_Not_Resolved_Atoms>  (752) 
nan

$$$$
CHEMBL3923159
     RDKit          3D

  0  0  0  0  0  0  0  0  0  0999 V3000
M  V30 BEGIN CTAB
M  V30 COUNTS 54 57 0 0 0
M  V30 BEGIN ATOM
M  V30 1 N 5.014419 -3.557409 5.555111 0
M  V30 2 C 4.136667 -3.794089 4.440325 0
M  V30 3 O 3.623287 -4.945980 4.479512 0
M  V30 4 C 4.094344 -2.580968 3.551372 0
M  V30 5 C 3.157966 -2.922765 2.427632 0
M  V30 6 C 3.008673 -1.811560 1.454063 0
M  V30 7 O 3.544681 -0.672290 1.449552 0
M  V30 8 N 2.139050 -2.028850 0.348312 0
M  V30 9 C 2.030857 -0.931781 -0.555924 0
M  V30 10 C 2.905239 -0.873209 -1.620602 0
M  V30 11 C 2.812544 0.184790 -2.501062 0
M  V30 12 C 1.834315 1.125939 -2.249393 0
M  V30 13 C 0.943860 1.084566 -1.182163 0
M  V30 14 C 0.004733 2.200089 -1.130053 0
M  V30 15 N 0.419492 3.485874 -1.323791 0
M  V30 16 N -0.626654 4.296407 -1.226529 0
M  V30 17 C -1.753293 3.605227 -0.970825 0
M  V30 18 C -3.075617 3.952032 -0.783869 0
M  V30 19 C -3.925711 2.911031 -0.541872 0
M  V30 20 C -3.585360 1.573041 -0.469556 0
M  V30 21 N -4.612638 0.641369 -0.197797 0
M  V30 22 S -4.765669 -0.679653 0.899394 0
M  V30 23 O -4.499732 -0.200884 2.320262 0
M  V30 24 O -6.154114 -1.235052 0.888848 0
M  V30 25 C -3.565073 -1.882612 0.557166 0
M  V30 26 C -2.306155 -2.029503 1.105349 0
M  V30 27 C -1.512926 -3.061538 0.689325 0
M  V30 28 C -1.895358 -3.973738 -0.252920 0
M  V30 29 C -3.161669 -3.843237 -0.818501 0
M  V30 30 C -3.989266 -2.795638 -0.407955 0
M  V30 31 C -2.249528 1.272510 -0.663255 0
M  V30 32 C -1.352758 2.287429 -0.910688 0
M  V30 33 C 1.059513 0.019195 -0.321576 0
M  V30 34 H 5.929546 -3.704610 6.060898 0
M  V30 35 H 5.559494 -3.310213 6.414567 0
M  V30 36 H 3.609734 -1.779522 4.159235 0
M  V30 37 H 5.110951 -2.335650 3.241992 0
M  V30 38 H 3.510532 -3.862136 1.970444 0
M  V30 39 H 2.167829 -3.114452 2.870650 0
M  V30 40 H 1.641421 -2.940627 0.250080 0
M  V30 41 H 3.655805 -1.620779 -1.789765 0
M  V30 42 H 3.485271 0.253930 -3.342660 0
M  V30 43 H 1.815712 1.937946 -2.985712 0
M  V30 44 H -0.625729 5.347882 -1.328118 0
M  V30 45 H -3.397450 4.981117 -0.829240 0
M  V30 46 H -4.964400 3.189081 -0.395766 0
M  V30 47 H -5.455578 0.814255 -0.818882 0
M  V30 48 H -2.076695 -1.269025 1.843634 0
M  V30 49 H -0.551268 -3.068851 1.195294 0
M  V30 50 H -1.226010 -4.762347 -0.537368 0
M  V30 51 H -3.454734 -4.572476 -1.565382 0
M  V30 52 H -4.955098 -2.795882 -0.920405 0
M  V30 53 H -1.939445 0.251965 -0.618151 0
M  V30 54 H 0.352952 0.018198 0.495461 0
M  V30 END ATOM
M  V30 BEGIN BOND
M  V30 1 1 1 2
M  V30 2 2 2 3
M  V30 3 1 2 4
M  V30 4 1 4 5
M  V30 5 1 5 6
M  V30 6 2 6 7
M  V30 7 1 6 8
M  V30 8 1 8 9
M  V30 9 2 9 10
M  V30 10 1 10 11
M  V30 11 2 11 12
M  V30 12 1 12 13
M  V30 13 1 13 14
M  V30 14 2 14 15
M  V30 15 1 15 16
M  V30 16 1 16 17
M  V30 17 2 17 18
M  V30 18 1 18 19
M  V30 19 2 19 20
M  V30 20 1 20 21
M  V30 21 1 21 22
M  V30 22 2 22 23
M  V30 23 2 22 24
M  V30 24 1 22 25
M  V30 25 2 25 26
M  V30 26 1 26 27
M  V30 27 2 27 28
M  V30 28 1 28 29
M  V30 29 2 29 30
M  V30 30 1 20 31
M  V30 31 2 31 32
M  V30 32 2 13 33
M  V30 33 1 33 9
M  V30 34 1 32 14
M  V30 35 1 32 17
M  V30 36 1 30 25
M  V30 37 1 1 34
M  V30 38 1 1 35
M  V30 39 1 4 36
M  V30 40 1 4 37
M  V30 41 1 5 38
M  V30 42 1 5 39
M  V30 43 1 8 40
M  V30 44 1 10 41
M  V30 45 1 11 42
M  V30 46 1 12 43
M  V30 47 1 16 44
M  V30 48 1 18 45
M  V30 49 1 19 46
M  V30 50 1 21 47
M  V30 51 1 26 48
M  V30 52 1 27 49
M  V30 53 1 28 50
M  V30 54 1 29 51
M  V30 55 1 30 52
M  V30 56 1 31 53
M  V30 57 1 33 54
M  V30 END BOND
M  V30 END CTAB
M  END
>  <Dataset>  (753) 
ChEMBL_Kinases

>  <Ligand_Instance>  (753) 
nan

>  <PDB_ID>  (753) 
nan

>  <Standardized_SMILES>  (753) 
NC(=O)CCC(=O)Nc1cccc(-c2n[nH]c3ccc(NS(=O)(=O)c4ccccc4)cc23)c1

>  <Name>  (753) 
nan

>  <Pocket>  (753) 
nan

>  <ATP_Site>  (753) 
nan

>  <Peripheral>  (753) 
nan

>  <Num_H_Atoms_ProtBoundConf>  (753) 
nan

>  <Num_Resolved_Atoms>  (753) 
nan

>  <Num_Not_Resolved_Atoms>  (753) 
nan

$$$$
CHEMBL4062560
     RDKit          3D

  0  0  0  0  0  0  0  0  0  0999 V3000
M  V30 BEGIN CTAB
M  V30 COUNTS 32 34 0 0 0
M  V30 BEGIN ATOM
M  V30 1 Cl -2.063915 -1.785517 5.764174 0
M  V30 2 C -1.449327 -2.285661 4.205464 0
M  V30 3 C -0.577759 -3.329422 4.092006 0
M  V30 4 C -0.095089 -3.725044 2.887148 0
M  V30 5 C -0.449044 -3.102505 1.689582 0
M  V30 6 N 0.050776 -3.530229 0.434381 0
M  V30 7 C -0.181018 -2.990036 -0.886218 0
M  V30 8 C 0.449138 -1.628487 -0.924855 0
M  V30 9 N 0.131934 -0.354730 -0.704644 0
M  V30 10 C 1.177043 0.449750 -0.913514 0
M  V30 11 C 0.949372 1.886673 -0.701480 0
M  V30 12 C -0.162150 2.542201 -1.188677 0
M  V30 13 C -0.320990 3.895705 -0.956755 0
M  V30 14 N 0.591988 4.609669 -0.256816 0
M  V30 15 C 1.665713 3.943159 0.205852 0
M  V30 16 C 1.900388 2.586278 0.017066 0
M  V30 17 N 2.186492 -0.336926 -1.276799 0
M  V30 18 N 1.754806 -1.594826 -1.286149 0
M  V30 19 C -1.327330 -2.060386 1.861378 0
M  V30 20 C -1.838512 -1.628994 3.061264 0
M  V30 21 H -0.253887 -3.865046 4.974883 0
M  V30 22 H 0.598535 -4.563073 2.842946 0
M  V30 23 H 0.693323 -4.379188 0.491729 0
M  V30 24 H -1.296689 -2.844862 -1.057489 0
M  V30 25 H 0.219801 -3.668120 -1.644738 0
M  V30 26 H -0.861479 1.939685 -1.738128 0
M  V30 27 H -1.230524 4.353842 -1.374157 0
M  V30 28 H 2.351291 4.591376 0.758273 0
M  V30 29 H 2.798799 2.149005 0.433023 0
M  V30 30 H 2.493314 -2.305931 -1.565928 0
M  V30 31 H -1.681638 -1.505952 1.011338 0
M  V30 32 H -2.525480 -0.806707 3.153214 0
M  V30 END ATOM
M  V30 BEGIN BOND
M  V30 1 1 1 2
M  V30 2 2 2 3
M  V30 3 1 3 4
M  V30 4 2 4 5
M  V30 5 1 5 6
M  V30 6 1 6 7
M  V30 7 1 7 8
M  V30 8 2 8 9
M  V30 9 1 9 10
M  V30 10 1 10 11
M  V30 11 2 11 12
M  V30 12 1 12 13
M  V30 13 2 13 14
M  V30 14 1 14 15
M  V30 15 2 15 16
M  V30 16 2 10 17
M  V30 17 1 17 18
M  V30 18 1 5 19
M  V30 19 2 19 20
M  V30 20 1 20 2
M  V30 21 1 18 8
M  V30 22 1 16 11
M  V30 23 1 3 21
M  V30 24 1 4 22
M  V30 25 1 6 23
M  V30 26 1 7 24
M  V30 27 1 7 25
M  V30 28 1 12 26
M  V30 29 1 13 27
M  V30 30 1 15 28
M  V30 31 1 16 29
M  V30 32 1 18 30
M  V30 33 1 19 31
M  V30 34 1 20 32
M  V30 END BOND
M  V30 END CTAB
M  END
>  <Dataset>  (754) 
ChEMBL_Kinases

>  <Ligand_Instance>  (754) 
nan

>  <PDB_ID>  (754) 
nan

>  <Standardized_SMILES>  (754) 
Clc1ccc(NCc2nc(-c3ccncc3)n[nH]2)cc1

>  <Name>  (754) 
nan

>  <Pocket>  (754) 
nan

>  <ATP_Site>  (754) 
nan

>  <Peripheral>  (754) 
nan

>  <Num_H_Atoms_ProtBoundConf>  (754) 
nan

>  <Num_Resolved_Atoms>  (754) 
nan

>  <Num_Not_Resolved_Atoms>  (754) 
nan

$$$$
CHEMBL3923286
     RDKit          3D

  0  0  0  0  0  0  0  0  0  0999 V3000
M  V30 BEGIN CTAB
M  V30 COUNTS 46 49 0 0 0
M  V30 BEGIN ATOM
M  V30 1 N -0.729260 -5.766850 2.924432 0
M  V30 2 C -0.053057 -4.518436 2.869679 0
M  V30 3 O 0.647765 -4.311541 3.866745 0
M  V30 4 C -0.171956 -3.583950 1.760496 0
M  V30 5 C 0.530315 -2.467979 1.878654 0
M  V30 6 N 1.293716 -2.246972 2.968993 0
M  V30 7 C 1.992759 -1.078975 3.031123 0
M  V30 8 N 1.954265 -0.146521 2.061206 0
M  V30 9 C 1.208445 -0.325282 0.959931 0
M  V30 10 N 1.201297 0.689829 -0.036581 0
M  V30 11 C 2.014389 1.872806 0.222097 0 CFG=1
M  V30 12 C 1.931101 2.838835 -0.967942 0
M  V30 13 C 2.470364 4.168675 -0.541204 0
M  V30 14 C 3.323298 4.109065 0.704759 0
M  V30 15 N 2.620917 3.538668 1.823456 0
M  V30 16 C 1.535881 2.668149 1.409663 0
M  V30 17 C 0.510021 -1.495712 0.901220 0
M  V30 18 C -0.242580 -1.741203 -0.146990 0
M  V30 19 C -1.094501 -2.929422 -0.450851 0
M  V30 20 C -2.558129 -2.490930 -0.570864 0
M  V30 21 C -3.270885 -1.874437 0.519964 0
M  V30 22 C -4.564100 -1.562256 0.199129 0
M  V30 23 C -5.090569 -1.815163 -1.015376 0
M  V30 24 S -3.749924 -2.570627 -1.914451 0
M  V30 25 C -1.053953 -3.971485 0.629239 0
M  V30 26 H -0.656349 -6.766836 2.644785 0
M  V30 27 H -0.554379 -6.748410 2.595551 0
M  V30 28 H 2.613379 -0.875755 3.894677 0
M  V30 29 H 0.678173 0.684455 -0.935492 0
M  V30 30 H 3.095075 1.630368 0.324830 0
M  V30 31 H 2.480477 2.459103 -1.851102 0
M  V30 32 H 0.825058 2.938553 -1.163799 0
M  V30 33 H 3.052161 4.667806 -1.325067 0
M  V30 34 H 1.627733 4.876538 -0.292832 0
M  V30 35 H 4.273593 3.579284 0.499285 0
M  V30 36 H 3.546703 5.176769 0.960565 0
M  V30 37 H 3.299194 2.893657 2.327851 0
M  V30 38 H 0.714646 3.349624 1.040398 0
M  V30 39 H 1.171631 2.074367 2.248557 0
M  V30 40 H -0.321669 -1.038996 -0.962894 0
M  V30 41 H -0.835998 -3.362916 -1.444391 0
M  V30 42 H -2.780943 -1.703530 1.466278 0
M  V30 43 H -5.207607 -1.085440 0.956439 0
M  V30 44 H -6.066169 -1.629367 -1.399259 0
M  V30 45 H -2.060764 -4.227268 1.020369 0
M  V30 46 H -0.661266 -4.926761 0.196623 0
M  V30 END ATOM
M  V30 BEGIN BOND
M  V30 1 1 1 2
M  V30 2 2 2 3
M  V30 3 1 2 4
M  V30 4 2 4 5
M  V30 5 1 5 6
M  V30 6 2 6 7
M  V30 7 1 7 8
M  V30 8 2 8 9
M  V30 9 1 9 10
M  V30 10 1 10 11
M  V30 11 1 11 12
M  V30 12 1 12 13
M  V30 13 1 13 14
M  V30 14 1 14 15
M  V30 15 1 15 16
M  V30 16 1 9 17
M  V30 17 2 17 18
M  V30 18 1 18 19
M  V30 19 1 19 20
M  V30 20 2 20 21
M  V30 21 1 21 22
M  V30 22 2 22 23
M  V30 23 1 23 24
M  V30 24 1 19 25
M  V30 25 1 25 4
M  V30 26 1 17 5
M  V30 27 1 24 20
M  V30 28 1 16 11
M  V30 29 1 1 26
M  V30 30 1 1 27
M  V30 31 1 7 28
M  V30 32 1 10 29
M  V30 33 1 11 30 CFG=1
M  V30 34 1 12 31
M  V30 35 1 12 32
M  V30 36 1 13 33
M  V30 37 1 13 34
M  V30 38 1 14 35
M  V30 39 1 14 36
M  V30 40 1 15 37
M  V30 41 1 16 38
M  V30 42 1 16 39
M  V30 43 1 18 40
M  V30 44 1 19 41
M  V30 45 1 21 42
M  V30 46 1 22 43
M  V30 47 1 23 44
M  V30 48 1 25 45
M  V30 49 1 25 46
M  V30 END BOND
M  V30 END CTAB
M  END
>  <Dataset>  (755) 
ChEMBL_Kinases

>  <Ligand_Instance>  (755) 
nan

>  <PDB_ID>  (755) 
nan

>  <Standardized_SMILES>  (755) 
NC(=O)C1=c2ncnc(N[C@H]3CCCNC3)c2=CC(c2cccs2)C1

>  <Name>  (755) 
nan

>  <Pocket>  (755) 
nan

>  <ATP_Site>  (755) 
nan

>  <Peripheral>  (755) 
nan

>  <Num_H_Atoms_ProtBoundConf>  (755) 
nan

>  <Num_Resolved_Atoms>  (755) 
nan

>  <Num_Not_Resolved_Atoms>  (755) 
nan

$$$$
CHEMBL4062387
     RDKit          3D

  0  0  0  0  0  0  0  0  0  0999 V3000
M  V30 BEGIN CTAB
M  V30 COUNTS 36 38 0 0 0
M  V30 BEGIN ATOM
M  V30 1 C 0.483903 -0.835788 4.202741 0
M  V30 2 C 0.182009 -0.622186 2.773497 0
M  V30 3 C -0.149950 -1.679672 1.956424 0
M  V30 4 C -0.440871 -1.537504 0.606078 0
M  V30 5 N -0.771757 -2.731740 -0.098284 0
M  V30 6 C -0.043048 -3.247118 -1.204320 0
M  V30 7 C 0.915378 -4.161025 -0.745898 0
M  V30 8 C 1.769818 -4.811086 -1.636758 0
M  V30 9 N 1.673732 -4.555693 -2.976610 0
M  V30 10 C 0.735749 -3.665206 -3.393238 0
M  V30 11 N -0.081384 -3.044551 -2.533556 0
M  V30 12 C -0.388660 -0.259274 0.075721 0
M  V30 13 O -0.653673 -0.164978 -1.134975 0
M  V30 14 N -0.066712 0.782163 0.859991 0
M  V30 15 C 0.210762 0.615813 2.166097 0
M  V30 16 C 0.521428 1.908875 2.769069 0
M  V30 17 O 0.832955 2.236010 3.936808 0
M  V30 18 N 0.408735 2.871568 1.721541 0
M  V30 19 C 0.039557 2.197179 0.492076 0
M  V30 20 C 1.034848 2.474086 -0.570973 0
M  V30 21 C -1.364661 2.635512 0.150407 0
M  V30 22 H -0.482629 -1.116384 4.697471 0
M  V30 23 H 1.133060 -1.737133 4.296274 0
M  V30 24 H 0.931252 0.030316 4.683385 0
M  V30 25 H -0.177967 -2.660456 2.419162 0
M  V30 26 H -1.535086 -3.426653 0.015756 0
M  V30 27 H 1.107489 -4.463607 0.284129 0
M  V30 28 H 2.524248 -5.523765 -1.332908 0
M  V30 29 H 0.553945 -3.372902 -4.419349 0
M  V30 30 H 0.548457 3.908634 1.737007 0
M  V30 31 H 1.811642 3.164907 -0.185059 0
M  V30 32 H 0.591896 2.905338 -1.495610 0
M  V30 33 H 1.575011 1.505147 -0.781129 0
M  V30 34 H -1.937140 2.535945 1.118745 0
M  V30 35 H -1.867086 1.999359 -0.584192 0
M  V30 36 H -1.411583 3.718998 -0.074537 0
M  V30 END ATOM
M  V30 BEGIN BOND
M  V30 1 1 1 2
M  V30 2 1 2 3
M  V30 3 2 3 4
M  V30 4 1 4 5
M  V30 5 1 5 6
M  V30 6 2 6 7
M  V30 7 1 7 8
M  V30 8 2 8 9
M  V30 9 1 9 10
M  V30 10 2 10 11
M  V30 11 1 4 12
M  V30 12 2 12 13
M  V30 13 1 12 14
M  V30 14 1 14 15
M  V30 15 1 15 16
M  V30 16 2 16 17
M  V30 17 1 16 18
M  V30 18 1 18 19
M  V30 19 1 19 20
M  V30 20 1 19 21
M  V30 21 2 15 2
M  V30 22 1 11 6
M  V30 23 1 19 14
M  V30 24 1 1 22
M  V30 25 1 1 23
M  V30 26 1 1 24
M  V30 27 1 3 25
M  V30 28 1 5 26
M  V30 29 1 7 27
M  V30 30 1 8 28
M  V30 31 1 10 29
M  V30 32 1 18 30
M  V30 33 1 20 31
M  V30 34 1 20 32
M  V30 35 1 20 33
M  V30 36 1 21 34
M  V30 37 1 21 35
M  V30 38 1 21 36
M  V30 END BOND
M  V30 END CTAB
M  END
>  <Dataset>  (756) 
ChEMBL_Kinases

>  <Ligand_Instance>  (756) 
nan

>  <PDB_ID>  (756) 
nan

>  <Standardized_SMILES>  (756) 
Cc1cc(Nc2ccncn2)c(=O)n2c1C(=O)NC2(C)C

>  <Name>  (756) 
nan

>  <Pocket>  (756) 
nan

>  <ATP_Site>  (756) 
nan

>  <Peripheral>  (756) 
nan

>  <Num_H_Atoms_ProtBoundConf>  (756) 
nan

>  <Num_Resolved_Atoms>  (756) 
nan

>  <Num_Not_Resolved_Atoms>  (756) 
nan

$$$$
CHEMBL4062258
     RDKit          3D

  0  0  0  0  0  0  0  0  0  0999 V3000
M  V30 BEGIN CTAB
M  V30 COUNTS 44 47 0 0 0
M  V30 BEGIN ATOM
M  V30 1 C -0.032525 -6.093974 1.933582 0
M  V30 2 N 0.034276 -5.103194 0.878735 0
M  V30 3 C 0.068130 -3.764754 0.980833 0
M  V30 4 C 0.131077 -3.109890 -0.224233 0
M  V30 5 C 0.184854 -1.711485 -0.603584 0
M  V30 6 C 0.244710 -1.276528 -1.918741 0
M  V30 7 Cl 0.276938 -2.148259 -3.450452 0
M  V30 8 C 0.283400 0.098821 -1.953228 0
M  V30 9 C 0.344229 1.079546 -2.921673 0
M  V30 10 Cl 0.391845 0.580146 -4.597665 0
M  V30 11 C 0.370534 2.433386 -2.667182 0
M  V30 12 C 0.331362 2.781585 -1.333944 0
M  V30 13 C 0.355431 4.191157 -0.978873 0
M  V30 14 N 0.315544 4.569050 0.396794 0
M  V30 15 O 0.410787 5.092833 -1.855821 0
M  V30 16 N 0.272131 1.835766 -0.382716 0
M  V30 17 C 0.246659 0.508862 -0.639060 0
M  V30 18 N 0.187608 -0.603193 0.152796 0
M  V30 19 C 0.138002 -0.505676 1.594454 0
M  V30 20 C -0.185330 0.930769 2.027656 0
M  V30 21 C -0.348184 0.861087 3.552148 0
M  V30 22 C 1.057764 0.662067 4.107963 0
M  V30 23 N 1.973521 0.283589 3.045693 0
M  V30 24 C 1.448847 -0.831632 2.272509 0
M  V30 25 C 0.133274 -4.178191 -1.097654 0
M  V30 26 N 0.076252 -5.345235 -0.442176 0
M  V30 27 H -0.482667 -7.036446 1.565010 0
M  V30 28 H 0.960414 -6.230342 2.417834 0
M  V30 29 H -0.697412 -5.664574 2.739157 0
M  V30 30 H 0.044580 -3.318737 1.940556 0
M  V30 31 H 0.418478 3.173504 -3.454169 0
M  V30 32 H 0.080162 5.546156 0.677941 0
M  V30 33 H 0.078186 5.555269 0.686003 0
M  V30 34 H -0.669663 -1.123989 2.031931 0
M  V30 35 H -1.062925 1.315766 1.515454 0
M  V30 36 H 0.751717 1.520612 1.879320 0
M  V30 37 H -0.766155 1.829115 3.876145 0
M  V30 38 H -1.005207 0.014837 3.843639 0
M  V30 39 H 1.074251 -0.031775 4.957467 0
M  V30 40 H 1.395325 1.651088 4.473414 0
M  V30 41 H 2.873140 -0.046171 3.436208 0
M  V30 42 H 1.310512 -1.650624 3.024931 0
M  V30 43 H 2.213649 -1.149529 1.559810 0
M  V30 44 H 0.170365 -4.261636 -2.169227 0
M  V30 END ATOM
M  V30 BEGIN BOND
M  V30 1 1 1 2
M  V30 2 1 2 3
M  V30 3 2 3 4
M  V30 4 1 4 5
M  V30 5 2 5 6
M  V30 6 1 6 7
M  V30 7 1 6 8
M  V30 8 2 8 9
M  V30 9 1 9 10
M  V30 10 1 9 11
M  V30 11 2 11 12
M  V30 12 1 12 13
M  V30 13 1 13 14
M  V30 14 2 13 15
M  V30 15 1 12 16
M  V30 16 2 16 17
M  V30 17 1 17 18
M  V30 18 1 18 19
M  V30 19 1 19 20
M  V30 20 1 20 21
M  V30 21 1 21 22
M  V30 22 1 22 23
M  V30 23 1 23 24
M  V30 24 1 4 25
M  V30 25 2 25 26
M  V30 26 1 26 2
M  V30 27 1 18 5
M  V30 28 1 24 19
M  V30 29 1 17 8
M  V30 30 1 1 27
M  V30 31 1 1 28
M  V30 32 1 1 29
M  V30 33 1 3 30
M  V30 34 1 11 31
M  V30 35 1 14 32
M  V30 36 1 14 33
M  V30 37 1 19 34
M  V30 38 1 20 35
M  V30 39 1 20 36
M  V30 40 1 21 37
M  V30 41 1 21 38
M  V30 42 1 22 39
M  V30 43 1 22 40
M  V30 44 1 23 41
M  V30 45 1 24 42
M  V30 46 1 24 43
M  V30 47 1 25 44
M  V30 END BOND
M  V30 END CTAB
M  END
>  <Dataset>  (757) 
ChEMBL_Kinases

>  <Ligand_Instance>  (757) 
nan

>  <PDB_ID>  (757) 
nan

>  <Standardized_SMILES>  (757) 
Cn1cc(-c2c(Cl)c3c(Cl)cc(C(N)=O)nc3n2C2CCCNC2)cn1

>  <Name>  (757) 
nan

>  <Pocket>  (757) 
nan

>  <ATP_Site>  (757) 
nan

>  <Peripheral>  (757) 
nan

>  <Num_H_Atoms_ProtBoundConf>  (757) 
nan

>  <Num_Resolved_Atoms>  (757) 
nan

>  <Num_Not_Resolved_Atoms>  (757) 
nan

$$$$
CHEMBL3923825
     RDKit          3D

  0  0  0  0  0  0  0  0  0  0999 V3000
M  V30 BEGIN CTAB
M  V30 COUNTS 29 31 0 0 0
M  V30 BEGIN ATOM
M  V30 1 N -1.058502 -3.045389 3.947311 0
M  V30 2 C 0.328568 -2.765761 4.094635 0
M  V30 3 O 0.849482 -3.294057 5.098525 0
M  V30 4 C 1.042038 -1.931799 3.136746 0
M  V30 5 C 0.373486 -1.392805 2.056634 0
M  V30 6 C 1.084103 -0.607883 1.171012 0
M  V30 7 C 0.463960 0.004512 0.000747 0
M  V30 8 C -0.868654 -0.143435 -0.321433 0
M  V30 9 N -1.112548 0.543929 -1.450444 0
M  V30 10 C -2.205213 0.748657 -2.202926 0
M  V30 11 C -2.269093 1.500702 -3.355354 0
M  V30 12 N -1.095166 2.075331 -3.736985 0
M  V30 13 C 0.028938 1.892090 -3.003856 0
M  V30 14 C 0.039771 1.128296 -1.855477 0
M  V30 15 N 0.972234 0.786646 -0.963287 0
M  V30 16 C 2.444340 -0.365187 1.362616 0
M  V30 17 C 3.055844 -0.933190 2.462894 0
M  V30 18 C 2.404003 -1.726578 3.385183 0
M  V30 19 O 3.034983 -2.290153 4.486781 0
M  V30 20 H -0.920489 -3.782355 3.215532 0
M  V30 21 H -1.979949 -2.749724 4.319313 0
M  V30 22 H -0.676066 -1.579402 1.907794 0
M  V30 23 H -1.616691 -0.710954 0.223326 0
M  V30 24 H -3.116631 0.273280 -1.862836 0
M  V30 25 H -3.191343 1.618087 -3.907482 0
M  V30 26 H 0.976679 2.345618 -3.296405 0
M  V30 27 H 3.037166 0.245476 0.689919 0
M  V30 28 H 4.123992 -0.755293 2.632354 0
M  V30 29 H 3.573654 -3.141057 4.413859 0
M  V30 END ATOM
M  V30 BEGIN BOND
M  V30 1 1 1 2
M  V30 2 2 2 3
M  V30 3 1 2 4
M  V30 4 2 4 5
M  V30 5 1 5 6
M  V30 6 1 6 7
M  V30 7 2 7 8
M  V30 8 1 8 9
M  V30 9 1 9 10
M  V30 10 2 10 11
M  V30 11 1 11 12
M  V30 12 2 12 13
M  V30 13 1 13 14
M  V30 14 2 14 15
M  V30 15 2 6 16
M  V30 16 1 16 17
M  V30 17 2 17 18
M  V30 18 1 18 19
M  V30 19 1 18 4
M  V30 20 1 15 7
M  V30 21 1 14 9
M  V30 22 1 1 20
M  V30 23 1 1 21
M  V30 24 1 5 22
M  V30 25 1 8 23
M  V30 26 1 10 24
M  V30 27 1 11 25
M  V30 28 1 13 26
M  V30 29 1 16 27
M  V30 30 1 17 28
M  V30 31 1 19 29
M  V30 END BOND
M  V30 END CTAB
M  END
>  <Dataset>  (758) 
ChEMBL_Kinases

>  <Ligand_Instance>  (758) 
nan

>  <PDB_ID>  (758) 
nan

>  <Standardized_SMILES>  (758) 
NC(=O)c1cc(-c2cn3ccncc3n2)ccc1O

>  <Name>  (758) 
nan

>  <Pocket>  (758) 
nan

>  <ATP_Site>  (758) 
nan

>  <Peripheral>  (758) 
nan

>  <Num_H_Atoms_ProtBoundConf>  (758) 
nan

>  <Num_Resolved_Atoms>  (758) 
nan

>  <Num_Not_Resolved_Atoms>  (758) 
nan

$$$$
CHEMBL4062209
     RDKit          3D

  0  0  0  0  0  0  0  0  0  0999 V3000
M  V30 BEGIN CTAB
M  V30 COUNTS 35 37 0 0 0
M  V30 BEGIN ATOM
M  V30 1 C -0.801893 -3.401418 3.899684 0
M  V30 2 C -0.569416 -4.394842 2.825473 0
M  V30 3 N -0.775805 -5.737476 2.966172 0
M  V30 4 N -0.473287 -6.310563 1.831069 0
M  V30 5 C -0.077833 -5.365816 0.966454 0
M  V30 6 C -0.120033 -4.101024 1.557911 0
M  V30 7 C 0.214506 -2.864214 0.986728 0
M  V30 8 C 0.246705 -1.573654 1.361124 0
M  V30 9 C 0.648903 -0.613355 0.481579 0
M  V30 10 N 0.764588 0.720001 0.616066 0
M  V30 11 C 1.178128 1.525646 -0.354861 0
M  V30 12 C 1.240533 2.991891 -0.008394 0
M  V30 13 N 0.038257 3.682768 -0.279936 0
M  V30 14 C -0.428784 3.696067 -1.617488 0
M  V30 15 C -0.960972 3.609154 0.747397 0
M  V30 16 N 1.534344 1.131377 -1.590068 0
M  V30 17 C 1.454363 -0.189049 -1.829130 0
M  V30 18 O 1.739292 -0.737482 -2.902561 0
M  V30 19 C 1.023285 -1.008590 -0.809597 0
M  V30 20 S 0.791827 -2.808859 -0.760689 0
M  V30 21 H 0.161128 -2.884656 4.143236 0
M  V30 22 H -1.185198 -3.914477 4.828126 0
M  V30 23 H -1.541948 -2.632310 3.667679 0
M  V30 24 H -0.540006 -7.336197 1.660284 0
M  V30 25 H 0.222509 -5.622037 -0.046155 0
M  V30 26 H -0.052485 -1.327630 2.367448 0
M  V30 27 H 1.515590 3.165050 1.043660 0
M  V30 28 H 2.049905 3.429703 -0.627753 0
M  V30 29 H -0.885964 2.754814 -1.972513 0
M  V30 30 H 0.410948 4.010892 -2.268389 0
M  V30 31 H -1.183076 4.515594 -1.702070 0
M  V30 32 H -1.381030 2.621573 0.938751 0
M  V30 33 H -0.461419 3.977915 1.691116 0
M  V30 34 H -1.752570 4.360947 0.548834 0
M  V30 35 H 1.851071 1.758805 -2.329896 0
M  V30 END ATOM
M  V30 BEGIN BOND
M  V30 1 1 1 2
M  V30 2 2 2 3
M  V30 3 1 3 4
M  V30 4 1 4 5
M  V30 5 2 5 6
M  V30 6 1 6 7
M  V30 7 2 7 8
M  V30 8 1 8 9
M  V30 9 1 9 10
M  V30 10 2 10 11
M  V30 11 1 11 12
M  V30 12 1 12 13
M  V30 13 1 13 14
M  V30 14 1 13 15
M  V30 15 1 11 16
M  V30 16 1 16 17
M  V30 17 2 17 18
M  V30 18 1 17 19
M  V30 19 1 19 20
M  V30 20 1 6 2
M  V30 21 1 20 7
M  V30 22 2 19 9
M  V30 23 1 1 21
M  V30 24 1 1 22
M  V30 25 1 1 23
M  V30 26 1 4 24
M  V30 27 1 5 25
M  V30 28 1 8 26
M  V30 29 1 12 27
M  V30 30 1 12 28
M  V30 31 1 14 29
M  V30 32 1 14 30
M  V30 33 1 14 31
M  V30 34 1 15 32
M  V30 35 1 15 33
M  V30 36 1 15 34
M  V30 37 1 16 35
M  V30 END BOND
M  V30 END CTAB
M  END
>  <Dataset>  (759) 
ChEMBL_Kinases

>  <Ligand_Instance>  (759) 
nan

>  <PDB_ID>  (759) 
nan

>  <Standardized_SMILES>  (759) 
Cc1n[nH]cc1-c1cc2nc(CN(C)C)[nH]c(=O)c2s1

>  <Name>  (759) 
nan

>  <Pocket>  (759) 
nan

>  <ATP_Site>  (759) 
nan

>  <Peripheral>  (759) 
nan

>  <Num_H_Atoms_ProtBoundConf>  (759) 
nan

>  <Num_Resolved_Atoms>  (759) 
nan

>  <Num_Not_Resolved_Atoms>  (759) 
nan

$$$$
CHEMBL4060836
     RDKit          3D

  0  0  0  0  0  0  0  0  0  0999 V3000
M  V30 BEGIN CTAB
M  V30 COUNTS 32 34 0 0 0
M  V30 BEGIN ATOM
M  V30 1 Cl -1.700606 -1.676299 3.714866 0
M  V30 2 C -0.088515 -2.389334 3.675867 0
M  V30 3 C 0.424303 -2.375907 4.979466 0
M  V30 4 C 1.688391 -2.903481 5.119613 0
M  V30 5 C 2.402640 -3.408306 4.066476 0
M  V30 6 C 1.917183 -3.428086 2.794315 0
M  V30 7 C 0.666818 -2.914443 2.608546 0
M  V30 8 N -0.211932 -2.728844 1.525696 0
M  V30 9 C -1.086729 -2.544351 0.446195 0
M  V30 10 C -0.559389 -1.571423 -0.575364 0
M  V30 11 N -0.803551 -0.252012 -0.528298 0
M  V30 12 C -0.232237 0.416172 -1.537047 0
M  V30 13 C -0.333830 1.852163 -1.731903 0
M  V30 14 C 0.273950 2.527919 -2.796992 0
M  V30 15 C 0.074827 3.891306 -2.834475 0
M  V30 16 N -0.631093 4.644809 -1.972736 0
M  V30 17 C -1.229264 3.993698 -0.928003 0
M  V30 18 C -1.052617 2.638041 -0.859155 0
M  V30 19 N 0.392511 -0.539441 -2.236100 0
M  V30 20 N 0.218366 -1.732764 -1.692054 0
M  V30 21 H 0.023459 -2.028594 5.913325 0
M  V30 22 H 2.237302 -2.975425 6.036064 0
M  V30 23 H 3.413501 -3.840535 4.130844 0
M  V30 24 H 2.348953 -3.784667 1.880420 0
M  V30 25 H 0.463437 -3.149502 0.801810 0
M  V30 26 H -2.061400 -2.049020 0.814734 0
M  V30 27 H -1.421971 -3.460623 -0.089814 0
M  V30 28 H 0.848381 1.975160 -3.511418 0
M  V30 29 H 0.524292 4.475175 -3.644293 0
M  V30 30 H -1.814299 4.530906 -0.192986 0
M  V30 31 H -1.545564 2.147581 -0.009956 0
M  V30 32 H 0.552569 -2.684168 -1.960268 0
M  V30 END ATOM
M  V30 BEGIN BOND
M  V30 1 1 1 2
M  V30 2 2 2 3
M  V30 3 1 3 4
M  V30 4 2 4 5
M  V30 5 1 5 6
M  V30 6 2 6 7
M  V30 7 1 7 8
M  V30 8 1 8 9
M  V30 9 1 9 10
M  V30 10 2 10 11
M  V30 11 1 11 12
M  V30 12 1 12 13
M  V30 13 2 13 14
M  V30 14 1 14 15
M  V30 15 2 15 16
M  V30 16 1 16 17
M  V30 17 2 17 18
M  V30 18 2 12 19
M  V30 19 1 19 20
M  V30 20 1 7 2
M  V30 21 1 20 10
M  V30 22 1 18 13
M  V30 23 1 3 21
M  V30 24 1 4 22
M  V30 25 1 5 23
M  V30 26 1 6 24
M  V30 27 1 8 25
M  V30 28 1 9 26
M  V30 29 1 9 27
M  V30 30 1 14 28
M  V30 31 1 15 29
M  V30 32 1 17 30
M  V30 33 1 18 31
M  V30 34 1 20 32
M  V30 END BOND
M  V30 END CTAB
M  END
>  <Dataset>  (760) 
ChEMBL_Kinases

>  <Ligand_Instance>  (760) 
nan

>  <PDB_ID>  (760) 
nan

>  <Standardized_SMILES>  (760) 
Clc1ccccc1NCc1nc(-c2ccncc2)n[nH]1

>  <Name>  (760) 
nan

>  <Pocket>  (760) 
nan

>  <ATP_Site>  (760) 
nan

>  <Peripheral>  (760) 
nan

>  <Num_H_Atoms_ProtBoundConf>  (760) 
nan

>  <Num_Resolved_Atoms>  (760) 
nan

>  <Num_Not_Resolved_Atoms>  (760) 
nan

$$$$
CHEMBL4062023
     RDKit          3D

  0  0  0  0  0  0  0  0  0  0999 V3000
M  V30 BEGIN CTAB
M  V30 COUNTS 66 70 0 0 0
M  V30 BEGIN ATOM
M  V30 1 C 2.263485 -6.567337 2.251034 0
M  V30 2 C 3.150932 -6.868004 1.342270 0
M  V30 3 C 3.484751 -5.659398 0.612213 0
M  V30 4 O 2.865631 -4.651212 1.013349 0
M  V30 5 N 4.402982 -5.543246 -0.455790 0
M  V30 6 C 4.786617 -4.416566 -1.215883 0
M  V30 7 C 5.705337 -4.636228 -2.211940 0
M  V30 8 C 6.123379 -3.575800 -2.984119 0
M  V30 9 C 5.666478 -2.284406 -2.813493 0
M  V30 10 C 4.744741 -2.066802 -1.813204 0
M  V30 11 C 4.300382 -0.695522 -1.673161 0
M  V30 12 O 4.757486 0.198323 -2.443224 0
M  V30 13 N 3.381032 -0.268960 -0.728766 0
M  V30 14 C 2.609058 0.728143 -0.105918 0
M  V30 15 C 3.097779 1.399814 0.990637 0
M  V30 16 C 2.339636 2.390881 1.630735 0
M  V30 17 C 1.101317 2.617780 1.074090 0
M  V30 18 N 0.334361 3.620184 1.740646 0
M  V30 19 C -1.044752 3.415951 2.061875 0
M  V30 20 C -1.696565 2.206211 1.918440 0
M  V30 21 C -3.040202 1.943689 2.184325 0
M  V30 22 C -3.488968 0.562519 1.924544 0
M  V30 23 N -2.941547 -0.530674 2.495214 0
M  V30 24 C -3.517429 -1.668762 2.069525 0
M  V30 25 S -3.088313 -3.331332 2.568844 0
M  V30 26 C -1.793024 -4.043060 1.517096 0
M  V30 27 N -4.481635 -1.288955 1.183874 0
M  V30 28 C -4.467017 0.058362 1.094749 0
M  V30 29 C -5.309905 0.944536 0.283004 0
M  V30 30 C -4.679666 1.721924 -0.654780 0
M  V30 31 C -5.508024 2.547146 -1.400538 0
M  V30 32 C -6.866845 2.588756 -1.218557 0
M  V30 33 F -7.713067 3.368333 -1.912436 0
M  V30 34 C -7.431207 1.787288 -0.266690 0
M  V30 35 C -6.673298 0.954880 0.498821 0
M  V30 36 C -3.788305 3.008930 2.639106 0
M  V30 37 C -3.129597 4.211386 2.780817 0
M  V30 38 N -1.828902 4.411070 2.508679 0
M  V30 39 C 0.570421 1.972985 -0.022755 0
M  V30 40 C 1.346007 0.996713 -0.633527 0
M  V30 41 C 4.333866 -3.131332 -1.048321 0
M  V30 42 H 1.789982 -5.628032 2.506253 0
M  V30 43 H 1.528386 -6.365381 3.017430 0
M  V30 44 H 3.448359 -7.905957 1.315123 0
M  V30 45 H 4.809741 -6.485745 -0.637901 0
M  V30 46 H 6.121091 -5.622017 -2.419623 0
M  V30 47 H 6.847718 -3.770038 -3.760259 0
M  V30 48 H 6.029102 -1.501341 -3.447303 0
M  V30 49 H 3.025248 -1.052444 -0.100144 0
M  V30 50 H 4.087416 1.144318 1.350291 0
M  V30 51 H 2.712249 2.925583 2.491361 0
M  V30 52 H 0.748197 4.531257 2.018172 0
M  V30 53 H -1.112848 1.348774 1.584667 0
M  V30 54 H -2.148731 -0.535609 3.201401 0
M  V30 55 H -1.829294 -3.699603 0.484263 0
M  V30 56 H -1.870505 -5.147394 1.645595 0
M  V30 57 H -0.789586 -3.741229 1.908261 0
M  V30 58 H -3.613943 1.725056 -0.836092 0
M  V30 59 H -5.064138 3.181946 -2.153748 0
M  V30 60 H -8.509793 1.765809 -0.064837 0
M  V30 61 H -7.052476 0.302137 1.261816 0
M  V30 62 H -4.814799 2.790960 2.838747 0
M  V30 63 H -3.800666 4.999848 3.147026 0
M  V30 64 H -0.400046 2.182283 -0.449833 0
M  V30 65 H 0.923959 0.495034 -1.491737 0
M  V30 66 H 3.614745 -2.940723 -0.272475 0
M  V30 END ATOM
M  V30 BEGIN BOND
M  V30 1 2 1 2
M  V30 2 1 2 3
M  V30 3 2 3 4
M  V30 4 1 3 5
M  V30 5 1 5 6
M  V30 6 2 6 7
M  V30 7 1 7 8
M  V30 8 2 8 9
M  V30 9 1 9 10
M  V30 10 1 10 11
M  V30 11 2 11 12
M  V30 12 1 11 13
M  V30 13 1 13 14
M  V30 14 2 14 15
M  V30 15 1 15 16
M  V30 16 2 16 17
M  V30 17 1 17 18
M  V30 18 1 18 19
M  V30 19 2 19 20
M  V30 20 1 20 21
M  V30 21 1 21 22
M  V30 22 1 22 23
M  V30 23 1 23 24
M  V30 24 1 24 25
M  V30 25 1 25 26
M  V30 26 2 24 27
M  V30 27 1 27 28
M  V30 28 1 28 29
M  V30 29 2 29 30
M  V30 30 1 30 31
M  V30 31 2 31 32
M  V30 32 1 32 33
M  V30 33 1 32 34
M  V30 34 2 34 35
M  V30 35 2 21 36
M  V30 36 1 36 37
M  V30 37 2 37 38
M  V30 38 1 17 39
M  V30 39 2 39 40
M  V30 40 2 10 41
M  V30 41 1 41 6
M  V30 42 1 40 14
M  V30 43 1 38 19
M  V30 44 2 28 22
M  V30 45 1 35 29
M  V30 46 1 1 42
M  V30 47 1 1 43
M  V30 48 1 2 44
M  V30 49 1 5 45
M  V30 50 1 7 46
M  V30 51 1 8 47
M  V30 52 1 9 48
M  V30 53 1 13 49
M  V30 54 1 15 50
M  V30 55 1 16 51
M  V30 56 1 18 52
M  V30 57 1 20 53
M  V30 58 1 23 54
M  V30 59 1 26 55
M  V30 60 1 26 56
M  V30 61 1 26 57
M  V30 62 1 30 58
M  V30 63 1 31 59
M  V30 64 1 34 60
M  V30 65 1 35 61
M  V30 66 1 36 62
M  V30 67 1 37 63
M  V30 68 1 39 64
M  V30 69 1 40 65
M  V30 70 1 41 66
M  V30 END BOND
M  V30 END CTAB
M  END
>  <Dataset>  (761) 
ChEMBL_Kinases

>  <Ligand_Instance>  (761) 
nan

>  <PDB_ID>  (761) 
nan

>  <Standardized_SMILES>  (761) 
C=CC(=O)Nc1cccc(C(=O)Nc2ccc(Nc3cc(-c4[nH]c(SC)nc4-c4ccc(F)cc4)ccn3)cc2)c1

>  <Name>  (761) 
nan

>  <Pocket>  (761) 
nan

>  <ATP_Site>  (761) 
nan

>  <Peripheral>  (761) 
nan

>  <Num_H_Atoms_ProtBoundConf>  (761) 
nan

>  <Num_Resolved_Atoms>  (761) 
nan

>  <Num_Not_Resolved_Atoms>  (761) 
nan

$$$$
CHEMBL3926951
     RDKit          3D

  0  0  0  0  0  0  0  0  0  0999 V3000
M  V30 BEGIN CTAB
M  V30 COUNTS 68 72 0 0 0
M  V30 BEGIN ATOM
M  V30 1 C 4.028438 -5.554333 6.418735 0
M  V30 2 C 5.086343 -4.788995 6.461987 0
M  V30 3 C 5.170079 -3.410241 6.017100 0
M  V30 4 O 6.277092 -2.877930 6.154461 0
M  V30 5 N 3.973939 -2.882676 5.492939 0
M  V30 6 C 3.822732 -1.558574 4.997656 0
M  V30 7 C 4.099865 -1.455032 3.641108 0
M  V30 8 C 3.981032 -0.192234 3.060903 0
M  V30 9 C 3.603977 0.962883 3.755265 0
M  V30 10 N 3.510118 2.205921 3.076279 0
M  V30 11 S 2.259895 3.384425 3.187934 0
M  V30 12 O 2.613949 4.529781 2.289917 0
M  V30 13 O 2.145072 3.936459 4.589881 0
M  V30 14 C 0.737555 2.702796 2.662356 0
M  V30 15 C -0.059166 2.132154 3.642260 0
M  V30 16 C -1.270985 1.574442 3.293465 0
M  V30 17 C -1.756594 1.548254 1.984174 0
M  V30 18 N -3.009021 0.975895 1.622614 0
M  V30 19 C -3.339108 0.987232 0.240147 0
M  V30 20 N -3.988487 1.923042 -0.515881 0
M  V30 21 C -4.190119 1.711050 -1.833587 0
M  V30 22 C -3.757786 0.560885 -2.465684 0
M  V30 23 C -3.097807 -0.383673 -1.681165 0
M  V30 24 N -2.906998 -0.144202 -0.351005 0
M  V30 25 N -2.563253 -1.648768 -2.115993 0
M  V30 26 C -2.357099 -2.587028 -1.048102 0
M  V30 27 C -2.218101 -2.084245 -3.437419 0
M  V30 28 C -1.325286 -3.131770 -3.343532 0
M  V30 29 C -0.919963 -3.634109 -4.553759 0
M  V30 30 C -1.357746 -3.146335 -5.789930 0
M  V30 31 C -0.848439 -3.768272 -7.030844 0
M  V30 32 C -2.264288 -2.081105 -5.784160 0
M  V30 33 C -2.710888 -1.530216 -4.599693 0
M  V30 34 C -3.647614 -0.433096 -4.806096 0
M  V30 35 O -4.136190 -0.338180 -5.963545 0
M  V30 36 N -4.070087 0.537525 -3.853847 0
M  V30 37 C -4.905422 1.624298 -4.328683 0
M  V30 38 C -0.903302 2.135093 1.077474 0
M  V30 39 C 0.314302 2.705145 1.371062 0
M  V30 40 C 3.342621 0.792744 5.098326 0
M  V30 41 C 3.444125 -0.431461 5.723062 0
M  V30 42 H 3.652518 -6.544110 6.647262 0
M  V30 43 H 3.105443 -6.094046 6.337538 0
M  V30 44 H 5.799824 -5.453522 6.892315 0
M  V30 45 H 3.087604 -3.422039 5.422241 0
M  V30 46 H 4.397458 -2.280845 3.011359 0
M  V30 47 H 4.185653 -0.038884 1.992160 0
M  V30 48 H 4.352316 2.351296 2.443088 0
M  V30 49 H 0.258727 2.117080 4.688672 0
M  V30 50 H -1.884217 1.130629 4.077820 0
M  V30 51 H -3.572519 0.597615 2.418178 0
M  V30 52 H -4.704459 2.476140 -2.375912 0
M  V30 53 H -1.337236 -2.565028 -0.617560 0
M  V30 54 H -2.701923 -3.616583 -1.301117 0
M  V30 55 H -3.015586 -2.315107 -0.171420 0
M  V30 56 H -0.982853 -3.513422 -2.392940 0
M  V30 57 H -0.214480 -4.463096 -4.564771 0
M  V30 58 H -1.475287 -4.567715 -7.440644 0
M  V30 59 H -0.715300 -2.998553 -7.818642 0
M  V30 60 H 0.143032 -4.214393 -6.794047 0
M  V30 61 H -2.617454 -1.686835 -6.732118 0
M  V30 62 H -4.373863 2.597811 -4.385345 0
M  V30 63 H -5.886176 1.663863 -3.826705 0
M  V30 64 H -5.165881 1.415857 -5.409379 0
M  V30 65 H -1.187208 2.169966 0.014210 0
M  V30 66 H 0.934645 3.150333 0.606283 0
M  V30 67 H 3.044424 1.659194 5.687270 0
M  V30 68 H 3.248191 -0.604019 6.770794 0
M  V30 END ATOM
M  V30 BEGIN BOND
M  V30 1 2 1 2
M  V30 2 1 2 3
M  V30 3 2 3 4
M  V30 4 1 3 5
M  V30 5 1 5 6
M  V30 6 2 6 7
M  V30 7 1 7 8
M  V30 8 2 8 9
M  V30 9 1 9 10
M  V30 10 1 10 11
M  V30 11 2 11 12
M  V30 12 2 11 13
M  V30 13 1 11 14
M  V30 14 2 14 15
M  V30 15 1 15 16
M  V30 16 2 16 17
M  V30 17 1 17 18
M  V30 18 1 18 19
M  V30 19 2 19 20
M  V30 20 1 20 21
M  V30 21 2 21 22
M  V30 22 1 22 23
M  V30 23 2 23 24
M  V30 24 1 23 25
M  V30 25 1 25 26
M  V30 26 1 25 27
M  V30 27 2 27 28
M  V30 28 1 28 29
M  V30 29 2 29 30
M  V30 30 1 30 31
M  V30 31 1 30 32
M  V30 32 2 32 33
M  V30 33 1 33 34
M  V30 34 2 34 35
M  V30 35 1 34 36
M  V30 36 1 36 37
M  V30 37 1 17 38
M  V30 38 2 38 39
M  V30 39 1 9 40
M  V30 40 2 40 41
M  V30 41 1 41 6
M  V30 42 1 39 14
M  V30 43 1 24 19
M  V30 44 1 33 27
M  V30 45 1 36 22
M  V30 46 1 1 42
M  V30 47 1 1 43
M  V30 48 1 2 44
M  V30 49 1 5 45
M  V30 50 1 7 46
M  V30 51 1 8 47
M  V30 52 1 10 48
M  V30 53 1 15 49
M  V30 54 1 16 50
M  V30 55 1 18 51
M  V30 56 1 21 52
M  V30 57 1 26 53
M  V30 58 1 26 54
M  V30 59 1 26 55
M  V30 60 1 28 56
M  V30 61 1 29 57
M  V30 62 1 31 58
M  V30 63 1 31 59
M  V30 64 1 31 60
M  V30 65 1 32 61
M  V30 66 1 37 62
M  V30 67 1 37 63
M  V30 68 1 37 64
M  V30 69 1 38 65
M  V30 70 1 39 66
M  V30 71 1 40 67
M  V30 72 1 41 68
M  V30 END BOND
M  V30 END CTAB
M  END
>  <Dataset>  (762) 
ChEMBL_Kinases

>  <Ligand_Instance>  (762) 
nan

>  <PDB_ID>  (762) 
nan

>  <Standardized_SMILES>  (762) 
C=CC(=O)Nc1ccc(NS(=O)(=O)c2ccc(Nc3ncc4c(n3)N(C)c3ccc(C)cc3C(=O)N4C)cc2)cc1

>  <Name>  (762) 
nan

>  <Pocket>  (762) 
nan

>  <ATP_Site>  (762) 
nan

>  <Peripheral>  (762) 
nan

>  <Num_H_Atoms_ProtBoundConf>  (762) 
nan

>  <Num_Resolved_Atoms>  (762) 
nan

>  <Num_Not_Resolved_Atoms>  (762) 
nan

$$$$
CHEMBL3927122
     RDKit          3D

  0  0  0  0  0  0  0  0  0  0999 V3000
M  V30 BEGIN CTAB
M  V30 COUNTS 42 45 0 0 0
M  V30 BEGIN ATOM
M  V30 1 C 0.609007 -8.119698 -3.060645 0
M  V30 2 O 0.180683 -6.778650 -2.879114 0
M  V30 3 C 0.664245 -5.961004 -1.867527 0
M  V30 4 C 1.603607 -6.491788 -1.007959 0
M  V30 5 C 2.037440 -5.606964 -0.021137 0
M  V30 6 C 1.549457 -4.323915 0.057876 0
M  V30 7 C 0.610368 -3.817811 -0.814236 0
M  V30 8 C 0.075054 -2.477382 -0.761333 0
M  V30 9 C 0.425957 -1.582721 0.139537 0
M  V30 10 C -0.152075 -0.240655 0.140621 0
M  V30 11 N -1.073626 0.201001 -0.762522 0
M  V30 12 N -1.393739 1.465405 -0.482198 0
M  V30 13 C -0.674778 1.845269 0.609785 0
M  V30 14 C -0.611188 3.027614 1.322264 0
M  V30 15 C 0.235208 3.113634 2.416308 0
M  V30 16 C 0.252305 4.393768 3.120898 0
M  V30 17 C 0.495375 4.418808 4.486133 0
M  V30 18 C 0.531708 5.590969 5.237142 0
M  V30 19 N 0.319546 6.756473 4.601383 0
M  V30 20 C 0.083561 6.740774 3.280154 0
M  V30 21 C 0.039738 5.601260 2.502580 0
M  V30 22 C 1.025014 2.056596 2.827648 0
M  V30 23 C 0.970622 0.869595 2.124075 0
M  V30 24 C 0.119446 0.782888 1.023711 0
M  V30 25 C 0.156671 -4.684002 -1.815317 0
M  V30 26 H -0.087723 -8.622310 -3.764584 0
M  V30 27 H 1.622243 -8.205446 -3.480261 0
M  V30 28 H 0.568917 -8.697529 -2.098989 0
M  V30 29 H 1.927979 -7.510904 -1.147648 0
M  V30 30 H 2.780106 -5.998343 0.672845 0
M  V30 31 H 1.932313 -3.695423 0.849160 0
M  V30 32 H -0.645187 -2.148550 -1.468257 0
M  V30 33 H 1.153252 -1.827091 0.899518 0
M  V30 34 H -2.069093 2.084490 -0.986102 0
M  V30 35 H -1.246577 3.831571 0.965708 0
M  V30 36 H 0.664167 3.452109 4.974041 0
M  V30 37 H 0.724195 5.573966 6.303148 0
M  V30 38 H -0.079285 7.712555 2.824049 0
M  V30 39 H -0.149168 5.602449 1.449613 0
M  V30 40 H 1.681317 2.151380 3.691123 0
M  V30 41 H 1.587165 0.028766 2.436349 0
M  V30 42 H -0.579338 -4.303701 -2.506128 0
M  V30 END ATOM
M  V30 BEGIN BOND
M  V30 1 1 1 2
M  V30 2 1 2 3
M  V30 3 2 3 4
M  V30 4 1 4 5
M  V30 5 2 5 6
M  V30 6 1 6 7
M  V30 7 1 7 8
M  V30 8 2 8 9
M  V30 9 1 9 10
M  V30 10 2 10 11
M  V30 11 1 11 12
M  V30 12 1 12 13
M  V30 13 2 13 14
M  V30 14 1 14 15
M  V30 15 1 15 16
M  V30 16 2 16 17
M  V30 17 1 17 18
M  V30 18 2 18 19
M  V30 19 1 19 20
M  V30 20 2 20 21
M  V30 21 2 15 22
M  V30 22 1 22 23
M  V30 23 2 23 24
M  V30 24 2 7 25
M  V30 25 1 25 3
M  V30 26 1 24 10
M  V30 27 1 24 13
M  V30 28 1 21 16
M  V30 29 1 1 26
M  V30 30 1 1 27
M  V30 31 1 1 28
M  V30 32 1 4 29
M  V30 33 1 5 30
M  V30 34 1 6 31
M  V30 35 1 8 32
M  V30 36 1 9 33
M  V30 37 1 12 34
M  V30 38 1 14 35
M  V30 39 1 17 36
M  V30 40 1 18 37
M  V30 41 1 20 38
M  V30 42 1 21 39
M  V30 43 1 22 40
M  V30 44 1 23 41
M  V30 45 1 25 42
M  V30 END BOND
M  V30 END CTAB
M  END
>  <Dataset>  (763) 
ChEMBL_Kinases

>  <Ligand_Instance>  (763) 
nan

>  <PDB_ID>  (763) 
nan

>  <Standardized_SMILES>  (763) 
COc1cccc(/C=C/c2n[nH]c3cc(-c4ccncc4)ccc23)c1

>  <Name>  (763) 
nan

>  <Pocket>  (763) 
nan

>  <ATP_Site>  (763) 
nan

>  <Peripheral>  (763) 
nan

>  <Num_H_Atoms_ProtBoundConf>  (763) 
nan

>  <Num_Resolved_Atoms>  (763) 
nan

>  <Num_Not_Resolved_Atoms>  (763) 
nan

$$$$
CHEMBL3927716
     RDKit          3D

  0  0  0  0  0  0  0  0  0  0999 V3000
M  V30 BEGIN CTAB
M  V30 COUNTS 50 53 0 0 0
M  V30 BEGIN ATOM
M  V30 1 C -2.098554 -3.055642 -2.528147 0
M  V30 2 C -1.427722 -1.819173 -2.008912 0
M  V30 3 N -1.381257 -0.787807 -2.870112 0
M  V30 4 C -0.805566 0.344422 -2.459279 0
M  V30 5 C -0.791494 1.353667 -3.398630 0
M  V30 6 C -0.213122 2.566674 -3.072919 0
M  V30 7 C 0.330681 2.724317 -1.816083 0
M  V30 8 F 0.864812 3.948777 -1.613192 0
M  V30 9 C 0.344714 1.752162 -0.839069 0
M  V30 10 C 0.935653 1.955478 0.473872 0
M  V30 11 C 1.588800 3.087219 0.905406 0
M  V30 12 C 2.028722 2.931708 2.198240 0
M  V30 13 C 1.634664 1.664230 2.577408 0
M  V30 14 N 0.995956 1.137594 1.521184 0
M  V30 15 C 1.943505 1.161563 3.931792 0
M  V30 16 C 2.199558 2.262996 4.915404 0
M  V30 17 N 3.069814 3.283519 4.446766 0
M  V30 18 C 2.772141 3.785777 3.150321 0
M  V30 19 O 3.125758 4.956514 2.773705 0
M  V30 20 C -0.246795 0.574057 -1.232994 0
M  V30 21 N -0.310367 -0.453528 -0.420409 0
M  V30 22 C -0.866455 -1.622363 -0.747464 0
M  V30 23 N -0.976893 -2.816327 0.033791 0
M  V30 24 C -1.084992 -3.985096 0.798582 0
M  V30 25 C -1.686463 -5.157467 0.005426 0
M  V30 26 C -1.934991 -3.798106 2.044178 0
M  V30 27 C 0.273076 -4.535447 1.258622 0
M  V30 28 O 1.045123 -4.828364 0.131630 0
M  V30 29 H -2.660237 -2.795386 -3.476050 0
M  V30 30 H -2.905345 -3.385699 -1.836031 0
M  V30 31 H -1.339240 -3.832845 -2.727210 0
M  V30 32 H -1.221237 1.232987 -4.394995 0
M  V30 33 H -0.212340 3.345356 -3.823180 0
M  V30 34 H 1.795614 4.022831 0.408626 0
M  V30 35 H 0.614526 0.176347 1.599304 0
M  V30 36 H 1.107051 0.496795 4.247871 0
M  V30 37 H 2.849555 0.529925 3.854581 0
M  V30 38 H 2.608384 1.876247 5.868282 0
M  V30 39 H 1.211135 2.742895 5.127646 0
M  V30 40 H 3.885937 3.684161 4.958678 0
M  V30 41 H -0.516801 -2.430774 0.903938 0
M  V30 42 H -1.512837 -6.053354 0.663998 0
M  V30 43 H -1.100479 -5.322637 -0.903158 0
M  V30 44 H -2.770827 -5.066343 -0.114994 0
M  V30 45 H -1.878873 -4.680082 2.708060 0
M  V30 46 H -1.672985 -2.885112 2.591409 0
M  V30 47 H -3.000062 -3.698579 1.726073 0
M  V30 48 H 0.756978 -3.801442 1.913689 0
M  V30 49 H 0.048418 -5.459271 1.823919 0
M  V30 50 H 1.486880 -3.968813 -0.110307 0
M  V30 END ATOM
M  V30 BEGIN BOND
M  V30 1 1 1 2
M  V30 2 2 2 3
M  V30 3 1 3 4
M  V30 4 2 4 5
M  V30 5 1 5 6
M  V30 6 2 6 7
M  V30 7 1 7 8
M  V30 8 1 7 9
M  V30 9 1 9 10
M  V30 10 2 10 11
M  V30 11 1 11 12
M  V30 12 2 12 13
M  V30 13 1 13 14
M  V30 14 1 13 15
M  V30 15 1 15 16
M  V30 16 1 16 17
M  V30 17 1 17 18
M  V30 18 2 18 19
M  V30 19 2 9 20
M  V30 20 1 20 21
M  V30 21 2 21 22
M  V30 22 1 22 23
M  V30 23 1 23 24
M  V30 24 1 24 25
M  V30 25 1 24 26
M  V30 26 1 24 27
M  V30 27 1 27 28
M  V30 28 1 22 2
M  V30 29 1 20 4
M  V30 30 1 14 10
M  V30 31 1 18 12
M  V30 32 1 1 29
M  V30 33 1 1 30
M  V30 34 1 1 31
M  V30 35 1 5 32
M  V30 36 1 6 33
M  V30 37 1 11 34
M  V30 38 1 14 35
M  V30 39 1 15 36
M  V30 40 1 15 37
M  V30 41 1 16 38
M  V30 42 1 16 39
M  V30 43 1 17 40
M  V30 44 1 23 41
M  V30 45 1 25 42
M  V30 46 1 25 43
M  V30 47 1 25 44
M  V30 48 1 26 45
M  V30 49 1 26 46
M  V30 50 1 26 47
M  V30 51 1 27 48
M  V30 52 1 27 49
M  V30 53 1 28 50
M  V30 END BOND
M  V30 END CTAB
M  END
>  <Dataset>  (764) 
ChEMBL_Kinases

>  <Ligand_Instance>  (764) 
nan

>  <PDB_ID>  (764) 
nan

>  <Standardized_SMILES>  (764) 
Cc1nc2ccc(F)c(-c3cc4c([nH]3)CCNC4=O)c2nc1NC(C)(C)CO

>  <Name>  (764) 
nan

>  <Pocket>  (764) 
nan

>  <ATP_Site>  (764) 
nan

>  <Peripheral>  (764) 
nan

>  <Num_H_Atoms_ProtBoundConf>  (764) 
nan

>  <Num_Resolved_Atoms>  (764) 
nan

>  <Num_Not_Resolved_Atoms>  (764) 
nan

$$$$
CHEMBL3930293
     RDKit          3D

  0  0  0  0  0  0  0  0  0  0999 V3000
M  V30 BEGIN CTAB
M  V30 COUNTS 41 45 0 0 0
M  V30 BEGIN ATOM
M  V30 1 C -0.374037 -2.282833 1.999414 0
M  V30 2 C 0.846867 -1.875811 2.176274 0
M  V30 3 C 1.733410 -0.849647 1.691990 0
M  V30 4 N 3.013276 -0.752792 2.161357 0
M  V30 5 N 3.627066 0.246969 1.580987 0
M  V30 6 C 2.843181 0.889395 0.700577 0
M  V30 7 C 3.016267 1.970524 -0.139007 0
M  V30 8 C 1.949237 2.357080 -0.925922 0
M  V30 9 C 2.156259 3.504295 -1.806665 0
M  V30 10 C 1.103945 4.348871 -2.124955 0
M  V30 11 C 1.234224 5.446685 -2.948992 0
M  V30 12 N 2.455061 5.704463 -3.468451 0
M  V30 13 C 3.475493 4.893854 -3.165819 0
M  V30 14 C 3.396843 3.783525 -2.346950 0
M  V30 15 C 0.763951 1.652717 -0.841327 0
M  V30 16 C 0.615940 0.575461 0.005837 0
M  V30 17 C 1.666260 0.181160 0.792099 0
M  V30 18 C -1.108291 -3.361122 2.591809 0
M  V30 19 C -0.603785 -4.229916 3.535169 0
M  V30 20 C -1.299540 -5.270284 4.111796 0
M  V30 21 C -2.607037 -5.462747 3.716918 0
M  V30 22 C -3.140428 -4.591307 2.759005 0
M  V30 23 C -2.413153 -3.559794 2.203266 0
M  V30 24 O -4.455901 -4.977831 2.523426 0
M  V30 25 C -4.717791 -6.177673 3.243708 0
M  V30 26 O -3.586338 -6.378743 4.068656 0
M  V30 27 H -0.863224 -1.658929 1.269338 0
M  V30 28 H 1.246041 -2.574843 2.931638 0
M  V30 29 H 4.618217 0.458939 1.828774 0
M  V30 30 H 3.979906 2.412983 -0.097516 0
M  V30 31 H 0.101817 4.194477 -1.739624 0
M  V30 32 H 0.432301 6.111570 -3.206895 0
M  V30 33 H 4.456658 5.109067 -3.589014 0
M  V30 34 H 4.228755 3.161674 -2.128305 0
M  V30 35 H -0.061907 1.957722 -1.455403 0
M  V30 36 H -0.322379 0.064589 0.032934 0
M  V30 37 H 0.412279 -4.133506 3.886605 0
M  V30 38 H -0.870409 -5.931984 4.849380 0
M  V30 39 H -2.889074 -2.917297 1.461743 0
M  V30 40 H -5.656526 -6.076376 3.831549 0
M  V30 41 H -4.850598 -7.058636 2.585676 0
M  V30 END ATOM
M  V30 BEGIN BOND
M  V30 1 2 1 2
M  V30 2 1 2 3
M  V30 3 2 3 4
M  V30 4 1 4 5
M  V30 5 1 5 6
M  V30 6 2 6 7
M  V30 7 1 7 8
M  V30 8 1 8 9
M  V30 9 2 9 10
M  V30 10 1 10 11
M  V30 11 2 11 12
M  V30 12 1 12 13
M  V30 13 2 13 14
M  V30 14 2 8 15
M  V30 15 1 15 16
M  V30 16 2 16 17
M  V30 17 1 1 18
M  V30 18 2 18 19
M  V30 19 1 19 20
M  V30 20 2 20 21
M  V30 21 1 21 22
M  V30 22 2 22 23
M  V30 23 1 22 24
M  V30 24 1 24 25
M  V30 25 1 25 26
M  V30 26 1 17 3
M  V30 27 1 23 18
M  V30 28 1 17 6
M  V30 29 1 26 21
M  V30 30 1 14 9
M  V30 31 1 1 27
M  V30 32 1 2 28
M  V30 33 1 5 29
M  V30 34 1 7 30
M  V30 35 1 10 31
M  V30 36 1 11 32
M  V30 37 1 13 33
M  V30 38 1 14 34
M  V30 39 1 15 35
M  V30 40 1 16 36
M  V30 41 1 19 37
M  V30 42 1 20 38
M  V30 43 1 23 39
M  V30 44 1 25 40
M  V30 45 1 25 41
M  V30 END BOND
M  V30 END CTAB
M  END
>  <Dataset>  (765) 
ChEMBL_Kinases

>  <Ligand_Instance>  (765) 
nan

>  <PDB_ID>  (765) 
nan

>  <Standardized_SMILES>  (765) 
C(=C/c1n[nH]c2cc(-c3ccncc3)ccc12)\c1ccc2c(c1)OCO2

>  <Name>  (765) 
nan

>  <Pocket>  (765) 
nan

>  <ATP_Site>  (765) 
nan

>  <Peripheral>  (765) 
nan

>  <Num_H_Atoms_ProtBoundConf>  (765) 
nan

>  <Num_Resolved_Atoms>  (765) 
nan

>  <Num_Not_Resolved_Atoms>  (765) 
nan

$$$$
CHEMBL4061406
     RDKit          3D

  0  0  0  0  0  0  0  0  0  0999 V3000
M  V30 BEGIN CTAB
M  V30 COUNTS 33 35 0 0 0
M  V30 BEGIN ATOM
M  V30 1 C -1.231747 -5.219382 2.465501 0
M  V30 2 S 0.469523 -4.663465 2.451065 0
M  V30 3 O 0.893445 -4.531910 3.905715 0
M  V30 4 O 1.364408 -5.570905 1.699354 0
M  V30 5 C 0.461813 -3.039136 1.799819 0
M  V30 6 C 0.598643 -2.930971 0.431935 0
M  V30 7 C 0.606579 -1.704183 -0.192733 0
M  V30 8 C 0.482533 -0.533118 0.472901 0
M  V30 9 C 0.435075 0.855280 0.048317 0
M  V30 10 N 1.309798 1.691575 0.680194 0
M  V30 11 C 1.415072 2.999021 0.434958 0
M  V30 12 N 2.358892 3.797099 1.144030 0
M  V30 13 N 0.608245 3.565735 -0.503647 0
M  V30 14 C -0.292656 2.808498 -1.180516 0
M  V30 15 N -1.219492 3.038066 -2.127881 0
M  V30 16 C -1.862974 1.882682 -2.434295 0
M  V30 17 C -1.333422 0.862212 -1.655748 0
M  V30 18 C -1.815432 -0.481241 -1.730963 0
M  V30 19 N -2.222105 -1.560951 -1.800710 0
M  V30 20 C -0.363474 1.464406 -0.891582 0
M  V30 21 C 0.345298 -0.665463 1.859790 0
M  V30 22 C 0.333673 -1.863750 2.510801 0
M  V30 23 H -1.357276 -5.924267 1.622282 0
M  V30 24 H -1.472213 -5.687662 3.435925 0
M  V30 25 H -1.945186 -4.380289 2.285689 0
M  V30 26 H 0.707259 -3.794755 -0.229586 0
M  V30 27 H 0.728915 -1.581983 -1.262708 0
M  V30 28 H 3.179272 4.094899 0.587851 0
M  V30 29 H 2.284545 4.092523 2.149304 0
M  V30 30 H -1.339189 4.009560 -2.501902 0
M  V30 31 H -2.650952 1.807656 -3.167279 0
M  V30 32 H 0.234949 0.172495 2.550635 0
M  V30 33 H 0.229159 -1.990349 3.578592 0
M  V30 END ATOM
M  V30 BEGIN BOND
M  V30 1 1 1 2
M  V30 2 2 2 3
M  V30 3 2 2 4
M  V30 4 1 2 5
M  V30 5 2 5 6
M  V30 6 1 6 7
M  V30 7 2 7 8
M  V30 8 1 8 9
M  V30 9 2 9 10
M  V30 10 1 10 11
M  V30 11 1 11 12
M  V30 12 2 11 13
M  V30 13 1 13 14
M  V30 14 1 14 15
M  V30 15 1 15 16
M  V30 16 2 16 17
M  V30 17 1 17 18
M  V30 18 3 18 19
M  V30 19 1 17 20
M  V30 20 1 8 21
M  V30 21 2 21 22
M  V30 22 1 22 5
M  V30 23 1 20 9
M  V30 24 2 20 14
M  V30 25 1 1 23
M  V30 26 1 1 24
M  V30 27 1 1 25
M  V30 28 1 6 26
M  V30 29 1 7 27
M  V30 30 1 12 28
M  V30 31 1 12 29
M  V30 32 1 15 30
M  V30 33 1 16 31
M  V30 34 1 21 32
M  V30 35 1 22 33
M  V30 END BOND
M  V30 END CTAB
M  END
>  <Dataset>  (766) 
ChEMBL_Kinases

>  <Ligand_Instance>  (766) 
nan

>  <PDB_ID>  (766) 
nan

>  <Standardized_SMILES>  (766) 
CS(=O)(=O)c1ccc(-c2nc(N)nc3[nH]cc(C#N)c23)cc1

>  <Name>  (766) 
nan

>  <Pocket>  (766) 
nan

>  <ATP_Site>  (766) 
nan

>  <Peripheral>  (766) 
nan

>  <Num_H_Atoms_ProtBoundConf>  (766) 
nan

>  <Num_Resolved_Atoms>  (766) 
nan

>  <Num_Not_Resolved_Atoms>  (766) 
nan

$$$$
CHEMBL3931012
     RDKit          3D

  0  0  0  0  0  0  0  0  0  0999 V3000
M  V30 BEGIN CTAB
M  V30 COUNTS 37 40 0 0 0
M  V30 BEGIN ATOM
M  V30 1 F 0.770383 -1.113506 3.640795 0
M  V30 2 C 0.809954 -2.014622 2.624339 0
M  V30 3 C 0.090265 -3.181372 2.891857 0
M  V30 4 C 0.027025 -4.197600 1.967066 0
M  V30 5 C 0.691763 -4.023039 0.782684 0
M  V30 6 C 1.413658 -2.890458 0.475201 0
M  V30 7 C 1.478430 -1.870206 1.401021 0
M  V30 8 C 2.153369 -0.581578 1.352024 0
M  V30 9 C 3.433020 -0.354481 1.873020 0
M  V30 10 N 3.742774 0.959549 1.671616 0
M  V30 11 C 2.739205 1.606303 1.047989 0
M  V30 12 N 2.445169 2.828107 0.589531 0
M  V30 13 C 1.287301 3.119087 -0.019054 0
M  V30 14 N 0.340827 2.160546 -0.199777 0
M  V30 15 C 0.580562 0.898969 0.244742 0
M  V30 16 N -0.534749 0.065572 -0.046474 0
M  V30 17 C -1.559779 -0.711510 0.674125 0
M  V30 18 C -2.888240 -0.546061 -0.026559 0
M  V30 19 O -2.972275 0.648049 -0.722377 0
M  V30 20 C -2.050348 0.746773 -1.744710 0
M  V30 21 C -0.820571 -0.129101 -1.468987 0
M  V30 22 C 1.779299 0.642440 0.863399 0
M  V30 23 H -0.445620 -3.344670 3.823235 0
M  V30 24 H -0.525217 -5.128867 2.134972 0
M  V30 25 H 0.698766 -4.765894 -0.002665 0
M  V30 26 H 1.961883 -2.657774 -0.409598 0
M  V30 27 H 4.064855 -1.096897 2.352561 0
M  V30 28 H 4.635606 1.455335 1.947701 0
M  V30 29 H 1.181077 4.157494 -0.342741 0
M  V30 30 H -1.327030 -1.795932 0.679838 0
M  V30 31 H -1.674007 -0.331195 1.705189 0
M  V30 32 H -3.681033 -0.546651 0.747050 0
M  V30 33 H -3.122171 -1.422126 -0.675553 0
M  V30 34 H -1.646385 1.793447 -1.800474 0
M  V30 35 H -2.457700 0.546953 -2.749562 0
M  V30 36 H 0.008537 0.281319 -2.097182 0
M  V30 37 H -1.030955 -1.162825 -1.741270 0
M  V30 END ATOM
M  V30 BEGIN BOND
M  V30 1 1 1 2
M  V30 2 2 2 3
M  V30 3 1 3 4
M  V30 4 2 4 5
M  V30 5 1 5 6
M  V30 6 2 6 7
M  V30 7 1 7 8
M  V30 8 2 8 9
M  V30 9 1 9 10
M  V30 10 1 10 11
M  V30 11 2 11 12
M  V30 12 1 12 13
M  V30 13 2 13 14
M  V30 14 1 14 15
M  V30 15 1 15 16
M  V30 16 1 16 17
M  V30 17 1 17 18
M  V30 18 1 18 19
M  V30 19 1 19 20
M  V30 20 1 20 21
M  V30 21 2 15 22
M  V30 22 1 7 2
M  V30 23 1 22 8
M  V30 24 1 22 11
M  V30 25 1 21 16
M  V30 26 1 3 23
M  V30 27 1 4 24
M  V30 28 1 5 25
M  V30 29 1 6 26
M  V30 30 1 9 27
M  V30 31 1 10 28
M  V30 32 1 13 29
M  V30 33 1 17 30
M  V30 34 1 17 31
M  V30 35 1 18 32
M  V30 36 1 18 33
M  V30 37 1 20 34
M  V30 38 1 20 35
M  V30 39 1 21 36
M  V30 40 1 21 37
M  V30 END BOND
M  V30 END CTAB
M  END
>  <Dataset>  (767) 
ChEMBL_Kinases

>  <Ligand_Instance>  (767) 
nan

>  <PDB_ID>  (767) 
nan

>  <Standardized_SMILES>  (767) 
Fc1ccccc1-c1c[nH]c2ncnc(N3CCOCC3)c12

>  <Name>  (767) 
nan

>  <Pocket>  (767) 
nan

>  <ATP_Site>  (767) 
nan

>  <Peripheral>  (767) 
nan

>  <Num_H_Atoms_ProtBoundConf>  (767) 
nan

>  <Num_Resolved_Atoms>  (767) 
nan

>  <Num_Not_Resolved_Atoms>  (767) 
nan

$$$$
CHEMBL4061321
     RDKit          3D

  0  0  0  0  0  0  0  0  0  0999 V3000
M  V30 BEGIN CTAB
M  V30 COUNTS 45 49 0 0 0
M  V30 BEGIN ATOM
M  V30 1 N -2.017733 -4.073248 3.134702 0
M  V30 2 C -1.478433 -4.562570 1.914417 0
M  V30 3 C -0.284162 -3.773566 1.471168 0
M  V30 4 C 0.952916 -4.200267 1.971036 0
M  V30 5 C 2.115096 -3.554035 1.637143 0
M  V30 6 C 2.066220 -2.477044 0.803046 0
M  V30 7 C 3.233026 -1.828992 0.487774 0
M  V30 8 C 3.124637 -0.739924 -0.344103 0
M  V30 9 C 1.890937 -0.317318 -0.842890 0
M  V30 10 C 0.715293 -0.997983 -0.506562 0
M  V30 11 C -0.449706 -0.390742 -1.128421 0
M  V30 12 C -0.772747 0.910658 -1.019644 0
M  V30 13 C -0.166001 2.043304 -0.329258 0
M  V30 14 C 0.133021 3.320558 -0.795068 0
M  V30 15 N 0.663680 4.050484 0.202546 0
M  V30 16 C 0.731692 3.310169 1.324897 0
M  V30 17 C 1.179866 3.591530 2.595902 0
M  V30 18 C 1.138404 2.638886 3.614939 0
M  V30 19 C 0.625696 1.380643 3.313318 0
M  V30 20 C 0.184178 1.141414 2.013338 0
M  V30 21 C 0.222074 2.070390 1.006065 0
M  V30 22 C -2.001396 1.129078 -1.802252 0
M  V30 23 O -2.649733 2.197476 -1.973489 0
M  V30 24 N -2.432869 -0.104153 -2.411218 0
M  V30 25 C -1.443541 -1.039214 -1.974499 0
M  V30 26 O -1.550418 -2.247787 -2.360126 0
M  V30 27 C 0.834584 -2.084877 0.328793 0
M  V30 28 C -0.366199 -2.688545 0.625791 0
M  V30 29 H -1.356724 -3.982723 3.918048 0
M  V30 30 H -2.807275 -3.419811 3.082528 0
M  V30 31 H -2.265795 -4.575502 1.139598 0
M  V30 32 H -1.150880 -5.611711 2.056598 0
M  V30 33 H 1.058437 -5.057157 2.644321 0
M  V30 34 H 3.056840 -3.870900 2.015540 0
M  V30 35 H 4.197069 -2.149884 0.871664 0
M  V30 36 H 4.067179 -0.238675 -0.579338 0
M  V30 37 H 1.998078 0.564555 -1.490019 0
M  V30 38 H -0.042491 3.653505 -1.811319 0
M  V30 39 H 0.999028 5.060195 0.182723 0
M  V30 40 H 1.584454 4.561678 2.859653 0
M  V30 41 H 1.480808 2.806398 4.638096 0
M  V30 42 H 0.587763 0.641719 4.102747 0
M  V30 43 H -0.198711 0.151473 1.892189 0
M  V30 44 H -3.272420 -0.247748 -3.021702 0
M  V30 45 H -1.304910 -2.362741 0.261477 0
M  V30 END ATOM
M  V30 BEGIN BOND
M  V30 1 1 1 2
M  V30 2 1 2 3
M  V30 3 2 3 4
M  V30 4 1 4 5
M  V30 5 2 5 6
M  V30 6 1 6 7
M  V30 7 2 7 8
M  V30 8 1 8 9
M  V30 9 2 9 10
M  V30 10 1 10 11
M  V30 11 2 11 12
M  V30 12 1 12 13
M  V30 13 2 13 14
M  V30 14 1 14 15
M  V30 15 1 15 16
M  V30 16 2 16 17
M  V30 17 1 17 18
M  V30 18 2 18 19
M  V30 19 1 19 20
M  V30 20 2 20 21
M  V30 21 1 12 22
M  V30 22 2 22 23
M  V30 23 1 22 24
M  V30 24 1 24 25
M  V30 25 2 25 26
M  V30 26 1 10 27
M  V30 27 2 27 28
M  V30 28 1 28 3
M  V30 29 1 27 6
M  V30 30 1 25 11
M  V30 31 1 21 13
M  V30 32 1 21 16
M  V30 33 1 1 29
M  V30 34 1 1 30
M  V30 35 1 2 31
M  V30 36 1 2 32
M  V30 37 1 4 33
M  V30 38 1 5 34
M  V30 39 1 7 35
M  V30 40 1 8 36
M  V30 41 1 9 37
M  V30 42 1 14 38
M  V30 43 1 15 39
M  V30 44 1 17 40
M  V30 45 1 18 41
M  V30 46 1 19 42
M  V30 47 1 20 43
M  V30 48 1 24 44
M  V30 49 1 28 45
M  V30 END BOND
M  V30 END CTAB
M  END
>  <Dataset>  (768) 
ChEMBL_Kinases

>  <Ligand_Instance>  (768) 
nan

>  <PDB_ID>  (768) 
nan

>  <Standardized_SMILES>  (768) 
NCc1ccc2cccc(C3=C(c4c[nH]c5ccccc45)C(=O)NC3=O)c2c1

>  <Name>  (768) 
nan

>  <Pocket>  (768) 
nan

>  <ATP_Site>  (768) 
nan

>  <Peripheral>  (768) 
nan

>  <Num_H_Atoms_ProtBoundConf>  (768) 
nan

>  <Num_Resolved_Atoms>  (768) 
nan

>  <Num_Not_Resolved_Atoms>  (768) 
nan

$$$$
CHEMBL3931386
     RDKit          3D

  0  0  0  0  0  0  0  0  0  0999 V3000
M  V30 BEGIN CTAB
M  V30 COUNTS 52 56 0 0 0
M  V30 BEGIN ATOM
M  V30 1 N 3.175603 -2.200744 1.748137 0
M  V30 2 C 2.755781 -1.630286 2.997820 0 CFG=1
M  V30 3 C 3.905364 -0.987967 3.738100 0
M  V30 4 C 3.663298 0.475304 4.019875 0
M  V30 5 C 3.331260 1.279542 2.794157 0
M  V30 6 N 2.341850 0.534994 1.996287 0
M  V30 7 C 1.929824 0.750621 0.655140 0
M  V30 8 C 2.813616 0.649370 -0.427738 0
M  V30 9 C 2.367644 0.871450 -1.713683 0
M  V30 10 N 1.103042 1.187691 -1.989728 0
M  V30 11 C 0.179214 1.306976 -0.994169 0
M  V30 12 C 0.648390 1.080392 0.276314 0
M  V30 13 N -0.348850 1.195916 1.293377 0
M  V30 14 C -1.739067 1.488008 1.167157 0
M  V30 15 N -2.522702 2.515023 1.586659 0
M  V30 16 C -3.789605 2.287738 1.186533 0
M  V30 17 C -3.784293 1.087101 0.501275 0
M  V30 18 C -4.785759 0.367752 -0.130108 0
M  V30 19 C -4.503124 -0.828660 -0.760400 0
M  V30 20 C -3.209371 -1.282816 -0.744000 0
M  V30 21 C -2.807374 -2.529136 -1.388760 0
M  V30 22 C -3.675236 -3.385495 -2.035887 0
M  V30 23 C -3.278889 -4.556394 -2.642760 0
M  V30 24 C -1.937404 -4.930555 -2.623237 0
M  V30 25 F -1.577970 -6.083247 -3.223293 0
M  V30 26 C -1.060054 -4.094069 -1.985477 0
M  V30 27 C -1.468754 -2.925048 -1.381976 0
M  V30 28 F -0.532584 -2.138330 -0.763575 0
M  V30 29 N -2.245832 -0.570086 -0.124137 0
M  V30 30 N -2.521423 0.591428 0.487215 0
M  V30 31 C 1.709591 -0.574041 2.715819 0
M  V30 32 H 3.318628 -3.231927 1.798010 0
M  V30 33 H 2.626312 -1.889936 0.940570 0
M  V30 34 H 2.247497 -2.414235 3.627149 0
M  V30 35 H 3.975295 -1.495473 4.728830 0
M  V30 36 H 4.823783 -1.141020 3.151349 0
M  V30 37 H 2.898014 0.536976 4.811804 0
M  V30 38 H 4.629972 0.849382 4.465505 0
M  V30 39 H 2.902480 2.251098 3.148447 0
M  V30 40 H 4.239948 1.520246 2.230003 0
M  V30 41 H 3.851513 0.393557 -0.255557 0
M  V30 42 H 2.989860 0.807650 -2.588567 0
M  V30 43 H -0.832719 1.564302 -1.230332 0
M  V30 44 H -0.187609 1.080314 2.319427 0
M  V30 45 H -4.686629 2.893041 1.341086 0
M  V30 46 H -5.829228 0.720397 -0.152213 0
M  V30 47 H -5.279883 -1.367186 -1.241715 0
M  V30 48 H -4.722118 -3.130764 -2.074797 0
M  V30 49 H -3.979471 -5.211213 -3.144244 0
M  V30 50 H -0.004364 -4.380650 -1.964000 0
M  V30 51 H 1.334750 -0.155078 3.688920 0
M  V30 52 H 0.912128 -1.048455 2.149076 0
M  V30 END ATOM
M  V30 BEGIN BOND
M  V30 1 1 1 2
M  V30 2 1 2 3
M  V30 3 1 3 4
M  V30 4 1 4 5
M  V30 5 1 5 6
M  V30 6 1 6 7
M  V30 7 2 7 8
M  V30 8 1 8 9
M  V30 9 2 9 10
M  V30 10 1 10 11
M  V30 11 2 11 12
M  V30 12 1 12 13
M  V30 13 1 13 14
M  V30 14 2 14 15
M  V30 15 1 15 16
M  V30 16 2 16 17
M  V30 17 1 17 18
M  V30 18 2 18 19
M  V30 19 1 19 20
M  V30 20 1 20 21
M  V30 21 2 21 22
M  V30 22 1 22 23
M  V30 23 2 23 24
M  V30 24 1 24 25
M  V30 25 1 24 26
M  V30 26 2 26 27
M  V30 27 1 27 28
M  V30 28 2 20 29
M  V30 29 1 29 30
M  V30 30 1 6 31
M  V30 31 1 31 2
M  V30 32 1 12 7
M  V30 33 1 30 14
M  V30 34 1 30 17
M  V30 35 1 27 21
M  V30 36 1 1 32
M  V30 37 1 1 33
M  V30 38 1 2 34 CFG=1
M  V30 39 1 3 35
M  V30 40 1 3 36
M  V30 41 1 4 37
M  V30 42 1 4 38
M  V30 43 1 5 39
M  V30 44 1 5 40
M  V30 45 1 8 41
M  V30 46 1 9 42
M  V30 47 1 11 43
M  V30 48 1 13 44
M  V30 49 1 16 45
M  V30 50 1 18 46
M  V30 51 1 19 47
M  V30 52 1 22 48
M  V30 53 1 23 49
M  V30 54 1 26 50
M  V30 55 1 31 51
M  V30 56 1 31 52
M  V30 END BOND
M  V30 END CTAB
M  END
>  <Dataset>  (769) 
ChEMBL_Kinases

>  <Ligand_Instance>  (769) 
nan

>  <PDB_ID>  (769) 
nan

>  <Standardized_SMILES>  (769) 
N[C@H]1CCCN(c2ccncc2Nc2ncc3ccc(-c4ccc(F)cc4F)nn23)C1

>  <Name>  (769) 
nan

>  <Pocket>  (769) 
nan

>  <ATP_Site>  (769) 
nan

>  <Peripheral>  (769) 
nan

>  <Num_H_Atoms_ProtBoundConf>  (769) 
nan

>  <Num_Resolved_Atoms>  (769) 
nan

>  <Num_Not_Resolved_Atoms>  (769) 
nan

$$$$
CHEMBL3932121
     RDKit          3D

  0  0  0  0  0  0  0  0  0  0999 V3000
M  V30 BEGIN CTAB
M  V30 COUNTS 49 52 0 0 0
M  V30 BEGIN ATOM
M  V30 1 C -2.534555 -3.338374 0.123087 0
M  V30 2 C -1.836737 -4.648805 0.079638 0
M  V30 3 C -0.693607 -4.749132 -0.678048 0
M  V30 4 C -0.041963 -3.746325 -1.497018 0
M  V30 5 C 1.071441 -4.177065 -2.231030 0
M  V30 6 C 1.756796 -3.260879 -3.044624 0
M  V30 7 N 1.336821 -1.986843 -3.105614 0
M  V30 8 C 0.258060 -1.521834 -2.407683 0
M  V30 9 N -0.322875 -0.231535 -2.312268 0
M  V30 10 C -0.057946 0.566572 -1.166236 0
M  V30 11 C -0.513350 1.883954 -0.969414 0
M  V30 12 C -0.193647 2.552435 0.220899 0
M  V30 13 C 0.565899 1.954209 1.226006 0
M  V30 14 N 0.840805 2.678897 2.420577 0
M  V30 15 C 0.209226 3.928767 2.794091 0
M  V30 16 C 1.201356 4.730961 3.606378 0
M  V30 17 N 2.544628 4.562355 3.068785 0
M  V30 18 C 3.002442 3.207001 3.245240 0
M  V30 19 C 1.781216 2.307965 3.447350 0
M  V30 20 C 1.042992 0.656816 1.086210 0
M  V30 21 C 0.672655 0.091854 -0.116428 0
M  V30 22 N -0.251496 -2.494889 -1.715808 0
M  V30 23 S -0.100054 -6.380149 -0.527661 0
M  V30 24 C -1.470304 -6.917614 0.609597 0
M  V30 25 O -1.768131 -8.021742 1.200707 0
M  V30 26 N -2.248199 -5.741092 0.741660 0
M  V30 27 C -3.461234 -5.734865 1.538819 0
M  V30 28 H -1.924934 -2.570805 0.647063 0
M  V30 29 H -3.577962 -3.408067 0.490939 0
M  V30 30 H -2.633932 -2.991240 -0.933619 0
M  V30 31 H 1.501292 -5.167049 -2.268059 0
M  V30 32 H 2.623407 -3.535685 -3.645395 0
M  V30 33 H -0.946857 0.245880 -2.996366 0
M  V30 34 H -1.092695 2.324569 -1.757772 0
M  V30 35 H -0.598692 3.558429 0.250850 0
M  V30 36 H -0.659762 3.696816 3.484017 0
M  V30 37 H -0.130254 4.499787 1.926001 0
M  V30 38 H 0.953430 5.814364 3.599389 0
M  V30 39 H 1.211878 4.399979 4.658232 0
M  V30 40 H 3.203477 5.263659 3.425238 0
M  V30 41 H 3.766805 3.074969 4.027174 0
M  V30 42 H 3.480070 2.869466 2.279565 0
M  V30 43 H 1.371765 2.402181 4.479316 0
M  V30 44 H 2.087882 1.254885 3.355512 0
M  V30 45 H 1.624933 0.125232 1.801500 0
M  V30 46 H 1.038919 -0.943570 -0.250211 0
M  V30 47 H -4.266210 -5.288579 0.870725 0
M  V30 48 H -3.412249 -5.140688 2.447534 0
M  V30 49 H -3.817651 -6.762624 1.716755 0
M  V30 END ATOM
M  V30 BEGIN BOND
M  V30 1 1 1 2
M  V30 2 2 2 3
M  V30 3 1 3 4
M  V30 4 2 4 5
M  V30 5 1 5 6
M  V30 6 2 6 7
M  V30 7 1 7 8
M  V30 8 1 8 9
M  V30 9 1 9 10
M  V30 10 2 10 11
M  V30 11 1 11 12
M  V30 12 2 12 13
M  V30 13 1 13 14
M  V30 14 1 14 15
M  V30 15 1 15 16
M  V30 16 1 16 17
M  V30 17 1 17 18
M  V30 18 1 18 19
M  V30 19 1 13 20
M  V30 20 2 20 21
M  V30 21 2 8 22
M  V30 22 1 3 23
M  V30 23 1 23 24
M  V30 24 2 24 25
M  V30 25 1 24 26
M  V30 26 1 26 27
M  V30 27 1 26 2
M  V30 28 1 22 4
M  V30 29 1 21 10
M  V30 30 1 19 14
M  V30 31 1 1 28
M  V30 32 1 1 29
M  V30 33 1 1 30
M  V30 34 1 5 31
M  V30 35 1 6 32
M  V30 36 1 9 33
M  V30 37 1 11 34
M  V30 38 1 12 35
M  V30 39 1 15 36
M  V30 40 1 15 37
M  V30 41 1 16 38
M  V30 42 1 16 39
M  V30 43 1 17 40
M  V30 44 1 18 41
M  V30 45 1 18 42
M  V30 46 1 19 43
M  V30 47 1 19 44
M  V30 48 1 20 45
M  V30 49 1 21 46
M  V30 50 1 27 47
M  V30 51 1 27 48
M  V30 52 1 27 49
M  V30 END BOND
M  V30 END CTAB
M  END
>  <Dataset>  (770) 
ChEMBL_Kinases

>  <Ligand_Instance>  (770) 
nan

>  <PDB_ID>  (770) 
nan

>  <Standardized_SMILES>  (770) 
Cc1c(-c2ccnc(Nc3ccc(N4CCNCC4)cc3)n2)sc(=O)n1C

>  <Name>  (770) 
nan

>  <Pocket>  (770) 
nan

>  <ATP_Site>  (770) 
nan

>  <Peripheral>  (770) 
nan

>  <Num_H_Atoms_ProtBoundConf>  (770) 
nan

>  <Num_Resolved_Atoms>  (770) 
nan

>  <Num_Not_Resolved_Atoms>  (770) 
nan

$$$$
CHEMBL3924352
     RDKit          3D

  0  0  0  0  0  0  0  0  0  0999 V3000
M  V30 BEGIN CTAB
M  V30 COUNTS 52 56 0 0 0
M  V30 BEGIN ATOM
M  V30 1 N 4.587023 -2.690922 1.572763 0
M  V30 2 C 3.376582 -3.184540 2.210880 0 CFG=1
M  V30 3 C 3.377857 -2.908885 3.677628 0
M  V30 4 C 3.599740 -1.441783 3.925592 0
M  V30 5 C 2.569670 -0.580035 3.234474 0
M  V30 6 N 2.316326 -1.057899 1.870553 0
M  V30 7 C 2.164116 -0.140286 0.787564 0
M  V30 8 C 3.088538 -0.078495 -0.244017 0
M  V30 9 C 3.011224 0.787923 -1.314397 0
M  V30 10 N 1.976012 1.644500 -1.386982 0
M  V30 11 C 1.045814 1.633620 -0.417603 0
M  V30 12 C 1.135161 0.761846 0.646488 0
M  V30 13 N 0.115740 0.807989 1.602681 0
M  V30 14 C -0.969352 1.716913 1.498736 0
M  V30 15 N -1.191655 2.950029 2.014730 0
M  V30 16 C -2.383245 3.385884 1.595788 0
M  V30 17 C -2.966332 2.431896 0.788671 0
M  V30 18 C -4.149815 2.330631 0.092181 0
M  V30 19 C -4.417553 1.189315 -0.646295 0
M  V30 20 C -3.495806 0.167346 -0.675246 0
M  V30 21 C -3.696819 -1.064682 -1.427862 0
M  V30 22 C -4.808930 -1.329843 -2.181810 0
M  V30 23 C -4.982480 -2.516398 -2.898366 0
M  V30 24 C -3.999449 -3.482838 -2.859924 0
M  V30 25 C -2.878420 -3.237830 -2.111567 0
M  V30 26 C -2.738052 -2.055873 -1.415790 0
M  V30 27 Cl -1.265448 -1.828861 -0.481359 0
M  V30 28 N -2.365121 0.323092 0.021176 0
M  V30 29 N -2.069378 1.408430 0.745422 0
M  V30 30 C 2.204802 -2.472754 1.586503 0
M  V30 31 H 4.544807 -2.880054 0.546111 0
M  V30 32 H 5.454361 -3.109913 1.994423 0
M  V30 33 H 3.235882 -4.274454 2.003365 0
M  V30 34 H 2.472124 -3.308531 4.137865 0
M  V30 35 H 4.250542 -3.432735 4.134574 0
M  V30 36 H 4.634663 -1.200232 3.693732 0
M  V30 37 H 3.454228 -1.289216 5.014705 0
M  V30 38 H 1.641601 -0.525005 3.824647 0
M  V30 39 H 2.988989 0.440001 3.168923 0
M  V30 40 H 3.946600 -0.715017 -0.279222 0
M  V30 41 H 3.742248 0.821099 -2.108999 0
M  V30 42 H 0.198873 2.335455 -0.477812 0
M  V30 43 H -0.116671 0.307814 2.481794 0
M  V30 44 H -2.891483 4.317347 1.801438 0
M  V30 45 H -4.878979 3.148866 0.120565 0
M  V30 46 H -5.337105 1.113107 -1.186289 0
M  V30 47 H -5.603708 -0.602104 -2.240831 0
M  V30 48 H -5.891082 -2.645423 -3.469101 0
M  V30 49 H -4.106517 -4.409348 -3.404322 0
M  V30 50 H -2.095842 -3.977981 -2.065114 0
M  V30 51 H 1.235014 -2.834908 1.987279 0
M  V30 52 H 2.295050 -2.642803 0.495349 0
M  V30 END ATOM
M  V30 BEGIN BOND
M  V30 1 1 1 2
M  V30 2 1 2 3
M  V30 3 1 3 4
M  V30 4 1 4 5
M  V30 5 1 5 6
M  V30 6 1 6 7
M  V30 7 2 7 8
M  V30 8 1 8 9
M  V30 9 2 9 10
M  V30 10 1 10 11
M  V30 11 2 11 12
M  V30 12 1 12 13
M  V30 13 1 13 14
M  V30 14 2 14 15
M  V30 15 1 15 16
M  V30 16 2 16 17
M  V30 17 1 17 18
M  V30 18 2 18 19
M  V30 19 1 19 20
M  V30 20 1 20 21
M  V30 21 2 21 22
M  V30 22 1 22 23
M  V30 23 2 23 24
M  V30 24 1 24 25
M  V30 25 2 25 26
M  V30 26 1 26 27
M  V30 27 2 20 28
M  V30 28 1 28 29
M  V30 29 1 6 30
M  V30 30 1 30 2
M  V30 31 1 12 7
M  V30 32 1 29 14
M  V30 33 1 29 17
M  V30 34 1 26 21
M  V30 35 1 1 31
M  V30 36 1 1 32
M  V30 37 1 2 33 CFG=1
M  V30 38 1 3 34
M  V30 39 1 3 35
M  V30 40 1 4 36
M  V30 41 1 4 37
M  V30 42 1 5 38
M  V30 43 1 5 39
M  V30 44 1 8 40
M  V30 45 1 9 41
M  V30 46 1 11 42
M  V30 47 1 13 43
M  V30 48 1 16 44
M  V30 49 1 18 45
M  V30 50 1 19 46
M  V30 51 1 22 47
M  V30 52 1 23 48
M  V30 53 1 24 49
M  V30 54 1 25 50
M  V30 55 1 30 51
M  V30 56 1 30 52
M  V30 END BOND
M  V30 END CTAB
M  END
>  <Dataset>  (771) 
ChEMBL_Kinases

>  <Ligand_Instance>  (771) 
nan

>  <PDB_ID>  (771) 
nan

>  <Standardized_SMILES>  (771) 
N[C@H]1CCCN(c2ccncc2Nc2ncc3ccc(-c4ccccc4Cl)nn23)C1

>  <Name>  (771) 
nan

>  <Pocket>  (771) 
nan

>  <ATP_Site>  (771) 
nan

>  <Peripheral>  (771) 
nan

>  <Num_H_Atoms_ProtBoundConf>  (771) 
nan

>  <Num_Resolved_Atoms>  (771) 
nan

>  <Num_Not_Resolved_Atoms>  (771) 
nan

$$$$
CHEMBL4212542
     RDKit          3D

  0  0  0  0  0  0  0  0  0  0999 V3000
M  V30 BEGIN CTAB
M  V30 COUNTS 67 72 0 0 0
M  V30 BEGIN ATOM
M  V30 1 C 3.689472 -0.681941 5.483366 0
M  V30 2 C 4.584526 -0.675043 4.271601 0
M  V30 3 N 4.055616 -1.440148 3.183036 0
M  V30 4 C 2.881402 -0.900529 2.571363 0
M  V30 5 C 2.892113 -1.195507 1.089828 0
M  V30 6 N 4.047468 -0.650113 0.416782 0
M  V30 7 C 3.950835 0.765259 0.324730 0
M  V30 8 C 2.765686 1.234793 -0.436191 0
M  V30 9 C 1.544435 1.530044 0.131712 0
M  V30 10 C 0.495190 1.965086 -0.688414 0
M  V30 11 C 0.623611 2.116828 -2.066561 0
M  V30 12 N -0.497108 2.563063 -2.841404 0
M  V30 13 C -1.669649 2.803999 -2.072267 0
M  V30 14 N -2.114833 3.921529 -1.474442 0
M  V30 15 C -3.260128 3.960180 -0.771799 0
M  V30 16 C -4.004050 2.787144 -0.668374 0
M  V30 17 F -5.159464 2.814897 0.036581 0
M  V30 18 C -3.560773 1.610739 -1.282498 0
M  V30 19 C -4.360028 0.389926 -1.158099 0
M  V30 20 C -5.739072 0.258490 -1.292453 0
M  V30 21 C -6.269762 -1.008297 -1.129270 0
M  V30 22 F -7.615707 -1.061028 -1.273223 0
M  V30 23 C -5.489747 -2.094553 -0.848483 0
M  V30 24 N -5.863254 -3.392602 -0.662026 0
M  V30 25 C -4.700160 -4.056902 -0.412204 0
M  V30 26 N -3.631551 -3.208872 -0.440274 0
M  V30 27 C -4.105079 -1.971059 -0.712329 0
M  V30 28 C -3.566817 -0.708784 -0.873684 0
M  V30 29 C -2.427562 -3.959328 -0.175503 0
M  V30 30 C -1.348831 -3.174236 0.497989 0
M  V30 31 C -2.926457 -5.126819 0.627221 0
M  V30 32 C -4.232424 -5.441514 -0.112451 0
M  V30 33 N -2.404000 1.680127 -1.960362 0
M  V30 34 N 1.841446 1.819325 -2.610423 0
M  V30 35 C 2.860708 1.398147 -1.824703 0
M  V30 36 C 5.277935 -0.961528 1.117120 0
M  V30 37 C 5.064007 -1.909893 2.277268 0
M  V30 38 H 4.233967 -1.182487 6.305907 0
M  V30 39 H 3.452721 0.332698 5.848299 0
M  V30 40 H 2.764810 -1.277875 5.318987 0
M  V30 41 H 5.586826 -1.040549 4.520912 0
M  V30 42 H 4.656577 0.393980 3.950253 0
M  V30 43 H 1.963826 -1.382090 2.991226 0
M  V30 44 H 2.745749 0.178904 2.740099 0
M  V30 45 H 1.966235 -0.835066 0.601726 0
M  V30 46 H 2.918055 -2.320231 1.016652 0
M  V30 47 H 4.849433 1.234981 -0.129155 0
M  V30 48 H 3.882599 1.161767 1.377561 0
M  V30 49 H 1.420023 1.422942 1.190203 0
M  V30 50 H -0.410201 2.170882 -0.165758 0
M  V30 51 H -0.301004 2.653606 -3.883157 0
M  V30 52 H -3.537663 4.904878 -0.326011 0
M  V30 53 H -6.247098 1.183205 -1.514138 0
M  V30 54 H -2.490031 -0.703702 -0.752082 0
M  V30 55 H -2.005378 -4.396988 -1.124675 0
M  V30 56 H -0.937034 -2.464864 -0.269549 0
M  V30 57 H -0.531295 -3.880122 0.739168 0
M  V30 58 H -1.737575 -2.673178 1.394791 0
M  V30 59 H -2.225029 -5.974607 0.483398 0
M  V30 60 H -3.142309 -4.881656 1.671910 0
M  V30 61 H -3.981040 -5.990214 -1.039405 0
M  V30 62 H -4.917617 -6.002775 0.527825 0
M  V30 63 H 3.774009 1.191658 -2.357756 0
M  V30 64 H 6.015292 -1.415915 0.421621 0
M  V30 65 H 5.738526 -0.045957 1.573633 0
M  V30 66 H 6.037202 -1.922046 2.828305 0
M  V30 67 H 4.840188 -2.940274 1.922826 0
M  V30 END ATOM
M  V30 BEGIN BOND
M  V30 1 1 1 2
M  V30 2 1 2 3
M  V30 3 1 3 4
M  V30 4 1 4 5
M  V30 5 1 5 6
M  V30 6 1 6 7
M  V30 7 1 7 8
M  V30 8 2 8 9
M  V30 9 1 9 10
M  V30 10 2 10 11
M  V30 11 1 11 12
M  V30 12 1 12 13
M  V30 13 2 13 14
M  V30 14 1 14 15
M  V30 15 2 15 16
M  V30 16 1 16 17
M  V30 17 1 16 18
M  V30 18 1 18 19
M  V30 19 2 19 20
M  V30 20 1 20 21
M  V30 21 1 21 22
M  V30 22 2 21 23
M  V30 23 1 23 24
M  V30 24 2 24 25
M  V30 25 1 25 26
M  V30 26 1 26 27
M  V30 27 2 27 28
M  V30 28 1 26 29
M  V30 29 1 29 30
M  V30 30 1 29 31
M  V30 31 1 31 32
M  V30 32 2 18 33
M  V30 33 1 11 34
M  V30 34 2 34 35
M  V30 35 1 6 36
M  V30 36 1 36 37
M  V30 37 1 37 3
M  V30 38 1 35 8
M  V30 39 1 33 13
M  V30 40 1 28 19
M  V30 41 1 27 23
M  V30 42 1 32 25
M  V30 43 1 1 38
M  V30 44 1 1 39
M  V30 45 1 1 40
M  V30 46 1 2 41
M  V30 47 1 2 42
M  V30 48 1 4 43
M  V30 49 1 4 44
M  V30 50 1 5 45
M  V30 51 1 5 46
M  V30 52 1 7 47
M  V30 53 1 7 48
M  V30 54 1 9 49
M  V30 55 1 10 50
M  V30 56 1 12 51
M  V30 57 1 15 52
M  V30 58 1 20 53
M  V30 59 1 28 54
M  V30 60 1 29 55
M  V30 61 1 30 56
M  V30 62 1 30 57
M  V30 63 1 30 58
M  V30 64 1 31 59
M  V30 65 1 31 60
M  V30 66 1 32 61
M  V30 67 1 32 62
M  V30 68 1 35 63
M  V30 69 1 36 64
M  V30 70 1 36 65
M  V30 71 1 37 66
M  V30 72 1 37 67
M  V30 END BOND
M  V30 END CTAB
M  END
>  <Dataset>  (772) 
ChEMBL_Kinases

>  <Ligand_Instance>  (772) 
nan

>  <PDB_ID>  (772) 
nan

>  <Standardized_SMILES>  (772) 
CCN1CCN(Cc2ccc(Nc3ncc(F)c(-c4cc(F)c5nc6n(c5c4)C(C)CC6)n3)nc2)CC1

>  <Name>  (772) 
nan

>  <Pocket>  (772) 
nan

>  <ATP_Site>  (772) 
nan

>  <Peripheral>  (772) 
nan

>  <Num_H_Atoms_ProtBoundConf>  (772) 
nan

>  <Num_Resolved_Atoms>  (772) 
nan

>  <Num_Not_Resolved_Atoms>  (772) 
nan

$$$$
CHEMBL3261087
     RDKit          3D

  0  0  0  0  0  0  0  0  0  0999 V3000
M  V30 BEGIN CTAB
M  V30 COUNTS 50 54 0 0 0
M  V30 BEGIN ATOM
M  V30 1 C -2.771305 -2.279336 3.456956 0
M  V30 2 C -1.342754 -1.924748 3.246122 0
M  V30 3 C -0.483668 -2.027690 4.321429 0
M  V30 4 C 0.839094 -1.694912 4.106807 0
M  V30 5 C 1.222553 -1.284715 2.850352 0
M  V30 6 C 0.343853 -1.184448 1.769573 0
M  V30 7 C 0.904145 -0.734469 0.501443 0
M  V30 8 N 1.488057 0.475787 0.331222 0
M  V30 9 C 1.934242 0.665157 -0.934296 0
M  V30 10 C 2.612244 1.829810 -1.510399 0
M  V30 11 N 1.688006 2.777994 -2.089770 0
M  V30 12 C 0.660288 3.447783 -1.378956 0
M  V30 13 S -0.372972 4.511657 -2.028666 0
M  V30 14 C 0.182564 3.462421 -0.004985 0
M  V30 15 C 0.759228 4.181232 1.023184 0
M  V30 16 C 0.237129 4.132910 2.300128 0
M  V30 17 C -0.874031 3.364493 2.578508 0
M  V30 18 C -1.510688 2.617003 1.612143 0
M  V30 19 C -0.934314 2.711166 0.351900 0
M  V30 20 N 1.625671 -0.468497 -1.606191 0
M  V30 21 C 1.012672 -1.305093 -0.757880 0
M  V30 22 C 0.482920 -2.657898 -1.002646 0
M  V30 23 C -0.896188 -2.840800 -0.884586 0
M  V30 24 C -1.500841 -4.049528 -1.085059 0
M  V30 25 C -0.711207 -5.134569 -1.418655 0
M  V30 26 N -0.983402 -6.419238 -1.674052 0
M  V30 27 C 0.179896 -7.073537 -1.954229 0
M  V30 28 N 1.139918 -6.142347 -1.857064 0
M  V30 29 N 0.630765 -4.956978 -1.533711 0
M  V30 30 C 1.233224 -3.766264 -1.336947 0
M  V30 31 N -0.932271 -1.519763 2.031084 0
M  V30 32 H -3.327637 -2.200466 2.482709 0
M  V30 33 H -2.867675 -3.334741 3.816805 0
M  V30 34 H -3.267347 -1.587293 4.142078 0
M  V30 35 H -0.821459 -2.356343 5.304206 0
M  V30 36 H 1.557167 -1.753980 4.903986 0
M  V30 37 H 2.272644 -1.032698 2.726678 0
M  V30 38 H 1.590487 1.189509 1.081554 0
M  V30 39 H 3.301507 2.327271 -0.777871 0
M  V30 40 H 3.263772 1.458840 -2.355570 0
M  V30 41 H 1.717826 3.038705 -3.098045 0
M  V30 42 H 1.620579 4.773863 0.795256 0
M  V30 43 H 0.686164 4.698137 3.122123 0
M  V30 44 H -1.291112 3.320699 3.579265 0
M  V30 45 H -2.380918 1.989459 1.734877 0
M  V30 46 H -1.405519 2.132207 -0.457539 0
M  V30 47 H -1.610070 -2.051830 -0.627217 0
M  V30 48 H -2.569005 -4.220242 -1.000242 0
M  V30 49 H 0.281268 -8.127934 -2.201355 0
M  V30 50 H 2.288022 -3.617184 -1.425193 0
M  V30 END ATOM
M  V30 BEGIN BOND
M  V30 1 1 1 2
M  V30 2 2 2 3
M  V30 3 1 3 4
M  V30 4 2 4 5
M  V30 5 1 5 6
M  V30 6 1 6 7
M  V30 7 1 7 8
M  V30 8 1 8 9
M  V30 9 1 9 10
M  V30 10 1 10 11
M  V30 11 1 11 12
M  V30 12 2 12 13
M  V30 13 1 12 14
M  V30 14 2 14 15
M  V30 15 1 15 16
M  V30 16 2 16 17
M  V30 17 1 17 18
M  V30 18 2 18 19
M  V30 19 2 9 20
M  V30 20 1 20 21
M  V30 21 1 21 22
M  V30 22 1 22 23
M  V30 23 2 23 24
M  V30 24 1 24 25
M  V30 25 2 25 26
M  V30 26 1 26 27
M  V30 27 2 27 28
M  V30 28 1 28 29
M  V30 29 1 29 30
M  V30 30 2 6 31
M  V30 31 1 31 2
M  V30 32 2 21 7
M  V30 33 2 30 22
M  V30 34 1 19 14
M  V30 35 1 29 25
M  V30 36 1 1 32
M  V30 37 1 1 33
M  V30 38 1 1 34
M  V30 39 1 3 35
M  V30 40 1 4 36
M  V30 41 1 5 37
M  V30 42 1 8 38
M  V30 43 1 10 39
M  V30 44 1 10 40
M  V30 45 1 11 41
M  V30 46 1 15 42
M  V30 47 1 16 43
M  V30 48 1 17 44
M  V30 49 1 18 45
M  V30 50 1 19 46
M  V30 51 1 23 47
M  V30 52 1 24 48
M  V30 53 1 27 49
M  V30 54 1 30 50
M  V30 END BOND
M  V30 END CTAB
M  END
>  <Dataset>  (773) 
ChEMBL_Kinases

>  <Ligand_Instance>  (773) 
nan

>  <PDB_ID>  (773) 
nan

>  <Standardized_SMILES>  (773) 
Cc1cccc(-c2[nH]c(CNC(=S)c3ccccc3)nc2-c2ccc3ncnn3c2)n1

>  <Name>  (773) 
nan

>  <Pocket>  (773) 
nan

>  <ATP_Site>  (773) 
nan

>  <Peripheral>  (773) 
nan

>  <Num_H_Atoms_ProtBoundConf>  (773) 
nan

>  <Num_Resolved_Atoms>  (773) 
nan

>  <Num_Not_Resolved_Atoms>  (773) 
nan

$$$$
CHEMBL3261088
     RDKit          3D

  0  0  0  0  0  0  0  0  0  0999 V3000
M  V30 BEGIN CTAB
M  V30 COUNTS 50 54 0 0 0
M  V30 BEGIN ATOM
M  V30 1 C 2.651540 -4.147659 -2.431725 0
M  V30 2 C 2.839054 -3.569593 -1.054183 0
M  V30 3 C 3.587928 -4.163888 -0.046495 0
M  V30 4 C 3.672794 -3.522291 1.167891 0
M  V30 5 C 3.031475 -2.321078 1.379507 0
M  V30 6 C 2.293175 -1.745190 0.370592 0
M  V30 7 C 1.553291 -0.469443 0.447765 0
M  V30 8 N 1.906623 0.580109 -0.339435 0
M  V30 9 C 1.062632 1.617220 -0.060902 0
M  V30 10 C 1.164949 2.930330 -0.746133 0
M  V30 11 N 0.357978 2.973647 -1.947344 0
M  V30 12 C -1.048786 2.804966 -1.871378 0
M  V30 13 S -2.070369 2.829139 -3.139648 0
M  V30 14 C -1.969059 2.578185 -0.773281 0
M  V30 15 C -1.982721 3.682507 0.082860 0
M  V30 16 C -2.794843 3.701048 1.214564 0
M  V30 17 C -3.592638 2.604081 1.480875 0
M  V30 18 C -3.574712 1.517430 0.632403 0
M  V30 19 C -2.773357 1.495604 -0.487083 0
M  V30 20 F -2.657996 0.504230 -1.397682 0
M  V30 21 N 0.206186 1.201579 0.885313 0
M  V30 22 C 0.465863 -0.069942 1.229960 0
M  V30 23 C -0.081427 -1.052087 2.155830 0
M  V30 24 C -0.150644 -0.931294 3.517834 0
M  V30 25 C -0.704608 -1.970868 4.234513 0
M  V30 26 C -1.198799 -3.130411 3.695089 0
M  V30 27 N -1.766107 -4.263026 4.084569 0
M  V30 28 C -2.043794 -5.058656 3.051530 0
M  V30 29 N -1.630791 -4.394862 1.950958 0
M  V30 30 N -1.120355 -3.230161 2.339593 0
M  V30 31 C -0.591158 -2.241300 1.633853 0
M  V30 32 N 2.229963 -2.394003 -0.799271 0
M  V30 33 H 1.611344 -4.447684 -2.559743 0
M  V30 34 H 3.392224 -4.962127 -2.549550 0
M  V30 35 H 2.951643 -3.314933 -3.117313 0
M  V30 36 H 4.064546 -5.104247 -0.277576 0
M  V30 37 H 4.245677 -3.961491 1.962728 0
M  V30 38 H 3.060491 -1.766251 2.315878 0
M  V30 39 H 2.683928 0.609440 -1.040519 0
M  V30 40 H 0.960076 3.775209 -0.061531 0
M  V30 41 H 2.223441 3.093714 -1.092540 0
M  V30 42 H 0.697184 3.121928 -2.920879 0
M  V30 43 H -1.412174 4.594006 -0.010404 0
M  V30 44 H -2.845715 4.528739 1.912248 0
M  V30 45 H -4.256689 2.532100 2.340281 0
M  V30 46 H -4.156762 0.604505 0.741416 0
M  V30 47 H 0.234257 -0.026421 3.949467 0
M  V30 48 H -0.767252 -1.889165 5.322489 0
M  V30 49 H -2.508846 -6.010647 3.254471 0
M  V30 50 H -0.547139 -2.362438 0.539399 0
M  V30 END ATOM
M  V30 BEGIN BOND
M  V30 1 1 1 2
M  V30 2 2 2 3
M  V30 3 1 3 4
M  V30 4 2 4 5
M  V30 5 1 5 6
M  V30 6 1 6 7
M  V30 7 1 7 8
M  V30 8 1 8 9
M  V30 9 1 9 10
M  V30 10 1 10 11
M  V30 11 1 11 12
M  V30 12 2 12 13
M  V30 13 1 12 14
M  V30 14 2 14 15
M  V30 15 1 15 16
M  V30 16 2 16 17
M  V30 17 1 17 18
M  V30 18 2 18 19
M  V30 19 1 19 20
M  V30 20 2 9 21
M  V30 21 1 21 22
M  V30 22 1 22 23
M  V30 23 1 23 24
M  V30 24 2 24 25
M  V30 25 1 25 26
M  V30 26 2 26 27
M  V30 27 1 27 28
M  V30 28 2 28 29
M  V30 29 1 29 30
M  V30 30 1 30 31
M  V30 31 2 6 32
M  V30 32 1 32 2
M  V30 33 2 22 7
M  V30 34 2 31 23
M  V30 35 1 19 14
M  V30 36 1 30 26
M  V30 37 1 1 33
M  V30 38 1 1 34
M  V30 39 1 1 35
M  V30 40 1 3 36
M  V30 41 1 4 37
M  V30 42 1 5 38
M  V30 43 1 8 39
M  V30 44 1 10 40
M  V30 45 1 10 41
M  V30 46 1 11 42
M  V30 47 1 15 43
M  V30 48 1 16 44
M  V30 49 1 17 45
M  V30 50 1 18 46
M  V30 51 1 24 47
M  V30 52 1 25 48
M  V30 53 1 28 49
M  V30 54 1 31 50
M  V30 END BOND
M  V30 END CTAB
M  END
>  <Dataset>  (774) 
ChEMBL_Kinases

>  <Ligand_Instance>  (774) 
nan

>  <PDB_ID>  (774) 
nan

>  <Standardized_SMILES>  (774) 
Cc1cccc(-c2[nH]c(CNC(=S)c3ccccc3F)nc2-c2ccc3ncnn3c2)n1

>  <Name>  (774) 
nan

>  <Pocket>  (774) 
nan

>  <ATP_Site>  (774) 
nan

>  <Peripheral>  (774) 
nan

>  <Num_H_Atoms_ProtBoundConf>  (774) 
nan

>  <Num_Resolved_Atoms>  (774) 
nan

>  <Num_Not_Resolved_Atoms>  (774) 
nan

$$$$
CHEMBL3261089
     RDKit          3D

  0  0  0  0  0  0  0  0  0  0999 V3000
M  V30 BEGIN CTAB
M  V30 COUNTS 51 55 0 0 0
M  V30 BEGIN ATOM
M  V30 1 C 1.258336 -2.281277 4.597813 0
M  V30 2 C 0.270927 -2.370005 3.484572 0
M  V30 3 C -0.895113 -3.103247 3.590662 0
M  V30 4 C -1.807465 -3.191371 2.576226 0
M  V30 5 C -1.557462 -2.516200 1.382828 0
M  V30 6 C -0.388586 -1.786268 1.287973 0
M  V30 7 C -0.203263 -1.114845 0.017008 0
M  V30 8 N -1.069099 -0.175826 -0.439556 0
M  V30 9 C -0.680452 0.285533 -1.619704 0
M  V30 10 C -1.206418 1.293430 -2.577184 0
M  V30 11 N -0.621419 2.570018 -2.274822 0
M  V30 12 C -0.748119 3.274939 -1.056544 0
M  V30 13 S -0.053397 4.723871 -0.786644 0
M  V30 14 C -1.433105 3.009707 0.197216 0
M  V30 15 C -0.816127 2.799150 1.412797 0
M  V30 16 C -1.500501 2.548696 2.583996 0
M  V30 17 C -2.884344 2.513413 2.499792 0
M  V30 18 C -3.591632 2.713369 1.322099 0
M  V30 19 C -5.020578 2.668709 1.277097 0
M  V30 20 N -6.192510 2.630285 1.225295 0
M  V30 21 C -2.819917 2.956171 0.207539 0
M  V30 22 N 0.455418 -0.381889 -1.906629 0
M  V30 23 C 0.768790 -1.245051 -0.920356 0
M  V30 24 C 1.874070 -2.181574 -0.749722 0
M  V30 25 C 1.526181 -3.525007 -0.677207 0
M  V30 26 C 2.483742 -4.506034 -0.516274 0
M  V30 27 C 3.816480 -4.161703 -0.424029 0
M  V30 28 N 4.977894 -4.814749 -0.270186 0
M  V30 29 C 5.997758 -3.936729 -0.246948 0
M  V30 30 N 5.466744 -2.686693 -0.390605 0
M  V30 31 N 4.137158 -2.838488 -0.497412 0
M  V30 32 C 3.221032 -1.853420 -0.654961 0
M  V30 33 N 0.482036 -1.729694 2.318217 0
M  V30 34 H 1.693176 -1.244891 4.573263 0
M  V30 35 H 0.781936 -2.492218 5.574330 0
M  V30 36 H 2.085484 -2.969714 4.358768 0
M  V30 37 H -1.041801 -3.613135 4.548029 0
M  V30 38 H -2.715866 -3.769110 2.673577 0
M  V30 39 H -2.291660 -2.595890 0.586414 0
M  V30 40 H -1.934748 0.173970 0.024232 0
M  V30 41 H -0.998241 0.991781 -3.632496 0
M  V30 42 H -2.321780 1.331080 -2.522547 0
M  V30 43 H -0.046499 3.041319 -3.002444 0
M  V30 44 H 0.281835 2.836578 1.429933 0
M  V30 45 H -0.980869 2.387641 3.522549 0
M  V30 46 H -3.436005 2.314376 3.429234 0
M  V30 47 H -3.335149 3.120939 -0.749441 0
M  V30 48 H 0.472127 -3.835502 -0.747269 0
M  V30 49 H 2.256350 -5.576870 -0.453980 0
M  V30 50 H 7.074680 -3.991555 -0.146726 0
M  V30 51 H 3.457673 -0.822724 -0.713112 0
M  V30 END ATOM
M  V30 BEGIN BOND
M  V30 1 1 1 2
M  V30 2 2 2 3
M  V30 3 1 3 4
M  V30 4 2 4 5
M  V30 5 1 5 6
M  V30 6 1 6 7
M  V30 7 1 7 8
M  V30 8 1 8 9
M  V30 9 1 9 10
M  V30 10 1 10 11
M  V30 11 1 11 12
M  V30 12 2 12 13
M  V30 13 1 12 14
M  V30 14 2 14 15
M  V30 15 1 15 16
M  V30 16 2 16 17
M  V30 17 1 17 18
M  V30 18 1 18 19
M  V30 19 3 19 20
M  V30 20 2 18 21
M  V30 21 2 9 22
M  V30 22 1 22 23
M  V30 23 1 23 24
M  V30 24 1 24 25
M  V30 25 2 25 26
M  V30 26 1 26 27
M  V30 27 2 27 28
M  V30 28 1 28 29
M  V30 29 2 29 30
M  V30 30 1 30 31
M  V30 31 1 31 32
M  V30 32 2 6 33
M  V30 33 1 33 2
M  V30 34 2 23 7
M  V30 35 2 32 24
M  V30 36 1 21 14
M  V30 37 1 31 27
M  V30 38 1 1 34
M  V30 39 1 1 35
M  V30 40 1 1 36
M  V30 41 1 3 37
M  V30 42 1 4 38
M  V30 43 1 5 39
M  V30 44 1 8 40
M  V30 45 1 10 41
M  V30 46 1 10 42
M  V30 47 1 11 43
M  V30 48 1 15 44
M  V30 49 1 16 45
M  V30 50 1 17 46
M  V30 51 1 21 47
M  V30 52 1 25 48
M  V30 53 1 26 49
M  V30 54 1 29 50
M  V30 55 1 32 51
M  V30 END BOND
M  V30 END CTAB
M  END
>  <Dataset>  (775) 
ChEMBL_Kinases

>  <Ligand_Instance>  (775) 
nan

>  <PDB_ID>  (775) 
nan

>  <Standardized_SMILES>  (775) 
Cc1cccc(-c2[nH]c(CNC(=S)c3cccc(C#N)c3)nc2-c2ccc3ncnn3c2)n1

>  <Name>  (775) 
nan

>  <Pocket>  (775) 
nan

>  <ATP_Site>  (775) 
nan

>  <Peripheral>  (775) 
nan

>  <Num_H_Atoms_ProtBoundConf>  (775) 
nan

>  <Num_Resolved_Atoms>  (775) 
nan

>  <Num_Not_Resolved_Atoms>  (775) 
nan

$$$$
CHEMBL3261090
     RDKit          3D

  0  0  0  0  0  0  0  0  0  0999 V3000
M  V30 BEGIN CTAB
M  V30 COUNTS 54 58 0 0 0
M  V30 BEGIN ATOM
M  V30 1 C 3.565929 -4.306455 4.523380 0
M  V30 2 C 2.843544 -3.048689 4.124518 0
M  V30 3 C 2.520796 -2.202589 5.158586 0
M  V30 4 C 1.855700 -1.047551 4.776427 0
M  V30 5 C 1.573098 -0.832485 3.436312 0
M  V30 6 C 1.926370 -1.725391 2.445883 0
M  V30 7 C 1.630192 -1.498729 1.023028 0
M  V30 8 N 2.145060 -0.446936 0.360363 0
M  V30 9 C 1.748707 -0.433694 -0.920858 0
M  V30 10 C 1.992966 0.461279 -2.080544 0
M  V30 11 N 0.938314 1.452079 -2.112349 0
M  V30 12 C 0.533752 2.434076 -1.170306 0
M  V30 13 S 1.167407 2.754675 0.305872 0
M  V30 14 C -0.575605 3.397839 -1.332792 0
M  V30 15 C -0.504220 4.739429 -1.109762 0
M  V30 16 C -1.663175 5.489572 -1.323043 0
M  V30 17 C -2.832464 4.892236 -1.742954 0
M  V30 18 C -2.897114 3.519902 -1.968710 0
M  V30 19 C -4.148272 2.930523 -2.411377 0
M  V30 20 N -4.182440 1.519080 -2.642191 0
M  V30 21 O -5.136936 3.699005 -2.567844 0
M  V30 22 C -1.752452 2.792501 -1.756035 0
M  V30 23 N 0.949731 -1.531123 -1.056980 0
M  V30 24 C 0.862718 -2.193813 0.110761 0
M  V30 25 C 0.141996 -3.391675 0.440494 0
M  V30 26 C 0.608072 -4.620845 0.850824 0
M  V30 27 C -0.243466 -5.669591 1.127101 0
M  V30 28 C -1.604251 -5.498363 0.993298 0
M  V30 29 N -2.641868 -6.327846 1.190138 0
M  V30 30 C -3.775657 -5.638157 0.908225 0
M  V30 31 N -3.405688 -4.380681 0.538588 0
M  V30 32 N -2.067311 -4.284794 0.587976 0
M  V30 33 C -1.240456 -3.235987 0.310266 0
M  V30 34 N 2.563338 -2.825556 2.837828 0
M  V30 35 H 4.536710 -3.950013 4.972430 0
M  V30 36 H 3.016574 -4.797065 5.353348 0
M  V30 37 H 3.757641 -4.961471 3.671923 0
M  V30 38 H 2.770714 -2.429499 6.186994 0
M  V30 39 H 1.565994 -0.328714 5.530778 0
M  V30 40 H 1.058604 0.070096 3.179665 0
M  V30 41 H 2.765133 0.278254 0.729533 0
M  V30 42 H 2.952130 0.996396 -1.905064 0
M  V30 43 H 1.981397 -0.093027 -3.023874 0
M  V30 44 H 0.314595 1.506064 -2.974490 0
M  V30 45 H 0.451289 5.128915 -0.781392 0
M  V30 46 H -1.575657 6.566791 -1.135226 0
M  V30 47 H -3.710861 5.490857 -1.899911 0
M  V30 48 H -3.700574 1.094936 -3.479609 0
M  V30 49 H -4.580784 0.663503 -2.192861 0
M  V30 50 H -1.876215 1.731922 -1.951652 0
M  V30 51 H 1.685183 -4.666369 0.927667 0
M  V30 52 H 0.158960 -6.602208 1.441457 0
M  V30 53 H -4.836752 -5.849374 0.910999 0
M  V30 54 H -1.739437 -2.314692 -0.006139 0
M  V30 END ATOM
M  V30 BEGIN BOND
M  V30 1 1 1 2
M  V30 2 2 2 3
M  V30 3 1 3 4
M  V30 4 2 4 5
M  V30 5 1 5 6
M  V30 6 1 6 7
M  V30 7 1 7 8
M  V30 8 1 8 9
M  V30 9 1 9 10
M  V30 10 1 10 11
M  V30 11 1 11 12
M  V30 12 2 12 13
M  V30 13 1 12 14
M  V30 14 2 14 15
M  V30 15 1 15 16
M  V30 16 2 16 17
M  V30 17 1 17 18
M  V30 18 1 18 19
M  V30 19 1 19 20
M  V30 20 2 19 21
M  V30 21 2 18 22
M  V30 22 2 9 23
M  V30 23 1 23 24
M  V30 24 1 24 25
M  V30 25 1 25 26
M  V30 26 2 26 27
M  V30 27 1 27 28
M  V30 28 2 28 29
M  V30 29 1 29 30
M  V30 30 2 30 31
M  V30 31 1 31 32
M  V30 32 1 32 33
M  V30 33 2 6 34
M  V30 34 1 34 2
M  V30 35 2 24 7
M  V30 36 2 33 25
M  V30 37 1 22 14
M  V30 38 1 32 28
M  V30 39 1 1 35
M  V30 40 1 1 36
M  V30 41 1 1 37
M  V30 42 1 3 38
M  V30 43 1 4 39
M  V30 44 1 5 40
M  V30 45 1 8 41
M  V30 46 1 10 42
M  V30 47 1 10 43
M  V30 48 1 11 44
M  V30 49 1 15 45
M  V30 50 1 16 46
M  V30 51 1 17 47
M  V30 52 1 20 48
M  V30 53 1 20 49
M  V30 54 1 22 50
M  V30 55 1 26 51
M  V30 56 1 27 52
M  V30 57 1 30 53
M  V30 58 1 33 54
M  V30 END BOND
M  V30 END CTAB
M  END
>  <Dataset>  (776) 
ChEMBL_Kinases

>  <Ligand_Instance>  (776) 
nan

>  <PDB_ID>  (776) 
nan

>  <Standardized_SMILES>  (776) 
Cc1cccc(-c2[nH]c(CNC(=S)c3cccc(C(N)=O)c3)nc2-c2ccc3ncnn3c2)n1

>  <Name>  (776) 
nan

>  <Pocket>  (776) 
nan

>  <ATP_Site>  (776) 
nan

>  <Peripheral>  (776) 
nan

>  <Num_H_Atoms_ProtBoundConf>  (776) 
nan

>  <Num_Resolved_Atoms>  (776) 
nan

>  <Num_Not_Resolved_Atoms>  (776) 
nan

$$$$
CHEMBL4212480
     RDKit          3D

  0  0  0  0  0  0  0  0  0  0999 V3000
M  V30 BEGIN CTAB
M  V30 COUNTS 39 42 0 0 0
M  V30 BEGIN ATOM
M  V30 1 N 1.754695 -5.963957 5.013890 0
M  V30 2 C 1.862894 -4.558156 4.813771 0
M  V30 3 O 2.449093 -3.875763 5.693442 0
M  V30 4 C 1.313841 -3.900451 3.622531 0
M  V30 5 C 1.480787 -2.532634 3.540728 0
M  V30 6 C 0.964974 -1.911806 2.420761 0
M  V30 7 C 0.312242 -2.606359 1.422704 0
M  V30 8 C -0.252232 -2.005028 0.219085 0
M  V30 9 C -0.191736 -0.654812 -0.052862 0
M  V30 10 N -0.703110 -0.074438 -1.153463 0
M  V30 11 C -0.739781 1.200784 -1.581756 0
M  V30 12 C -0.200943 2.391844 -0.932307 0
M  V30 13 C -1.096313 3.468195 -0.948681 0
M  V30 14 C -0.779590 4.688150 -0.386666 0
M  V30 15 C 0.448544 4.874335 0.213514 0
M  V30 16 O 0.900287 6.041834 0.816179 0
M  V30 17 C 1.323598 3.807958 0.224488 0
M  V30 18 C 1.021283 2.582537 -0.333155 0
M  V30 19 C -1.402849 1.193751 -2.793237 0
M  V30 20 N -1.754531 -0.075301 -3.077480 0
M  V30 21 C -1.321583 -0.844767 -2.067224 0
M  V30 22 C -1.403328 -2.202445 -1.832058 0
M  V30 23 N -0.878291 -2.743003 -0.717771 0
M  V30 24 C 0.187562 -3.972033 1.581264 0
M  V30 25 C 0.674433 -4.668721 2.669737 0
M  V30 26 H 1.940317 -6.865290 4.521539 0
M  V30 27 H 1.938714 -6.867119 4.525358 0
M  V30 28 H 1.986058 -1.982905 4.309895 0
M  V30 29 H 1.071343 -0.848606 2.314365 0
M  V30 30 H 0.292663 0.013772 0.645006 0
M  V30 31 H -2.080777 3.434921 -1.389481 0
M  V30 32 H -1.449808 5.537918 -0.383601 0
M  V30 33 H 0.263722 6.816247 0.959893 0
M  V30 34 H 2.305382 3.854030 0.668567 0
M  V30 35 H 1.647997 1.716499 -0.361251 0
M  V30 36 H -1.647077 1.994588 -3.466981 0
M  V30 37 H -1.896449 -2.793360 -2.567224 0
M  V30 38 H -0.322084 -4.570175 0.817793 0
M  V30 39 H 0.567018 -5.741037 2.776801 0
M  V30 END ATOM
M  V30 BEGIN BOND
M  V30 1 1 1 2
M  V30 2 2 2 3
M  V30 3 1 2 4
M  V30 4 2 4 5
M  V30 5 1 5 6
M  V30 6 2 6 7
M  V30 7 1 7 8
M  V30 8 2 8 9
M  V30 9 1 9 10
M  V30 10 1 10 11
M  V30 11 1 11 12
M  V30 12 2 12 13
M  V30 13 1 13 14
M  V30 14 2 14 15
M  V30 15 1 15 16
M  V30 16 1 15 17
M  V30 17 2 17 18
M  V30 18 2 11 19
M  V30 19 1 19 20
M  V30 20 2 20 21
M  V30 21 1 21 22
M  V30 22 2 22 23
M  V30 23 1 7 24
M  V30 24 2 24 25
M  V30 25 1 25 4
M  V30 26 1 23 8
M  V30 27 1 21 10
M  V30 28 1 18 12
M  V30 29 1 1 26
M  V30 30 1 1 27
M  V30 31 1 5 28
M  V30 32 1 6 29
M  V30 33 1 9 30
M  V30 34 1 13 31
M  V30 35 1 14 32
M  V30 36 1 16 33
M  V30 37 1 17 34
M  V30 38 1 18 35
M  V30 39 1 19 36
M  V30 40 1 22 37
M  V30 41 1 24 38
M  V30 42 1 25 39
M  V30 END BOND
M  V30 END CTAB
M  END
>  <Dataset>  (777) 
ChEMBL_Kinases

>  <Ligand_Instance>  (777) 
nan

>  <PDB_ID>  (777) 
nan

>  <Standardized_SMILES>  (777) 
NC(=O)c1ccc(-c2cn3c(-c4ccc(O)cc4)cnc3cn2)cc1

>  <Name>  (777) 
nan

>  <Pocket>  (777) 
nan

>  <ATP_Site>  (777) 
nan

>  <Peripheral>  (777) 
nan

>  <Num_H_Atoms_ProtBoundConf>  (777) 
nan

>  <Num_Resolved_Atoms>  (777) 
nan

>  <Num_Not_Resolved_Atoms>  (777) 
nan

$$$$
CHEMBL4212477
     RDKit          3D

  0  0  0  0  0  0  0  0  0  0999 V3000
M  V30 BEGIN CTAB
M  V30 COUNTS 62 67 0 0 0
M  V30 BEGIN ATOM
M  V30 1 F 4.370912 -6.442017 0.044007 0
M  V30 2 C 4.579186 -5.608179 1.124340 0
M  V30 3 C 5.386173 -6.089648 2.184321 0
M  V30 4 C 5.467050 -5.139851 3.132163 0
M  V30 5 C 4.960648 -3.888201 3.265744 0
M  V30 6 C 4.194719 -3.536355 2.168931 0
M  V30 7 N 3.595021 -2.251836 2.126221 0
M  V30 8 C 3.926732 -1.231583 2.976994 0
M  V30 9 N 3.226105 -0.129262 2.713862 0
M  V30 10 C 2.396214 -0.371431 1.674067 0
M  V30 11 C 1.436680 0.363244 0.939594 0
M  V30 12 N 1.345147 1.632347 1.495258 0
M  V30 13 C 1.243381 2.931414 2.053980 0
M  V30 14 C -0.109924 3.326773 2.534234 0
M  V30 15 N -0.780250 4.024845 1.554715 0
M  V30 16 C -1.980461 4.374576 2.024787 0
M  V30 17 C -3.102446 5.083073 1.562172 0
M  V30 18 F -3.036023 5.565523 0.275742 0
M  V30 19 C -4.196235 5.267586 2.352717 0
M  V30 20 F -5.284447 5.960964 1.885315 0
M  V30 21 C -4.298205 4.785683 3.651723 0
M  V30 22 C -3.201859 4.060446 4.183368 0
M  V30 23 C -2.159378 3.937112 3.303254 0
M  V30 24 N -0.980777 3.305470 3.553342 0
M  V30 25 N 0.812906 -0.267542 -0.061502 0
M  V30 26 C 1.067016 -1.540409 -0.373816 0
M  V30 27 N 0.290820 -2.087201 -1.450569 0
M  V30 28 C -0.997280 -2.445109 -0.904419 0
M  V30 29 C -1.891833 -3.146194 -1.835445 0
M  V30 30 N -2.318506 -2.639182 -3.024280 0
M  V30 31 C -3.229415 -3.491935 -3.744816 0
M  V30 32 C -4.628708 -2.927945 -3.453149 0
M  V30 33 O -4.672439 -1.700690 -4.099168 0
M  V30 34 C -3.804486 -0.764402 -3.594054 0
M  V30 35 C -2.381036 -1.330843 -3.443769 0
M  V30 36 N 1.980181 -2.207824 0.337755 0
M  V30 37 C 2.659652 -1.681488 1.351699 0
M  V30 38 C 3.949832 -4.354480 1.037461 0
M  V30 39 H 5.786703 -7.074398 2.094374 0
M  V30 40 H 6.090238 -5.465211 3.986174 0
M  V30 41 H 5.082766 -3.199265 4.078733 0
M  V30 42 H 4.641445 -1.234838 3.770795 0
M  V30 43 H 0.689180 2.060059 0.733753 0
M  V30 44 H 1.880388 2.850670 3.028564 0
M  V30 45 H 1.780798 3.716581 1.489436 0
M  V30 46 H -5.141141 4.913881 4.290462 0
M  V30 47 H -3.162909 3.634108 5.182124 0
M  V30 48 H -0.536924 2.769099 4.358167 0
M  V30 49 H 0.514396 -2.241197 -2.472232 0
M  V30 50 H -1.422370 -1.534183 -0.432054 0
M  V30 51 H -0.764422 -3.124479 -0.024678 0
M  V30 52 H -1.446105 -4.169379 -1.991736 0
M  V30 53 H -2.817522 -3.422054 -1.225195 0
M  V30 54 H -3.172209 -4.538163 -3.440701 0
M  V30 55 H -3.085371 -3.405766 -4.838163 0
M  V30 56 H -5.332953 -3.625514 -3.897051 0
M  V30 57 H -4.818310 -2.833686 -2.361539 0
M  V30 58 H -4.150114 -0.363531 -2.617155 0
M  V30 59 H -3.783767 0.096673 -4.293820 0
M  V30 60 H -1.823241 -0.565859 -2.918620 0
M  V30 61 H -2.007908 -1.296772 -4.513840 0
M  V30 62 H 3.363502 -4.114460 0.175131 0
M  V30 END ATOM
M  V30 BEGIN BOND
M  V30 1 1 1 2
M  V30 2 2 2 3
M  V30 3 1 3 4
M  V30 4 2 4 5
M  V30 5 1 5 6
M  V30 6 1 6 7
M  V30 7 1 7 8
M  V30 8 2 8 9
M  V30 9 1 9 10
M  V30 10 2 10 11
M  V30 11 1 11 12
M  V30 12 1 12 13
M  V30 13 1 13 14
M  V30 14 2 14 15
M  V30 15 1 15 16
M  V30 16 2 16 17
M  V30 17 1 17 18
M  V30 18 1 17 19
M  V30 19 1 19 20
M  V30 20 2 19 21
M  V30 21 1 21 22
M  V30 22 2 22 23
M  V30 23 1 23 24
M  V30 24 1 11 25
M  V30 25 2 25 26
M  V30 26 1 26 27
M  V30 27 1 27 28
M  V30 28 1 28 29
M  V30 29 1 29 30
M  V30 30 1 30 31
M  V30 31 1 31 32
M  V30 32 1 32 33
M  V30 33 1 33 34
M  V30 34 1 34 35
M  V30 35 1 26 36
M  V30 36 2 36 37
M  V30 37 2 6 38
M  V30 38 1 38 2
M  V30 39 1 37 7
M  V30 40 1 37 10
M  V30 41 1 24 14
M  V30 42 1 35 30
M  V30 43 1 23 16
M  V30 44 1 3 39
M  V30 45 1 4 40
M  V30 46 1 5 41
M  V30 47 1 8 42
M  V30 48 1 12 43
M  V30 49 1 13 44
M  V30 50 1 13 45
M  V30 51 1 21 46
M  V30 52 1 22 47
M  V30 53 1 24 48
M  V30 54 1 27 49
M  V30 55 1 28 50
M  V30 56 1 28 51
M  V30 57 1 29 52
M  V30 58 1 29 53
M  V30 59 1 31 54
M  V30 60 1 31 55
M  V30 61 1 32 56
M  V30 62 1 32 57
M  V30 63 1 34 58
M  V30 64 1 34 59
M  V30 65 1 35 60
M  V30 66 1 35 61
M  V30 67 1 38 62
M  V30 END BOND
M  V30 END CTAB
M  END
>  <Dataset>  (778) 
ChEMBL_Kinases

>  <Ligand_Instance>  (778) 
nan

>  <PDB_ID>  (778) 
nan

>  <Standardized_SMILES>  (778) 
Fc1cccc(-n2cnc3c(NCc4nc5c(F)c(F)ccc5[nH]4)nc(NCCN4CCOCC4)nc32)c1

>  <Name>  (778) 
nan

>  <Pocket>  (778) 
nan

>  <ATP_Site>  (778) 
nan

>  <Peripheral>  (778) 
nan

>  <Num_H_Atoms_ProtBoundConf>  (778) 
nan

>  <Num_Resolved_Atoms>  (778) 
nan

>  <Num_Not_Resolved_Atoms>  (778) 
nan

$$$$
CHEMBL3675492
     RDKit          3D

  0  0  0  0  0  0  0  0  0  0999 V3000
M  V30 BEGIN CTAB
M  V30 COUNTS 59 62 0 0 0
M  V30 BEGIN ATOM
M  V30 1 C 3.406268 -1.879774 4.921507 0
M  V30 2 O 3.776986 -1.309660 3.711842 0
M  V30 3 C 3.595621 -2.154198 2.650254 0
M  V30 4 C 2.188804 -2.614980 2.421331 0
M  V30 5 C 1.254189 -1.423274 2.164251 0
M  V30 6 N 1.561131 -0.628046 1.057220 0
M  V30 7 C 1.867960 0.166683 -0.049869 0
M  V30 8 N 1.937383 -0.124688 -1.345278 0
M  V30 9 C 2.241326 0.711265 -2.334818 0
M  V30 10 N 2.497850 1.959019 -1.967911 0
M  V30 11 C 2.464481 2.384811 -0.711929 0
M  V30 12 C 2.744180 3.693943 -0.421471 0
M  V30 13 C 3.069189 4.577223 -1.525097 0
M  V30 14 N 3.107601 4.174268 -2.887900 0
M  V30 15 O 3.380965 5.743816 -1.807257 0
M  V30 16 C 2.729655 4.204235 0.854706 0
M  V30 17 C 2.412448 3.320817 1.864192 0
M  V30 18 C 2.135077 2.012349 1.550001 0
M  V30 19 C 2.146803 1.495018 0.286609 0
M  V30 20 C -0.133524 -1.952309 2.265884 0
M  V30 21 C -0.863057 -1.909830 3.458669 0
M  V30 22 C -2.148223 -2.383916 3.613344 0
M  V30 23 C -2.769264 -2.944570 2.512119 0
M  V30 24 C -2.089766 -3.008809 1.313144 0
M  V30 25 N -2.792934 -3.605035 0.204323 0
M  V30 26 C -3.501114 -2.596526 -0.486353 0
M  V30 27 O -3.261749 -1.495872 0.127728 0
M  V30 28 C -4.344900 -2.696891 -1.652882 0
M  V30 29 C -4.889235 -1.473025 -2.071688 0
M  V30 30 C -5.714175 -1.429989 -3.176209 0
M  V30 31 C -6.049905 -2.545819 -3.919082 0
M  V30 32 C -5.511521 -3.743411 -3.501109 0
M  V30 33 F -5.759733 -4.911781 -4.139463 0
M  V30 34 C -4.687161 -3.794311 -2.399849 0
M  V30 35 F -4.163192 -4.952003 -1.991120 0
M  V30 36 C -0.812373 -2.523491 1.209677 0
M  V30 37 H 2.331580 -2.137764 4.857831 0
M  V30 38 H 3.553632 -1.143342 5.754188 0
M  V30 39 H 3.941549 -2.835914 5.133871 0
M  V30 40 H 4.263305 -3.047410 2.721279 0
M  V30 41 H 3.924290 -1.604401 1.728847 0
M  V30 42 H 2.117591 -3.275591 1.519307 0
M  V30 43 H 1.812557 -3.231764 3.252661 0
M  V30 44 H 1.385654 -0.773662 3.103141 0
M  V30 45 H 1.387016 -1.548107 0.535032 0
M  V30 46 H 2.233390 0.240385 -3.303828 0
M  V30 47 H 2.531428 3.745635 -3.632858 0
M  V30 48 H 2.431429 3.737416 -3.545914 0
M  V30 49 H 2.960562 5.245631 1.010530 0
M  V30 50 H 2.388349 3.676275 2.882343 0
M  V30 51 H 1.895624 1.381677 2.388382 0
M  V30 52 H -0.390939 -1.470013 4.345343 0
M  V30 53 H -2.631010 -2.301768 4.595436 0
M  V30 54 H -3.777471 -3.322602 2.612245 0
M  V30 55 H -2.886312 -4.591712 -0.182814 0
M  V30 56 H -4.680437 -0.529714 -1.545795 0
M  V30 57 H -6.121541 -0.475423 -3.481163 0
M  V30 58 H -6.697650 -2.492927 -4.781593 0
M  V30 59 H -0.329818 -2.601084 0.245557 0
M  V30 END ATOM
M  V30 BEGIN BOND
M  V30 1 1 1 2
M  V30 2 1 2 3
M  V30 3 1 3 4
M  V30 4 1 4 5
M  V30 5 1 5 6
M  V30 6 1 6 7
M  V30 7 2 7 8
M  V30 8 1 8 9
M  V30 9 2 9 10
M  V30 10 1 10 11
M  V30 11 2 11 12
M  V30 12 1 12 13
M  V30 13 1 13 14
M  V30 14 2 13 15
M  V30 15 1 12 16
M  V30 16 2 16 17
M  V30 17 1 17 18
M  V30 18 2 18 19
M  V30 19 1 5 20
M  V30 20 2 20 21
M  V30 21 1 21 22
M  V30 22 2 22 23
M  V30 23 1 23 24
M  V30 24 1 24 25
M  V30 25 1 25 26
M  V30 26 2 26 27
M  V30 27 1 26 28
M  V30 28 2 28 29
M  V30 29 1 29 30
M  V30 30 2 30 31
M  V30 31 1 31 32
M  V30 32 1 32 33
M  V30 33 2 32 34
M  V30 34 1 34 35
M  V30 35 2 24 36
M  V30 36 1 19 7
M  V30 37 1 36 20
M  V30 38 1 19 11
M  V30 39 1 34 28
M  V30 40 1 1 37
M  V30 41 1 1 38
M  V30 42 1 1 39
M  V30 43 1 3 40
M  V30 44 1 3 41
M  V30 45 1 4 42
M  V30 46 1 4 43
M  V30 47 1 5 44
M  V30 48 1 6 45
M  V30 49 1 9 46
M  V30 50 1 14 47
M  V30 51 1 14 48
M  V30 52 1 16 49
M  V30 53 1 17 50
M  V30 54 1 18 51
M  V30 55 1 21 52
M  V30 56 1 22 53
M  V30 57 1 23 54
M  V30 58 1 25 55
M  V30 59 1 29 56
M  V30 60 1 30 57
M  V30 61 1 31 58
M  V30 62 1 36 59
M  V30 END BOND
M  V30 END CTAB
M  END
>  <Dataset>  (779) 
ChEMBL_Kinases

>  <Ligand_Instance>  (779) 
nan

>  <PDB_ID>  (779) 
nan

>  <Standardized_SMILES>  (779) 
COCCC(Nc1ncnc2c(C(N)=O)cccc12)c1cccc(NC(=O)c2cccc(F)c2F)c1

>  <Name>  (779) 
nan

>  <Pocket>  (779) 
nan

>  <ATP_Site>  (779) 
nan

>  <Peripheral>  (779) 
nan

>  <Num_H_Atoms_ProtBoundConf>  (779) 
nan

>  <Num_Resolved_Atoms>  (779) 
nan

>  <Num_Not_Resolved_Atoms>  (779) 
nan

$$$$
CHEMBL3261095
     RDKit          3D

  0  0  0  0  0  0  0  0  0  0999 V3000
M  V30 BEGIN CTAB
M  V30 COUNTS 50 54 0 0 0
M  V30 BEGIN ATOM
M  V30 1 C 3.918392 -3.991616 0.066742 0
M  V30 2 C 3.426669 -3.238387 1.267916 0
M  V30 3 C 3.743601 -3.732881 2.507720 0
M  V30 4 C 3.287568 -3.030177 3.596234 0
M  V30 5 C 2.555010 -1.890726 3.403222 0
M  V30 6 C 2.234273 -1.384804 2.136966 0
M  V30 7 C 1.450800 -0.167041 2.112623 0
M  V30 8 N 1.689488 1.136163 2.027106 0
M  V30 9 N 0.610839 1.860009 2.053317 0
M  V30 10 C 0.194575 3.246617 1.970574 0
M  V30 11 C -0.085328 3.573079 0.514877 0
M  V30 12 S -0.198032 5.047658 -0.163183 0
M  V30 13 N -0.299258 2.434708 -0.347788 0
M  V30 14 C -0.595995 2.279879 -1.737981 0
M  V30 15 C -1.934289 2.594824 -1.997304 0
M  V30 16 C -2.537706 2.534212 -3.255305 0
M  V30 17 C -1.702829 2.125235 -4.288471 0
M  V30 18 C -0.377065 1.806995 -4.072726 0
M  V30 19 C 0.172855 1.880584 -2.818265 0
M  V30 20 F 1.444944 1.604645 -2.433915 0
M  V30 21 C -0.428147 0.964686 2.167286 0
M  V30 22 C 0.091022 -0.342503 2.204458 0
M  V30 23 C -0.924942 -1.425170 2.283099 0
M  V30 24 C -1.829751 -1.819182 3.234847 0
M  V30 25 C -2.675847 -2.847745 2.938696 0
M  V30 26 C -2.579490 -3.440897 1.700960 0
M  V30 27 N -3.335047 -4.467905 1.236775 0
M  V30 28 C -2.924128 -4.736921 0.001597 0
M  V30 29 N -1.930555 -3.905852 -0.321200 0
M  V30 30 N -1.695858 -3.088697 0.713745 0
M  V30 31 C -0.862263 -2.052309 1.047249 0
M  V30 32 N 2.716679 -2.134166 1.109541 0
M  V30 33 H 3.028623 -4.293119 -0.502543 0
M  V30 34 H 4.591565 -4.781577 0.370755 0
M  V30 35 H 4.445408 -3.218050 -0.569594 0
M  V30 36 H 4.324711 -4.638391 2.707200 0
M  V30 37 H 3.514365 -3.395274 4.609427 0
M  V30 38 H 2.224029 -1.378823 4.296306 0
M  V30 39 H 1.033409 3.893866 2.272819 0
M  V30 40 H -0.670600 3.484027 2.622243 0
M  V30 41 H -0.272025 1.414937 -0.180950 0
M  V30 42 H -2.650297 2.921345 -1.220868 0
M  V30 43 H -3.581164 2.786967 -3.405975 0
M  V30 44 H -2.087070 2.047267 -5.311767 0
M  V30 45 H 0.312882 1.482406 -4.856256 0
M  V30 46 H -1.504159 1.210931 2.224430 0
M  V30 47 H -1.694050 -1.182371 4.124548 0
M  V30 48 H -3.345081 -3.087870 3.738795 0
M  V30 49 H -3.173356 -5.425377 -0.788693 0
M  V30 50 H -0.215855 -1.874646 0.179976 0
M  V30 END ATOM
M  V30 BEGIN BOND
M  V30 1 1 1 2
M  V30 2 2 2 3
M  V30 3 1 3 4
M  V30 4 2 4 5
M  V30 5 1 5 6
M  V30 6 1 6 7
M  V30 7 2 7 8
M  V30 8 1 8 9
M  V30 9 1 9 10
M  V30 10 1 10 11
M  V30 11 2 11 12
M  V30 12 1 11 13
M  V30 13 1 13 14
M  V30 14 2 14 15
M  V30 15 1 15 16
M  V30 16 2 16 17
M  V30 17 1 17 18
M  V30 18 2 18 19
M  V30 19 1 19 20
M  V30 20 1 9 21
M  V30 21 2 21 22
M  V30 22 1 22 23
M  V30 23 1 23 24
M  V30 24 2 24 25
M  V30 25 1 25 26
M  V30 26 2 26 27
M  V30 27 1 27 28
M  V30 28 2 28 29
M  V30 29 1 29 30
M  V30 30 1 30 31
M  V30 31 2 6 32
M  V30 32 1 32 2
M  V30 33 1 22 7
M  V30 34 2 31 23
M  V30 35 1 19 14
M  V30 36 1 30 26
M  V30 37 1 1 33
M  V30 38 1 1 34
M  V30 39 1 1 35
M  V30 40 1 3 36
M  V30 41 1 4 37
M  V30 42 1 5 38
M  V30 43 1 10 39
M  V30 44 1 10 40
M  V30 45 1 13 41
M  V30 46 1 15 42
M  V30 47 1 16 43
M  V30 48 1 17 44
M  V30 49 1 18 45
M  V30 50 1 21 46
M  V30 51 1 24 47
M  V30 52 1 25 48
M  V30 53 1 28 49
M  V30 54 1 31 50
M  V30 END BOND
M  V30 END CTAB
M  END
>  <Dataset>  (780) 
ChEMBL_Kinases

>  <Ligand_Instance>  (780) 
nan

>  <PDB_ID>  (780) 
nan

>  <Standardized_SMILES>  (780) 
Cc1cccc(-c2nn(CC(=S)Nc3ccccc3F)cc2-c2ccc3ncnn3c2)n1

>  <Name>  (780) 
nan

>  <Pocket>  (780) 
nan

>  <ATP_Site>  (780) 
nan

>  <Peripheral>  (780) 
nan

>  <Num_H_Atoms_ProtBoundConf>  (780) 
nan

>  <Num_Resolved_Atoms>  (780) 
nan

>  <Num_Not_Resolved_Atoms>  (780) 
nan

$$$$
CHEMBL3394093
     RDKit          3D

  0  0  0  0  0  0  0  0  0  0999 V3000
M  V30 BEGIN CTAB
M  V30 COUNTS 47 49 0 0 0
M  V30 BEGIN ATOM
M  V30 1 C -2.093998 -4.209509 1.842914 0
M  V30 2 O -0.712106 -4.259849 1.658173 0
M  V30 3 C -0.212734 -2.970974 1.777896 0
M  V30 4 C 0.462530 -2.553227 0.462737 0
M  V30 5 N 0.970557 -1.214251 0.623320 0
M  V30 6 C 2.208133 -1.077879 1.071180 0
M  V30 7 S 3.686259 -1.853288 1.570536 0
M  V30 8 C 3.782806 -3.612252 1.462966 0
M  V30 9 C 3.831822 -4.165113 0.112846 0
M  V30 10 N 3.858553 -4.587314 -0.960950 0
M  V30 11 N 2.406648 0.273673 1.145863 0
M  V30 12 C 1.264217 0.900908 0.732812 0
M  V30 13 C 0.897448 2.327723 0.602721 0
M  V30 14 C -0.121732 2.869357 1.379415 0
M  V30 15 C -0.460725 4.215708 1.247810 0
M  V30 16 C 0.221217 5.003387 0.343465 0
M  V30 17 F -0.189507 6.299323 0.296037 0
M  V30 18 C 1.246522 4.476400 -0.443924 0
M  V30 19 C 1.579240 3.134307 -0.307816 0
M  V30 20 C 0.332262 -0.056337 0.393396 0
M  V30 21 C -1.027535 0.107257 -0.099802 0
M  V30 22 C -2.228425 0.201672 0.558692 0
M  V30 23 C -3.356891 0.359230 -0.190048 0
M  V30 24 N -3.396143 0.431147 -1.530660 0
M  V30 25 C -2.219274 0.340508 -2.211392 0
M  V30 26 F -2.285804 0.415958 -3.549976 0
M  V30 27 C -1.049304 0.180247 -1.499240 0
M  V30 28 O 0.702808 -2.847634 2.807889 0
M  V30 29 C 0.251081 -1.865358 3.690114 0
M  V30 30 H -2.312282 -3.800037 2.867860 0
M  V30 31 H -2.490915 -3.461082 1.113113 0
M  V30 32 H -2.523431 -5.214818 1.730932 0
M  V30 33 H -1.013969 -2.236690 1.987928 0
M  V30 34 H 1.190814 -3.319122 0.257323 0
M  V30 35 H -0.285167 -2.587164 -0.362478 0
M  V30 36 H 3.018219 -4.135411 2.096696 0
M  V30 37 H 4.761238 -3.928807 1.934495 0
M  V30 38 H -0.646146 2.224749 2.087772 0
M  V30 39 H -1.263586 4.575481 1.881740 0
M  V30 40 H 1.726359 5.153449 -1.122143 0
M  V30 41 H 2.368477 2.727217 -0.914105 0
M  V30 42 H -2.109975 0.135465 1.621008 0
M  V30 43 H -4.284834 0.429217 0.380156 0
M  V30 44 H -0.169275 0.120554 -2.160110 0
M  V30 45 H -0.746946 -2.249072 4.048659 0
M  V30 46 H 0.927496 -1.716821 4.543300 0
M  V30 47 H 0.096084 -0.925200 3.142473 0
M  V30 END ATOM
M  V30 BEGIN BOND
M  V30 1 1 1 2
M  V30 2 1 2 3
M  V30 3 1 3 4
M  V30 4 1 4 5
M  V30 5 1 5 6
M  V30 6 1 6 7
M  V30 7 1 7 8
M  V30 8 1 8 9
M  V30 9 3 9 10
M  V30 10 2 6 11
M  V30 11 1 11 12
M  V30 12 1 12 13
M  V30 13 2 13 14
M  V30 14 1 14 15
M  V30 15 2 15 16
M  V30 16 1 16 17
M  V30 17 1 16 18
M  V30 18 2 18 19
M  V30 19 2 12 20
M  V30 20 1 20 21
M  V30 21 2 21 22
M  V30 22 1 22 23
M  V30 23 2 23 24
M  V30 24 1 24 25
M  V30 25 1 25 26
M  V30 26 2 25 27
M  V30 27 1 3 28
M  V30 28 1 28 29
M  V30 29 1 20 5
M  V30 30 1 27 21
M  V30 31 1 19 13
M  V30 32 1 1 30
M  V30 33 1 1 31
M  V30 34 1 1 32
M  V30 35 1 3 33
M  V30 36 1 4 34
M  V30 37 1 4 35
M  V30 38 1 8 36
M  V30 39 1 8 37
M  V30 40 1 14 38
M  V30 41 1 15 39
M  V30 42 1 18 40
M  V30 43 1 19 41
M  V30 44 1 22 42
M  V30 45 1 23 43
M  V30 46 1 27 44
M  V30 47 1 29 45
M  V30 48 1 29 46
M  V30 49 1 29 47
M  V30 END BOND
M  V30 END CTAB
M  END
>  <Dataset>  (781) 
ChEMBL_Kinases

>  <Ligand_Instance>  (781) 
nan

>  <PDB_ID>  (781) 
nan

>  <Standardized_SMILES>  (781) 
COC(Cn1c(SCC#N)nc(-c2ccc(F)cc2)c1-c1ccnc(F)c1)OC

>  <Name>  (781) 
nan

>  <Pocket>  (781) 
nan

>  <ATP_Site>  (781) 
nan

>  <Peripheral>  (781) 
nan

>  <Num_H_Atoms_ProtBoundConf>  (781) 
nan

>  <Num_Resolved_Atoms>  (781) 
nan

>  <Num_Not_Resolved_Atoms>  (781) 
nan

$$$$
CHEMBL4212307
     RDKit          3D

  0  0  0  0  0  0  0  0  0  0999 V3000
M  V30 BEGIN CTAB
M  V30 COUNTS 56 60 0 0 0
M  V30 BEGIN ATOM
M  V30 1 C 2.287906 0.180321 6.127030 0
M  V30 2 C 2.960026 0.287161 4.803241 0
M  V30 3 C 3.891331 1.261402 4.506972 0
M  V30 4 C 4.476799 1.349053 3.258602 0
M  V30 5 C 4.127754 0.437557 2.261289 0
M  V30 6 C 4.692542 0.459506 0.891500 0
M  V30 7 C 5.987256 0.537556 0.422210 0
M  V30 8 N 5.953217 0.552080 -0.953010 0
M  V30 9 C 4.624183 0.482308 -1.270985 0
M  V30 10 C 4.023112 0.463963 -2.529131 0
M  V30 11 N 2.669231 0.389357 -2.710185 0
M  V30 12 C 1.887895 0.331951 -1.599619 0
M  V30 13 C 0.448570 0.232218 -1.747956 0
M  V30 14 C -0.368525 0.163434 -0.641712 0
M  V30 15 C -1.753545 0.052288 -0.788954 0
M  V30 16 C -2.359747 0.006864 -2.045835 0
M  V30 17 C -3.822701 -0.126288 -1.982103 0
M  V30 18 O -4.612862 0.840740 -2.157068 0
M  V30 19 N -3.997491 -1.529244 -1.694002 0
M  V30 20 C -3.075317 -2.663727 -1.494401 0
M  V30 21 C -3.240698 -3.119118 -0.086005 0
M  V30 22 N -4.593173 -3.405258 0.283832 0
M  V30 23 C -4.930009 -3.079575 1.641277 0
M  V30 24 C -5.594473 -3.138045 -0.692817 0
M  V30 25 C -5.371921 -1.944835 -1.565774 0
M  V30 26 C -1.509577 0.079069 -3.121233 0
M  V30 27 C -0.148955 0.188287 -2.985081 0
M  V30 28 C 2.540945 0.354804 -0.400854 0
M  V30 29 N 3.859656 0.426005 -0.170881 0
M  V30 30 C 3.183129 -0.553022 2.560303 0
M  V30 31 C 2.589829 -0.640649 3.830373 0
M  V30 32 H 1.216664 -0.087505 5.988692 0
M  V30 33 H 2.735178 -0.534927 6.813548 0
M  V30 34 H 2.242703 1.185782 6.649191 0
M  V30 35 H 4.164876 1.971300 5.280500 0
M  V30 36 H 5.216766 2.110169 2.995795 0
M  V30 37 H 6.808999 0.573049 1.145644 0
M  V30 38 H 4.695990 0.514936 -3.403337 0
M  V30 39 H -0.012451 0.191633 0.375022 0
M  V30 40 H -2.359254 0.001886 0.132410 0
M  V30 41 H -3.347687 -3.450283 -2.206331 0
M  V30 42 H -2.023993 -2.310416 -1.596414 0
M  V30 43 H -2.871852 -2.305860 0.597547 0
M  V30 44 H -2.569889 -3.992009 0.137980 0
M  V30 45 H -5.900408 -3.523407 1.915814 0
M  V30 46 H -4.937140 -2.000602 1.875094 0
M  V30 47 H -4.167126 -3.590821 2.302659 0
M  V30 48 H -5.801274 -4.052048 -1.268724 0
M  V30 49 H -6.545236 -2.931935 -0.120380 0
M  V30 50 H -5.689200 -2.240276 -2.610586 0
M  V30 51 H -6.069532 -1.089972 -1.332034 0
M  V30 52 H -2.048494 0.040230 -4.056997 0
M  V30 53 H 0.417153 0.236958 -3.902153 0
M  V30 54 H 1.944751 0.325107 0.499751 0
M  V30 55 H 2.836250 -1.324255 1.887519 0
M  V30 56 H 1.863324 -1.398763 4.073613 0
M  V30 END ATOM
M  V30 BEGIN BOND
M  V30 1 1 1 2
M  V30 2 2 2 3
M  V30 3 1 3 4
M  V30 4 2 4 5
M  V30 5 1 5 6
M  V30 6 2 6 7
M  V30 7 1 7 8
M  V30 8 2 8 9
M  V30 9 1 9 10
M  V30 10 2 10 11
M  V30 11 1 11 12
M  V30 12 1 12 13
M  V30 13 2 13 14
M  V30 14 1 14 15
M  V30 15 2 15 16
M  V30 16 1 16 17
M  V30 17 2 17 18
M  V30 18 1 17 19
M  V30 19 1 19 20
M  V30 20 1 20 21
M  V30 21 1 21 22
M  V30 22 1 22 23
M  V30 23 1 22 24
M  V30 24 1 24 25
M  V30 25 1 16 26
M  V30 26 2 26 27
M  V30 27 2 12 28
M  V30 28 1 28 29
M  V30 29 1 5 30
M  V30 30 2 30 31
M  V30 31 1 31 2
M  V30 32 1 29 6
M  V30 33 1 29 9
M  V30 34 1 27 13
M  V30 35 1 25 19
M  V30 36 1 1 32
M  V30 37 1 1 33
M  V30 38 1 1 34
M  V30 39 1 3 35
M  V30 40 1 4 36
M  V30 41 1 7 37
M  V30 42 1 10 38
M  V30 43 1 14 39
M  V30 44 1 15 40
M  V30 45 1 20 41
M  V30 46 1 20 42
M  V30 47 1 21 43
M  V30 48 1 21 44
M  V30 49 1 23 45
M  V30 50 1 23 46
M  V30 51 1 23 47
M  V30 52 1 24 48
M  V30 53 1 24 49
M  V30 54 1 25 50
M  V30 55 1 25 51
M  V30 56 1 26 52
M  V30 57 1 27 53
M  V30 58 1 28 54
M  V30 59 1 30 55
M  V30 60 1 31 56
M  V30 END BOND
M  V30 END CTAB
M  END
>  <Dataset>  (782) 
ChEMBL_Kinases

>  <Ligand_Instance>  (782) 
nan

>  <PDB_ID>  (782) 
nan

>  <Standardized_SMILES>  (782) 
Cc1ccc(-c2cnc3cnc(-c4ccc(C(=O)N5CCN(C)CC5)cc4)cn23)cc1

>  <Name>  (782) 
nan

>  <Pocket>  (782) 
nan

>  <ATP_Site>  (782) 
nan

>  <Peripheral>  (782) 
nan

>  <Num_H_Atoms_ProtBoundConf>  (782) 
nan

>  <Num_Resolved_Atoms>  (782) 
nan

>  <Num_Not_Resolved_Atoms>  (782) 
nan

$$$$
CHEMBL4212273
     RDKit          3D

  0  0  0  0  0  0  0  0  0  0999 V3000
M  V30 BEGIN CTAB
M  V30 COUNTS 77 83 0 0 0
M  V30 BEGIN ATOM
M  V30 1 C 1.763073 -0.864770 0.973271 0
M  V30 2 S 1.729835 -2.418766 1.891105 0
M  V30 3 C 0.223740 -3.319411 1.485933 0 CFG=1
M  V30 4 C 0.283581 -3.738035 0.056024 0
M  V30 5 O -0.546052 -3.204314 -0.761900 0
M  V30 6 N 1.142813 -4.671209 -0.583800 0
M  V30 7 C 0.723336 -4.647453 -1.967498 0
M  V30 8 C -0.283254 -5.478299 -2.409834 0
M  V30 9 C -0.626908 -5.398348 -3.741477 0
M  V30 10 C 0.044082 -4.504788 -4.549950 0
M  V30 11 N -0.114907 -4.249886 -5.876245 0
M  V30 12 N 0.764865 -3.301087 -6.215405 0
M  V30 13 C 1.495535 -2.929411 -5.142546 0
M  V30 14 C 2.546792 -1.914109 -5.169972 0
M  V30 15 C 3.752383 -2.165132 -4.540058 0
M  V30 16 C 4.812908 -1.285032 -4.501204 0
M  V30 17 C 4.669023 -0.051527 -5.140005 0
M  V30 18 F 5.668420 0.868341 -5.147238 0
M  V30 19 C 3.451051 0.191492 -5.771781 0
M  V30 20 C 2.418233 -0.696198 -5.795019 0
M  V30 21 C 1.046480 -3.686801 -4.079675 0
M  V30 22 C 1.423157 -3.733621 -2.753049 0
M  V30 23 C -0.003366 -4.481951 2.431441 0
M  V30 24 C -0.544056 -3.725551 3.633124 0
M  V30 25 N -1.531477 -2.800010 3.042307 0
M  V30 26 C -1.521179 -1.653197 3.920743 0
M  V30 27 C -2.541240 -0.654543 3.640779 0
M  V30 28 O -2.697978 -1.620055 2.822459 0
M  V30 29 N -3.509615 0.352251 3.415718 0
M  V30 30 C -3.508616 1.582516 4.230164 0
M  V30 31 C -2.962144 2.604280 3.255860 0
M  V30 32 C -3.629277 2.578156 2.117117 0
M  V30 33 C -3.132533 3.579007 1.090663 0
M  V30 34 N -2.285913 4.403078 1.022875 0
M  V30 35 C -2.061943 5.161085 -0.028653 0
M  V30 36 C -0.956100 6.144281 0.059722 0
M  V30 37 N -1.104998 7.401540 0.542246 0
M  V30 38 C -0.064171 8.257201 0.598635 0
M  V30 39 C 1.193001 7.842764 0.151944 0
M  V30 40 C 1.338004 6.541703 -0.344866 0
M  V30 41 N 0.268468 5.722460 -0.381522 0
M  V30 42 C -2.879792 4.987202 -1.152278 0
M  V30 43 S -3.996535 3.620163 -0.527071 0
M  V30 44 C -4.747601 1.669448 1.862245 0
M  V30 45 C -4.559202 0.271720 2.402265 0
M  V30 46 C -1.011100 -2.497205 1.727291 0
M  V30 47 H 0.996722 -0.177596 1.418482 0
M  V30 48 H 1.504096 -0.959782 -0.080733 0
M  V30 49 H 2.753746 -0.358489 1.039003 0
M  V30 50 H 1.834017 -5.118372 0.089944 0
M  V30 51 H -0.748701 -6.147245 -1.685977 0
M  V30 52 H -1.418463 -6.042491 -4.117717 0
M  V30 53 H -0.799874 -4.711341 -6.512884 0
M  V30 54 H 3.959894 -3.095658 -4.017567 0
M  V30 55 H 5.753716 -1.445387 -4.027426 0
M  V30 56 H 3.304481 1.151568 -6.283595 0
M  V30 57 H 1.467782 -0.523274 -6.279936 0
M  V30 58 H 2.197375 -3.100767 -2.393895 0
M  V30 59 H -0.739898 -5.193090 2.066858 0
M  V30 60 H 0.965250 -4.943976 2.652096 0
M  V30 61 H -1.066853 -4.472197 4.269324 0
M  V30 62 H 0.214055 -3.211998 4.222061 0
M  V30 63 H -0.471611 -1.238194 3.816987 0
M  V30 64 H -1.556507 -1.987271 4.976399 0
M  V30 65 H -4.516660 1.926813 4.478877 0
M  V30 66 H -2.845018 1.508471 5.090033 0
M  V30 67 H -2.132918 3.293386 3.421587 0
M  V30 68 H -0.275403 9.245155 0.998572 0
M  V30 69 H 2.013447 8.570210 0.214222 0
M  V30 70 H 2.328723 6.245648 -0.686216 0
M  V30 71 H -2.717720 5.615609 -2.064984 0
M  V30 72 H -4.942429 1.581809 0.754788 0
M  V30 73 H -5.688037 2.069438 2.302067 0
M  V30 74 H -5.457760 -0.104827 2.900178 0
M  V30 75 H -4.182614 -0.427364 1.619586 0
M  V30 76 H -1.728698 -2.520670 0.912953 0
M  V30 77 H -0.637172 -1.427788 1.777863 0
M  V30 END ATOM
M  V30 BEGIN BOND
M  V30 1 1 1 2
M  V30 2 1 3 2 CFG=1
M  V30 3 1 3 4
M  V30 4 2 4 5
M  V30 5 1 4 6
M  V30 6 1 6 7
M  V30 7 2 7 8
M  V30 8 1 8 9
M  V30 9 2 9 10
M  V30 10 1 10 11
M  V30 11 1 11 12
M  V30 12 2 12 13
M  V30 13 1 13 14
M  V30 14 2 14 15
M  V30 15 1 15 16
M  V30 16 2 16 17
M  V30 17 1 17 18
M  V30 18 1 17 19
M  V30 19 2 19 20
M  V30 20 1 13 21
M  V30 21 2 21 22
M  V30 22 1 3 23
M  V30 23 1 23 24
M  V30 24 1 24 25
M  V30 25 1 25 26
M  V30 26 1 26 27
M  V30 27 2 27 28
M  V30 28 1 27 29
M  V30 29 1 29 30
M  V30 30 1 30 31
M  V30 31 2 31 32
M  V30 32 1 32 33
M  V30 33 2 33 34
M  V30 34 1 34 35
M  V30 35 1 35 36
M  V30 36 2 36 37
M  V30 37 1 37 38
M  V30 38 2 38 39
M  V30 39 1 39 40
M  V30 40 2 40 41
M  V30 41 2 35 42
M  V30 42 1 42 43
M  V30 43 1 32 44
M  V30 44 1 44 45
M  V30 45 1 25 46
M  V30 46 1 46 3
M  V30 47 1 22 7
M  V30 48 1 45 29
M  V30 49 1 21 10
M  V30 50 1 43 33
M  V30 51 1 20 14
M  V30 52 1 41 36
M  V30 53 1 1 47
M  V30 54 1 1 48
M  V30 55 1 1 49
M  V30 56 1 6 50
M  V30 57 1 8 51
M  V30 58 1 9 52
M  V30 59 1 11 53
M  V30 60 1 15 54
M  V30 61 1 16 55
M  V30 62 1 19 56
M  V30 63 1 20 57
M  V30 64 1 22 58
M  V30 65 1 23 59
M  V30 66 1 23 60
M  V30 67 1 24 61
M  V30 68 1 24 62
M  V30 69 1 26 63
M  V30 70 1 26 64
M  V30 71 1 30 65
M  V30 72 1 30 66
M  V30 73 1 31 67
M  V30 74 1 38 68
M  V30 75 1 39 69
M  V30 76 1 40 70
M  V30 77 1 42 71
M  V30 78 1 44 72
M  V30 79 1 44 73
M  V30 80 1 45 74
M  V30 81 1 45 75
M  V30 82 1 46 76
M  V30 83 1 46 77
M  V30 END BOND
M  V30 END CTAB
M  END
>  <Dataset>  (783) 
ChEMBL_Kinases

>  <Ligand_Instance>  (783) 
nan

>  <PDB_ID>  (783) 
nan

>  <Standardized_SMILES>  (783) 
CS[C@@]1(C(=O)Nc2ccc3[nH]nc(-c4ccc(F)cc4)c3c2)CCN(CC(=O)N2CC=C(c3nc(-c4ncccn4)cs3)CC2)C1

>  <Name>  (783) 
nan

>  <Pocket>  (783) 
nan

>  <ATP_Site>  (783) 
nan

>  <Peripheral>  (783) 
nan

>  <Num_H_Atoms_ProtBoundConf>  (783) 
nan

>  <Num_Resolved_Atoms>  (783) 
nan

>  <Num_Not_Resolved_Atoms>  (783) 
nan

$$$$
CHEMBL4212200
     RDKit          3D

  0  0  0  0  0  0  0  0  0  0999 V3000
M  V30 BEGIN CTAB
M  V30 COUNTS 56 60 0 0 0
M  V30 BEGIN ATOM
M  V30 1 C 3.457189 -6.519727 1.148706 0
M  V30 2 N 3.888403 -5.532771 0.173289 0
M  V30 3 C 3.445740 -4.219619 0.622055 0
M  V30 4 C 3.727456 -3.155012 -0.405630 0
M  V30 5 N 3.101320 -3.432021 -1.661833 0
M  V30 6 C 2.172904 -2.705232 -2.476686 0
M  V30 7 O 1.728830 -3.108668 -3.561066 0
M  V30 8 C 1.838393 -1.438141 -1.837052 0
M  V30 9 C 2.602192 -0.300989 -1.687382 0
M  V30 10 C 2.133346 0.823102 -1.048123 0
M  V30 11 C 0.863058 0.876757 -0.515946 0
M  V30 12 C 0.395866 2.082971 0.153566 0
M  V30 13 C -0.849748 2.219023 0.706427 0
M  V30 14 N -1.334443 3.302712 1.334088 0
M  V30 15 C -2.534731 3.586140 1.922229 0
M  V30 16 C -3.634065 2.645715 1.971166 0
M  V30 17 C -4.929843 2.955748 1.608628 0
M  V30 18 C -5.963772 2.045055 1.664696 0
M  V30 19 C -5.705761 0.763497 2.100491 0
M  V30 20 C -6.792888 -0.269977 2.178748 0
M  V30 21 F -8.023986 0.317739 2.393063 0
M  V30 22 F -6.513343 -1.216783 3.143110 0
M  V30 23 F -6.839307 -0.871292 0.914124 0
M  V30 24 C -4.420913 0.372410 2.486149 0
M  V30 25 C -3.419593 1.346902 2.405159 0
M  V30 26 C -2.409634 4.879152 2.386414 0
M  V30 27 N -1.177843 5.331605 2.078698 0
M  V30 28 C -0.492873 4.369656 1.424953 0
M  V30 29 C 0.781406 4.287304 0.881704 0
M  V30 30 N 1.207009 3.146897 0.254227 0
M  V30 31 C 0.095698 -0.258565 -0.662723 0
M  V30 32 C 0.541039 -1.410920 -1.304267 0
M  V30 33 C 3.589202 -4.748021 -2.084940 0
M  V30 34 C 3.190989 -5.807349 -1.075337 0
M  V30 35 H 3.487761 -6.103116 2.169439 0
M  V30 36 H 4.054043 -7.460179 1.084181 0
M  V30 37 H 2.388428 -6.827075 0.976707 0
M  V30 38 H 2.332468 -4.312569 0.771221 0
M  V30 39 H 3.932244 -3.959752 1.577877 0
M  V30 40 H 3.377104 -2.192980 0.050983 0
M  V30 41 H 4.844114 -3.122412 -0.567206 0
M  V30 42 H 3.584303 -0.391937 -2.119579 0
M  V30 43 H 2.836201 1.660392 -0.997441 0
M  V30 44 H -1.506673 1.390048 0.630675 0
M  V30 45 H -5.155882 3.971521 1.256987 0
M  V30 46 H -6.990690 2.254570 1.388383 0
M  V30 47 H -4.252256 -0.636736 2.825660 0
M  V30 48 H -2.470206 0.963743 2.729492 0
M  V30 49 H -3.258737 5.332580 2.900311 0
M  V30 50 H 1.403336 5.167758 0.982807 0
M  V30 51 H -0.911399 -0.296424 -0.273690 0
M  V30 52 H -0.144388 -2.270333 -1.375272 0
M  V30 53 H 3.128801 -5.044230 -3.054814 0
M  V30 54 H 4.691872 -4.753145 -2.141806 0
M  V30 55 H 2.089946 -5.742307 -0.830080 0
M  V30 56 H 3.445814 -6.790578 -1.492695 0
M  V30 END ATOM
M  V30 BEGIN BOND
M  V30 1 1 1 2
M  V30 2 1 2 3
M  V30 3 1 3 4
M  V30 4 1 4 5
M  V30 5 1 5 6
M  V30 6 2 6 7
M  V30 7 1 6 8
M  V30 8 2 8 9
M  V30 9 1 9 10
M  V30 10 2 10 11
M  V30 11 1 11 12
M  V30 12 2 12 13
M  V30 13 1 13 14
M  V30 14 1 14 15
M  V30 15 1 15 16
M  V30 16 2 16 17
M  V30 17 1 17 18
M  V30 18 2 18 19
M  V30 19 1 19 20
M  V30 20 1 20 21
M  V30 21 1 20 22
M  V30 22 1 20 23
M  V30 23 1 19 24
M  V30 24 2 24 25
M  V30 25 2 15 26
M  V30 26 1 26 27
M  V30 27 2 27 28
M  V30 28 1 28 29
M  V30 29 2 29 30
M  V30 30 1 11 31
M  V30 31 2 31 32
M  V30 32 1 5 33
M  V30 33 1 33 34
M  V30 34 1 34 2
M  V30 35 1 32 8
M  V30 36 1 30 12
M  V30 37 1 28 14
M  V30 38 1 25 16
M  V30 39 1 1 35
M  V30 40 1 1 36
M  V30 41 1 1 37
M  V30 42 1 3 38
M  V30 43 1 3 39
M  V30 44 1 4 40
M  V30 45 1 4 41
M  V30 46 1 9 42
M  V30 47 1 10 43
M  V30 48 1 13 44
M  V30 49 1 17 45
M  V30 50 1 18 46
M  V30 51 1 24 47
M  V30 52 1 25 48
M  V30 53 1 26 49
M  V30 54 1 29 50
M  V30 55 1 31 51
M  V30 56 1 32 52
M  V30 57 1 33 53
M  V30 58 1 33 54
M  V30 59 1 34 55
M  V30 60 1 34 56
M  V30 END BOND
M  V30 END CTAB
M  END
>  <Dataset>  (784) 
ChEMBL_Kinases

>  <Ligand_Instance>  (784) 
nan

>  <PDB_ID>  (784) 
nan

>  <Standardized_SMILES>  (784) 
CN1CCN(C(=O)c2ccc(-c3cn4c(-c5ccc(C(F)(F)F)cc5)cnc4cn3)cc2)CC1

>  <Name>  (784) 
nan

>  <Pocket>  (784) 
nan

>  <ATP_Site>  (784) 
nan

>  <Peripheral>  (784) 
nan

>  <Num_H_Atoms_ProtBoundConf>  (784) 
nan

>  <Num_Resolved_Atoms>  (784) 
nan

>  <Num_Not_Resolved_Atoms>  (784) 
nan

$$$$
CHEMBL3261514
     RDKit          3D

  0  0  0  0  0  0  0  0  0  0999 V3000
M  V30 BEGIN CTAB
M  V30 COUNTS 32 34 0 0 0
M  V30 BEGIN ATOM
M  V30 1 N 1.261152 -2.336626 4.461019 0
M  V30 2 C 0.129894 -2.199042 3.612906 0
M  V30 3 O -0.887753 -2.753021 4.133020 0
M  V30 4 C 0.603180 -1.444192 2.430090 0
M  V30 5 S 2.070223 -0.680437 1.753624 0
M  V30 6 C 1.198446 -0.104004 0.214405 0
M  V30 7 C 1.906204 0.643995 -0.830044 0
M  V30 8 C 1.266218 1.078191 -1.972050 0
M  V30 9 C 1.946989 1.777920 -2.943468 0
M  V30 10 N 3.257687 2.048836 -2.789106 0
M  V30 11 C 3.868698 1.611102 -1.655605 0
M  V30 12 N 5.248462 1.953389 -1.603391 0
M  V30 13 N 3.233625 0.919353 -0.675479 0
M  V30 14 N -0.043239 -0.489966 0.295863 0
M  V30 15 C -0.371626 -1.167952 1.402118 0
M  V30 16 C -1.804752 -1.549376 1.377848 0
M  V30 17 C -2.235032 -2.854545 1.503677 0
M  V30 18 C -3.566094 -3.190325 1.470814 0
M  V30 19 C -4.533606 -2.220779 1.308723 0
M  V30 20 Cl -6.259462 -2.511832 1.249773 0
M  V30 21 C -4.156542 -0.892565 1.177449 0
M  V30 22 C -2.806919 -0.610629 1.217201 0
M  V30 23 Cl -2.284198 1.061833 1.054780 0
M  V30 24 H 1.990772 -3.066611 4.712446 0
M  V30 25 H 1.812980 -1.787944 5.158926 0
M  V30 26 H 0.221795 0.818100 -2.013028 0
M  V30 27 H 1.291155 2.049427 -3.783399 0
M  V30 28 H 6.180423 1.517436 -1.716184 0
M  V30 29 H 5.441281 2.952344 -1.385432 0
M  V30 30 H -1.512824 -3.642988 1.627351 0
M  V30 31 H -3.924105 -4.199052 1.566390 0
M  V30 32 H -4.845145 -0.074337 1.046138 0
M  V30 END ATOM
M  V30 BEGIN BOND
M  V30 1 1 1 2
M  V30 2 2 2 3
M  V30 3 1 2 4
M  V30 4 1 4 5
M  V30 5 1 5 6
M  V30 6 1 6 7
M  V30 7 2 7 8
M  V30 8 1 8 9
M  V30 9 2 9 10
M  V30 10 1 10 11
M  V30 11 1 11 12
M  V30 12 2 11 13
M  V30 13 2 6 14
M  V30 14 1 14 15
M  V30 15 1 15 16
M  V30 16 2 16 17
M  V30 17 1 17 18
M  V30 18 2 18 19
M  V30 19 1 19 20
M  V30 20 1 19 21
M  V30 21 2 21 22
M  V30 22 1 22 23
M  V30 23 2 15 4
M  V30 24 1 22 16
M  V30 25 1 13 7
M  V30 26 1 1 24
M  V30 27 1 1 25
M  V30 28 1 8 26
M  V30 29 1 9 27
M  V30 30 1 12 28
M  V30 31 1 12 29
M  V30 32 1 17 30
M  V30 33 1 18 31
M  V30 34 1 21 32
M  V30 END BOND
M  V30 END CTAB
M  END
>  <Dataset>  (785) 
ChEMBL_Kinases

>  <Ligand_Instance>  (785) 
nan

>  <PDB_ID>  (785) 
nan

>  <Standardized_SMILES>  (785) 
NC(=O)c1sc(-c2ccnc(N)n2)nc1-c1ccc(Cl)cc1Cl

>  <Name>  (785) 
nan

>  <Pocket>  (785) 
nan

>  <ATP_Site>  (785) 
nan

>  <Peripheral>  (785) 
nan

>  <Num_H_Atoms_ProtBoundConf>  (785) 
nan

>  <Num_Resolved_Atoms>  (785) 
nan

>  <Num_Not_Resolved_Atoms>  (785) 
nan

$$$$
CHEMBL3261517
     RDKit          3D

  0  0  0  0  0  0  0  0  0  0999 V3000
M  V30 BEGIN CTAB
M  V30 COUNTS 36 38 0 0 0
M  V30 BEGIN ATOM
M  V30 1 C -3.943202 -4.980572 2.335250 0
M  V30 2 O -3.393643 -4.620207 1.080856 0
M  V30 3 C -2.494436 -3.569432 1.056996 0
M  V30 4 C -2.150505 -2.903549 2.208437 0
M  V30 5 C -1.249221 -1.865955 2.117233 0
M  V30 6 C -0.632151 -1.397695 0.990096 0
M  V30 7 C 0.310183 -0.297755 0.946805 0
M  V30 8 N 0.828698 0.065382 -0.181296 0
M  V30 9 C 1.599246 0.916073 -0.443365 0
M  V30 10 C 2.336343 1.541877 -1.549135 0
M  V30 11 C 2.150145 1.047651 -2.814456 0
M  V30 12 C 2.845251 1.639880 -3.846871 0
M  V30 13 N 3.674731 2.657714 -3.648829 0
M  V30 14 C 3.852018 3.140912 -2.385666 0
M  V30 15 N 4.729980 4.227979 -2.118952 0
M  V30 16 N 3.175912 2.564960 -1.381907 0
M  V30 17 S 1.891058 1.639358 1.281864 0
M  V30 18 C 0.767347 0.477572 2.022992 0
M  V30 19 C 0.469470 0.421454 3.394548 0
M  V30 20 N 0.143104 0.323557 4.735722 0
M  V30 21 O 1.051669 1.299284 4.123689 0
M  V30 22 C -1.034860 -2.121199 -0.111487 0
M  V30 23 Cl -0.375401 -1.704657 -1.682999 0
M  V30 24 C -1.923117 -3.167479 -0.125477 0
M  V30 25 H -3.097308 -5.222114 3.030974 0
M  V30 26 H -4.461987 -4.118301 2.794226 0
M  V30 27 H -4.670939 -5.801755 2.269940 0
M  V30 28 H -2.594124 -3.212677 3.140774 0
M  V30 29 H -1.044290 -1.408980 3.060253 0
M  V30 30 H 1.473074 0.222635 -2.949476 0
M  V30 31 H 2.686285 1.235674 -4.846805 0
M  V30 32 H 5.730455 4.266398 -1.825163 0
M  V30 33 H 4.530478 5.247920 -2.168925 0
M  V30 34 H -0.389504 -0.495993 5.155866 0
M  V30 35 H -0.381992 -0.483589 5.152181 0
M  V30 36 H -2.195101 -3.691242 -1.022911 0
M  V30 END ATOM
M  V30 BEGIN BOND
M  V30 1 1 1 2
M  V30 2 1 2 3
M  V30 3 2 3 4
M  V30 4 1 4 5
M  V30 5 2 5 6
M  V30 6 1 6 7
M  V30 7 1 7 8
M  V30 8 2 8 9
M  V30 9 1 9 10
M  V30 10 2 10 11
M  V30 11 1 11 12
M  V30 12 2 12 13
M  V30 13 1 13 14
M  V30 14 1 14 15
M  V30 15 2 14 16
M  V30 16 1 9 17
M  V30 17 1 17 18
M  V30 18 1 18 19
M  V30 19 1 19 20
M  V30 20 2 19 21
M  V30 21 1 6 22
M  V30 22 1 22 23
M  V30 23 2 22 24
M  V30 24 1 24 3
M  V30 25 2 18 7
M  V30 26 1 16 10
M  V30 27 1 1 25
M  V30 28 1 1 26
M  V30 29 1 1 27
M  V30 30 1 4 28
M  V30 31 1 5 29
M  V30 32 1 11 30
M  V30 33 1 12 31
M  V30 34 1 15 32
M  V30 35 1 15 33
M  V30 36 1 20 34
M  V30 37 1 20 35
M  V30 38 1 24 36
M  V30 END BOND
M  V30 END CTAB
M  END
>  <Dataset>  (786) 
ChEMBL_Kinases

>  <Ligand_Instance>  (786) 
nan

>  <PDB_ID>  (786) 
nan

>  <Standardized_SMILES>  (786) 
COc1ccc(-c2nc(-c3ccnc(N)n3)sc2C(N)=O)c(Cl)c1

>  <Name>  (786) 
nan

>  <Pocket>  (786) 
nan

>  <ATP_Site>  (786) 
nan

>  <Peripheral>  (786) 
nan

>  <Num_H_Atoms_ProtBoundConf>  (786) 
nan

>  <Num_Resolved_Atoms>  (786) 
nan

>  <Num_Not_Resolved_Atoms>  (786) 
nan

$$$$
CHEMBL3675490
     RDKit          3D

  0  0  0  0  0  0  0  0  0  0999 V3000
M  V30 BEGIN CTAB
M  V30 COUNTS 54 57 0 0 0
M  V30 BEGIN ATOM
M  V30 1 C 2.285036 0.030154 7.587099 0
M  V30 2 C 2.704802 0.123707 6.159156 0
M  V30 3 N 3.676727 0.056336 5.595811 0
M  V30 4 C 3.985366 0.148544 4.322884 0
M  V30 5 C 5.354499 0.032617 3.737619 0
M  V30 6 C 2.920079 0.369445 3.523701 0
M  V30 7 C 2.820864 0.532387 2.080112 0
M  V30 8 O 3.900982 0.458301 1.445349 0
M  V30 9 N 1.635287 0.757932 1.390413 0
M  V30 10 C 1.412318 0.931228 0.003018 0
M  V30 11 C 2.364515 0.908339 -0.986095 0
M  V30 12 C 2.115906 1.081612 -2.331615 0
M  V30 13 C 0.815621 1.296376 -2.739036 0
M  V30 14 C -0.173174 1.327098 -1.779529 0
M  V30 15 C -1.604251 1.550680 -2.121518 0 CFG=1
M  V30 16 C -1.765737 1.340943 -3.604952 0
M  V30 17 N -2.433984 0.608930 -1.358422 0
M  V30 18 C -2.220586 -0.769409 -1.506954 0
M  V30 19 N -1.282488 -1.277275 -2.317161 0
M  V30 20 C -1.044376 -2.589586 -2.485720 0
M  V30 21 N -1.757827 -3.531694 -1.827889 0
M  V30 22 C -2.723039 -3.106423 -0.991242 0
M  V30 23 C -3.455975 -4.058904 -0.315511 0
M  V30 24 C -3.190781 -5.479556 -0.506096 0
M  V30 25 N -2.165668 -5.880537 -1.406695 0
M  V30 26 O -3.848775 -6.336702 0.107725 0
M  V30 27 C -4.447338 -3.634150 0.544659 0
M  V30 28 C -4.710827 -2.273218 0.734102 0
M  V30 29 C -3.933725 -1.381540 0.021397 0
M  V30 30 C -2.931496 -1.751266 -0.850089 0
M  V30 31 C 0.129688 1.147914 -0.446642 0
M  V30 32 S 1.539908 0.427027 4.691345 0
M  V30 33 H 2.269415 -0.987597 7.980207 0
M  V30 34 H 2.978417 0.710457 8.138694 0
M  V30 35 H 1.269620 0.462446 7.737700 0
M  V30 36 H 5.316934 -0.734602 2.913541 0
M  V30 37 H 6.122978 -0.303159 4.426929 0
M  V30 38 H 5.644332 0.984402 3.207214 0
M  V30 39 H 0.813954 0.796765 2.039629 0
M  V30 40 H 3.381610 0.747972 -0.739896 0
M  V30 41 H 2.905996 1.053947 -3.068923 0
M  V30 42 H 0.591637 1.437170 -3.787235 0
M  V30 43 H -1.894670 2.600405 -1.894559 0
M  V30 44 H -1.416502 2.300009 -4.080113 0
M  V30 45 H -2.854254 1.239076 -3.836436 0
M  V30 46 H -1.182659 0.466517 -3.899852 0
M  V30 47 H -3.134681 1.038575 -0.749916 0
M  V30 48 H -0.246297 -2.888507 -3.178995 0
M  V30 49 H -1.962381 -6.268384 -2.349661 0
M  V30 50 H -1.332808 -5.659887 -0.783678 0
M  V30 51 H -4.992764 -4.420197 1.050190 0
M  V30 52 H -5.495929 -1.978209 1.416592 0
M  V30 53 H -4.177299 -0.358478 0.203776 0
M  V30 54 H -0.685241 1.178514 0.294269 0
M  V30 END ATOM
M  V30 BEGIN BOND
M  V30 1 1 1 2
M  V30 2 2 2 3
M  V30 3 1 3 4
M  V30 4 1 4 5
M  V30 5 2 4 6
M  V30 6 1 6 7
M  V30 7 2 7 8
M  V30 8 1 7 9
M  V30 9 1 9 10
M  V30 10 2 10 11
M  V30 11 1 11 12
M  V30 12 2 12 13
M  V30 13 1 13 14
M  V30 14 1 14 15
M  V30 15 1 15 16
M  V30 16 1 15 17
M  V30 17 1 17 18
M  V30 18 2 18 19
M  V30 19 1 19 20
M  V30 20 2 20 21
M  V30 21 1 21 22
M  V30 22 2 22 23
M  V30 23 1 23 24
M  V30 24 1 24 25
M  V30 25 2 24 26
M  V30 26 1 23 27
M  V30 27 2 27 28
M  V30 28 1 28 29
M  V30 29 2 29 30
M  V30 30 2 14 31
M  V30 31 1 6 32
M  V30 32 1 32 2
M  V30 33 1 31 10
M  V30 34 1 30 18
M  V30 35 1 30 22
M  V30 36 1 1 33
M  V30 37 1 1 34
M  V30 38 1 1 35
M  V30 39 1 5 36
M  V30 40 1 5 37
M  V30 41 1 5 38
M  V30 42 1 9 39
M  V30 43 1 11 40
M  V30 44 1 12 41
M  V30 45 1 13 42
M  V30 46 1 15 43 CFG=3
M  V30 47 1 16 44
M  V30 48 1 16 45
M  V30 49 1 16 46
M  V30 50 1 17 47
M  V30 51 1 20 48
M  V30 52 1 25 49
M  V30 53 1 25 50
M  V30 54 1 27 51
M  V30 55 1 28 52
M  V30 56 1 29 53
M  V30 57 1 31 54
M  V30 END BOND
M  V30 END CTAB
M  END
>  <Dataset>  (787) 
ChEMBL_Kinases

>  <Ligand_Instance>  (787) 
nan

>  <PDB_ID>  (787) 
nan

>  <Standardized_SMILES>  (787) 
Cc1nc(C)c(C(=O)Nc2cccc([C@@H](C)Nc3ncnc4c(C(N)=O)cccc34)c2)s1

>  <Name>  (787) 
nan

>  <Pocket>  (787) 
nan

>  <ATP_Site>  (787) 
nan

>  <Peripheral>  (787) 
nan

>  <Num_H_Atoms_ProtBoundConf>  (787) 
nan

>  <Num_Resolved_Atoms>  (787) 
nan

>  <Num_Not_Resolved_Atoms>  (787) 
nan

$$$$
CHEMBL4211828
     RDKit          3D

  0  0  0  0  0  0  0  0  0  0999 V3000
M  V30 BEGIN CTAB
M  V30 COUNTS 70 75 0 0 0
M  V30 BEGIN ATOM
M  V30 1 C 7.268073 -1.632304 5.452578 0
M  V30 2 C 5.994441 -2.348241 5.116464 0
M  V30 3 C 4.897588 -1.809741 6.042232 0
M  V30 4 N 5.541021 -2.234790 3.781630 0
M  V30 5 C 6.455078 -2.771149 2.822075 0
M  V30 6 C 5.929321 -2.725631 1.421995 0
M  V30 7 N 5.164245 -1.554281 1.083792 0
M  V30 8 C 4.561096 -1.828609 -0.208811 0
M  V30 9 C 3.712165 -0.763001 -0.730599 0
M  V30 10 C 2.376166 -0.850830 -0.306279 0
M  V30 11 C 1.420509 0.080716 -0.714936 0
M  V30 12 C 1.777536 1.125750 -1.560082 0
M  V30 13 N 0.807494 2.084536 -1.988137 0
M  V30 14 C -0.489252 1.868766 -1.456206 0
M  V30 15 N -0.745811 2.611089 -0.365017 0
M  V30 16 C -1.876270 2.594749 0.323786 0
M  V30 17 C -2.863922 1.743422 -0.123136 0
M  V30 18 F -4.049760 1.676010 0.536661 0
M  V30 19 C -2.650678 0.961245 -1.236579 0
M  V30 20 C -3.696837 0.056932 -1.686659 0
M  V30 21 C -3.444542 -1.278233 -2.021199 0
M  V30 22 C -4.423307 -2.152067 -2.448754 0
M  V30 23 F -4.132552 -3.430459 -2.759250 0
M  V30 24 C -5.715083 -1.697613 -2.554971 0
M  V30 25 N -6.881019 -2.252325 -2.924596 0
M  V30 26 C -7.858214 -1.312449 -2.835243 0
M  V30 27 N -7.322598 -0.156313 -2.409436 0
M  V30 28 C -6.009361 -0.371579 -2.231111 0
M  V30 29 C -5.006818 0.461981 -1.810572 0
M  V30 30 C -8.341170 0.839631 -2.318616 0
M  V30 31 C -8.610654 1.141199 -0.849787 0
M  V30 32 C -9.604148 0.267042 -2.909048 0
M  V30 33 C -9.297729 -1.191467 -3.059114 0
M  V30 34 N -1.474422 1.029607 -1.889309 0
M  V30 35 N 3.061796 1.175333 -1.942383 0
M  V30 36 C 4.008179 0.296074 -1.568583 0
M  V30 37 C 4.193001 -1.305377 2.099450 0
M  V30 38 C 4.966025 -0.987566 3.385965 0
M  V30 39 H 7.298165 -1.599061 6.581724 0
M  V30 40 H 7.307843 -0.575267 5.150717 0
M  V30 41 H 8.180063 -2.214642 5.148355 0
M  V30 42 H 6.157002 -3.415858 5.393119 0
M  V30 43 H 5.038320 -0.714241 6.063896 0
M  V30 44 H 3.921547 -2.011802 5.566207 0
M  V30 45 H 4.960830 -2.265804 7.053558 0
M  V30 46 H 7.460468 -2.293011 2.845158 0
M  V30 47 H 6.616183 -3.840213 3.086960 0
M  V30 48 H 6.760427 -2.903548 0.706760 0
M  V30 49 H 5.242670 -3.604647 1.261265 0
M  V30 50 H 4.017396 -2.773449 -0.171760 0
M  V30 51 H 5.391013 -1.976653 -0.950331 0
M  V30 52 H 2.011799 -1.647776 0.362374 0
M  V30 53 H 0.404222 -0.027771 -0.361561 0
M  V30 54 H 1.125733 2.833893 -2.629548 0
M  V30 55 H -2.063877 3.207424 1.209255 0
M  V30 56 H -2.415022 -1.587516 -1.922086 0
M  V30 57 H -5.246143 1.472508 -1.567584 0
M  V30 58 H -8.054773 1.797648 -2.813446 0
M  V30 59 H -9.480694 1.828043 -0.825361 0
M  V30 60 H -8.927799 0.189980 -0.388856 0
M  V30 61 H -7.691715 1.574309 -0.410673 0
M  V30 62 H -10.479876 0.455285 -2.248359 0
M  V30 63 H -9.754615 0.737772 -3.904825 0
M  V30 64 H -9.583420 -1.571383 -4.071710 0
M  V30 65 H -9.813037 -1.776349 -2.254228 0
M  V30 66 H 5.041513 0.320147 -1.864688 0
M  V30 67 H 3.659513 -2.258000 2.316709 0
M  V30 68 H 3.489107 -0.503364 1.883156 0
M  V30 69 H 4.315093 -0.601339 4.164476 0
M  V30 70 H 5.754250 -0.249694 3.051617 0
M  V30 END ATOM
M  V30 BEGIN BOND
M  V30 1 1 1 2
M  V30 2 1 2 3
M  V30 3 1 2 4
M  V30 4 1 4 5
M  V30 5 1 5 6
M  V30 6 1 6 7
M  V30 7 1 7 8
M  V30 8 1 8 9
M  V30 9 2 9 10
M  V30 10 1 10 11
M  V30 11 2 11 12
M  V30 12 1 12 13
M  V30 13 1 13 14
M  V30 14 2 14 15
M  V30 15 1 15 16
M  V30 16 2 16 17
M  V30 17 1 17 18
M  V30 18 1 17 19
M  V30 19 1 19 20
M  V30 20 2 20 21
M  V30 21 1 21 22
M  V30 22 1 22 23
M  V30 23 2 22 24
M  V30 24 1 24 25
M  V30 25 2 25 26
M  V30 26 1 26 27
M  V30 27 1 27 28
M  V30 28 2 28 29
M  V30 29 1 27 30
M  V30 30 1 30 31
M  V30 31 1 30 32
M  V30 32 1 32 33
M  V30 33 2 19 34
M  V30 34 1 12 35
M  V30 35 2 35 36
M  V30 36 1 7 37
M  V30 37 1 37 38
M  V30 38 1 38 4
M  V30 39 1 36 9
M  V30 40 1 34 14
M  V30 41 1 29 20
M  V30 42 1 28 24
M  V30 43 1 33 26
M  V30 44 1 1 39
M  V30 45 1 1 40
M  V30 46 1 1 41
M  V30 47 1 2 42
M  V30 48 1 3 43
M  V30 49 1 3 44
M  V30 50 1 3 45
M  V30 51 1 5 46
M  V30 52 1 5 47
M  V30 53 1 6 48
M  V30 54 1 6 49
M  V30 55 1 8 50
M  V30 56 1 8 51
M  V30 57 1 10 52
M  V30 58 1 11 53
M  V30 59 1 13 54
M  V30 60 1 16 55
M  V30 61 1 21 56
M  V30 62 1 29 57
M  V30 63 1 30 58
M  V30 64 1 31 59
M  V30 65 1 31 60
M  V30 66 1 31 61
M  V30 67 1 32 62
M  V30 68 1 32 63
M  V30 69 1 33 64
M  V30 70 1 33 65
M  V30 71 1 36 66
M  V30 72 1 37 67
M  V30 73 1 37 68
M  V30 74 1 38 69
M  V30 75 1 38 70
M  V30 END BOND
M  V30 END CTAB
M  END
>  <Dataset>  (788) 
ChEMBL_Kinases

>  <Ligand_Instance>  (788) 
nan

>  <PDB_ID>  (788) 
nan

>  <Standardized_SMILES>  (788) 
CC(C)N1CCN(Cc2ccc(Nc3ncc(F)c(-c4cc(F)c5nc6n(c5c4)C(C)CC6)n3)nc2)CC1

>  <Name>  (788) 
nan

>  <Pocket>  (788) 
nan

>  <ATP_Site>  (788) 
nan

>  <Peripheral>  (788) 
nan

>  <Num_H_Atoms_ProtBoundConf>  (788) 
nan

>  <Num_Resolved_Atoms>  (788) 
nan

>  <Num_Not_Resolved_Atoms>  (788) 
nan

$$$$
CHEMBL4211791
     RDKit          3D

  0  0  0  0  0  0  0  0  0  0999 V3000
M  V30 BEGIN CTAB
M  V30 COUNTS 43 47 0 0 0
M  V30 BEGIN ATOM
M  V30 1 N -1.173339 -1.835208 4.837080 0
M  V30 2 C -0.711220 -1.764628 3.501393 0
M  V30 3 N -0.207941 -0.610713 2.996708 0
M  V30 4 C 0.233315 -0.540310 1.723969 0
M  V30 5 N 0.761594 0.682363 1.204349 0
M  V30 6 C 0.866792 1.905602 1.965044 0
M  V30 7 C 1.457929 2.978624 1.123507 0
M  V30 8 N 0.601307 3.753866 0.402786 0
M  V30 9 C 1.297009 4.667426 -0.296793 0
M  V30 10 C 0.905485 5.666600 -1.163132 0
M  V30 11 F -0.419922 5.821261 -1.408287 0
M  V30 12 C 1.889781 6.444397 -1.724332 0
M  V30 13 F 1.498935 7.427963 -2.577608 0
M  V30 14 C 3.205084 6.199767 -1.405144 0
M  V30 15 C 3.621788 5.206672 -0.541655 0
M  V30 16 C 2.632527 4.430437 0.017807 0
M  V30 17 N 2.707457 3.403860 0.879161 0
M  V30 18 C 0.146731 -1.692449 0.969695 0
M  V30 19 N 0.519203 -1.868794 -0.312580 0
M  V30 20 C 0.257151 -3.141401 -0.642301 0
M  V30 21 N -0.275494 -3.746919 0.434903 0
M  V30 22 C -0.704080 -5.110232 0.528985 0
M  V30 23 C 0.117434 -6.212084 0.408718 0
M  V30 24 C -0.463290 -7.479114 0.526841 0
M  V30 25 C -1.816570 -7.602722 0.756329 0
M  V30 26 C -2.652262 -6.512216 0.879163 0
M  V30 27 F -3.984290 -6.645921 1.105226 0
M  V30 28 C -2.069736 -5.251861 0.760846 0
M  V30 29 C -0.362689 -2.869750 1.472335 0
M  V30 30 N -0.795664 -2.902727 2.753029 0
M  V30 31 H -1.941804 -1.130217 4.904230 0
M  V30 32 H -0.714128 -2.510386 5.462024 0
M  V30 33 H 1.087985 0.662752 0.199716 0
M  V30 34 H -0.061075 2.219088 2.455516 0
M  V30 35 H 1.631430 1.720720 2.775450 0
M  V30 36 H 3.915830 6.855397 -1.888646 0
M  V30 37 H 4.655786 5.036609 -0.309265 0
M  V30 38 H 3.518603 2.938926 1.337518 0
M  V30 39 H 0.425578 -3.635465 -1.587540 0
M  V30 40 H 1.164980 -6.004981 0.229277 0
M  V30 41 H 0.212217 -8.323928 0.426967 0
M  V30 42 H -2.250672 -8.605803 0.845547 0
M  V30 43 H -2.752789 -4.403881 0.861953 0
M  V30 END ATOM
M  V30 BEGIN BOND
M  V30 1 1 1 2
M  V30 2 2 2 3
M  V30 3 1 3 4
M  V30 4 1 4 5
M  V30 5 1 5 6
M  V30 6 1 6 7
M  V30 7 2 7 8
M  V30 8 1 8 9
M  V30 9 2 9 10
M  V30 10 1 10 11
M  V30 11 1 10 12
M  V30 12 1 12 13
M  V30 13 2 12 14
M  V30 14 1 14 15
M  V30 15 2 15 16
M  V30 16 1 16 17
M  V30 17 2 4 18
M  V30 18 1 18 19
M  V30 19 2 19 20
M  V30 20 1 20 21
M  V30 21 1 21 22
M  V30 22 2 22 23
M  V30 23 1 23 24
M  V30 24 2 24 25
M  V30 25 1 25 26
M  V30 26 1 26 27
M  V30 27 2 26 28
M  V30 28 1 21 29
M  V30 29 2 29 30
M  V30 30 1 30 2
M  V30 31 1 17 7
M  V30 32 1 29 18
M  V30 33 1 16 9
M  V30 34 1 28 22
M  V30 35 1 1 31
M  V30 36 1 1 32
M  V30 37 1 5 33
M  V30 38 1 6 34
M  V30 39 1 6 35
M  V30 40 1 14 36
M  V30 41 1 15 37
M  V30 42 1 17 38
M  V30 43 1 20 39
M  V30 44 1 23 40
M  V30 45 1 24 41
M  V30 46 1 25 42
M  V30 47 1 28 43
M  V30 END BOND
M  V30 END CTAB
M  END
>  <Dataset>  (789) 
ChEMBL_Kinases

>  <Ligand_Instance>  (789) 
nan

>  <PDB_ID>  (789) 
nan

>  <Standardized_SMILES>  (789) 
Nc1nc(NCc2nc3c(F)c(F)ccc3[nH]2)c2ncn(-c3cccc(F)c3)c2n1

>  <Name>  (789) 
nan

>  <Pocket>  (789) 
nan

>  <ATP_Site>  (789) 
nan

>  <Peripheral>  (789) 
nan

>  <Num_H_Atoms_ProtBoundConf>  (789) 
nan

>  <Num_Resolved_Atoms>  (789) 
nan

>  <Num_Not_Resolved_Atoms>  (789) 
nan

$$$$
CHEMBL4211757
     RDKit          3D

  0  0  0  0  0  0  0  0  0  0999 V3000
M  V30 BEGIN CTAB
M  V30 COUNTS 53 57 0 0 0
M  V30 BEGIN ATOM
M  V30 1 C 4.671698 1.493588 1.868502 0
M  V30 2 N 4.763639 0.317931 2.688660 0
M  V30 3 C 5.901749 -0.445679 2.308426 0
M  V30 4 C 5.699603 -1.429899 1.203012 0
M  V30 5 N 4.287721 -1.635960 0.960863 0
M  V30 6 C 3.780950 -1.729132 -0.386416 0
M  V30 7 O 4.705510 -1.605972 -1.251125 0
M  V30 8 C 2.340454 -1.941496 -0.501623 0
M  V30 9 C 1.526008 -0.865616 -0.136111 0
M  V30 10 C 0.160607 -1.050178 -0.233237 0
M  V30 11 C -0.449165 -2.209708 -0.661735 0
M  V30 12 C -1.892047 -2.394296 -0.757667 0
M  V30 13 C -2.823772 -1.434721 -0.433258 0
M  V30 14 N -4.155844 -1.586090 -0.512835 0
M  V30 15 C -5.242001 -0.818474 -0.261430 0
M  V30 16 C -5.188424 0.571365 0.230277 0
M  V30 17 C -4.339991 0.864726 1.292368 0
M  V30 18 C -4.198078 2.135424 1.837048 0
M  V30 19 C -4.969007 3.147491 1.256752 0
M  V30 20 Cl -4.807141 4.781960 1.924084 0
M  V30 21 C -5.820806 2.890630 0.201445 0
M  V30 22 C -5.931435 1.613509 -0.310311 0
M  V30 23 C -6.369937 -1.574827 -0.555493 0
M  V30 24 N -5.971906 -2.793894 -0.982600 0
M  V30 25 C -4.615883 -2.797945 -0.955077 0
M  V30 26 C -3.728669 -3.799082 -1.295557 0
M  V30 27 N -2.406109 -3.577664 -1.190718 0
M  V30 28 C 0.382142 -3.251766 -1.014527 0
M  V30 29 C 1.753842 -3.116777 -0.934885 0
M  V30 30 C 3.491744 -1.736609 2.159787 0
M  V30 31 C 3.544684 -0.400180 2.863182 0
M  V30 32 H 5.652238 1.828523 1.521855 0
M  V30 33 H 4.072851 1.284097 0.962695 0
M  V30 34 H 4.194450 2.344787 2.426817 0
M  V30 35 H 6.666574 0.294922 1.929413 0
M  V30 36 H 6.369666 -0.895970 3.215049 0
M  V30 37 H 6.205211 -2.372980 1.514470 0
M  V30 38 H 6.157858 -1.097009 0.244088 0
M  V30 39 H 1.944197 0.088169 0.208914 0
M  V30 40 H -0.439998 -0.205079 0.056528 0
M  V30 41 H -2.430596 -0.486570 -0.093941 0
M  V30 42 H -3.715366 0.136998 1.800956 0
M  V30 43 H -3.555810 2.383852 2.649696 0
M  V30 44 H -6.400540 3.686281 -0.224686 0
M  V30 45 H -6.597788 1.365119 -1.152892 0
M  V30 46 H -7.354594 -1.172506 -0.432736 0
M  V30 47 H -3.999396 -4.775849 -1.649960 0
M  V30 48 H -0.087868 -4.172037 -1.356389 0
M  V30 49 H 2.422217 -3.934653 -1.210792 0
M  V30 50 H 3.909251 -2.530079 2.826074 0
M  V30 51 H 2.434906 -2.000035 1.948001 0
M  V30 52 H 2.662324 0.177439 2.500181 0
M  V30 53 H 3.376144 -0.582059 3.964463 0
M  V30 END ATOM
M  V30 BEGIN BOND
M  V30 1 1 1 2
M  V30 2 1 2 3
M  V30 3 1 3 4
M  V30 4 1 4 5
M  V30 5 1 5 6
M  V30 6 2 6 7
M  V30 7 1 6 8
M  V30 8 2 8 9
M  V30 9 1 9 10
M  V30 10 2 10 11
M  V30 11 1 11 12
M  V30 12 2 12 13
M  V30 13 1 13 14
M  V30 14 1 14 15
M  V30 15 1 15 16
M  V30 16 2 16 17
M  V30 17 1 17 18
M  V30 18 2 18 19
M  V30 19 1 19 20
M  V30 20 1 19 21
M  V30 21 2 21 22
M  V30 22 2 15 23
M  V30 23 1 23 24
M  V30 24 2 24 25
M  V30 25 1 25 26
M  V30 26 2 26 27
M  V30 27 1 11 28
M  V30 28 2 28 29
M  V30 29 1 5 30
M  V30 30 1 30 31
M  V30 31 1 31 2
M  V30 32 1 29 8
M  V30 33 1 27 12
M  V30 34 1 25 14
M  V30 35 1 22 16
M  V30 36 1 1 32
M  V30 37 1 1 33
M  V30 38 1 1 34
M  V30 39 1 3 35
M  V30 40 1 3 36
M  V30 41 1 4 37
M  V30 42 1 4 38
M  V30 43 1 9 39
M  V30 44 1 10 40
M  V30 45 1 13 41
M  V30 46 1 17 42
M  V30 47 1 18 43
M  V30 48 1 21 44
M  V30 49 1 22 45
M  V30 50 1 23 46
M  V30 51 1 26 47
M  V30 52 1 28 48
M  V30 53 1 29 49
M  V30 54 1 30 50
M  V30 55 1 30 51
M  V30 56 1 31 52
M  V30 57 1 31 53
M  V30 END BOND
M  V30 END CTAB
M  END
>  <Dataset>  (790) 
ChEMBL_Kinases

>  <Ligand_Instance>  (790) 
nan

>  <PDB_ID>  (790) 
nan

>  <Standardized_SMILES>  (790) 
CN1CCN(C(=O)c2ccc(-c3cn4c(-c5ccc(Cl)cc5)cnc4cn3)cc2)CC1

>  <Name>  (790) 
nan

>  <Pocket>  (790) 
nan

>  <ATP_Site>  (790) 
nan

>  <Peripheral>  (790) 
nan

>  <Num_H_Atoms_ProtBoundConf>  (790) 
nan

>  <Num_Resolved_Atoms>  (790) 
nan

>  <Num_Not_Resolved_Atoms>  (790) 
nan

$$$$
CHEMBL3261096
     RDKit          3D

  0  0  0  0  0  0  0  0  0  0999 V3000
M  V30 BEGIN CTAB
M  V30 COUNTS 51 55 0 0 0
M  V30 BEGIN ATOM
M  V30 1 C 3.509333 -3.427104 4.036621 0
M  V30 2 C 2.231690 -2.775036 3.587220 0
M  V30 3 C 1.091839 -2.939158 4.365772 0
M  V30 4 C -0.106285 -2.361041 3.995838 0
M  V30 5 C -0.158205 -1.613299 2.835667 0
M  V30 6 C 0.997630 -1.469264 2.081817 0
M  V30 7 C 1.178625 -0.731692 0.830085 0
M  V30 8 N 1.495644 0.589674 0.698630 0
M  V30 9 N 1.568973 0.868210 -0.607064 0
M  V30 10 C 1.891864 2.209206 -1.037102 0
M  V30 11 C 0.588742 2.950701 -1.176898 0
M  V30 12 S -0.290808 3.751196 -2.309045 0
M  V30 13 N -0.145773 2.994440 0.037827 0
M  V30 14 C -1.396166 3.555076 0.426588 0
M  V30 15 C -1.588717 4.814306 0.947030 0
M  V30 16 C -2.876024 5.195873 1.268048 0
M  V30 17 C -3.953762 4.356057 1.081181 0
M  V30 18 C -3.776141 3.073493 0.553679 0
M  V30 19 C -4.920301 2.234331 0.375698 0
M  V30 20 N -5.834548 1.558209 0.222508 0
M  V30 21 C -2.474618 2.697845 0.233090 0
M  V30 22 C 1.316107 -0.202221 -1.348328 0
M  V30 23 C 1.067203 -1.222182 -0.454132 0
M  V30 24 C 0.733054 -2.617104 -0.718470 0
M  V30 25 C -0.521142 -2.967927 -0.255605 0
M  V30 26 C -0.926290 -4.291211 -0.467148 0
M  V30 27 C -0.087309 -5.184810 -1.113065 0
M  V30 28 N -0.218682 -6.481674 -1.439853 0
M  V30 29 C 0.881618 -6.927508 -2.070445 0
M  V30 30 N 1.707114 -5.859048 -2.125618 0
M  V30 31 N 1.146638 -4.803222 -1.557374 0
M  V30 32 C 1.543102 -3.524940 -1.355589 0
M  V30 33 N 2.167643 -2.045433 2.461523 0
M  V30 34 H 4.361953 -2.741222 3.796476 0
M  V30 35 H 3.485812 -3.606297 5.121685 0
M  V30 36 H 3.673809 -4.375216 3.494512 0
M  V30 37 H 1.121294 -3.521857 5.275350 0
M  V30 38 H -1.036933 -2.442368 4.547334 0
M  V30 39 H -1.012908 -1.100360 2.413342 0
M  V30 40 H 2.322294 2.204349 -2.064716 0
M  V30 41 H 2.550430 2.732644 -0.305691 0
M  V30 42 H 0.111333 2.585845 0.971644 0
M  V30 43 H -0.694179 5.422716 1.067314 0
M  V30 44 H -2.998615 6.189312 1.673592 0
M  V30 45 H -4.928051 4.762535 1.370223 0
M  V30 46 H -2.373742 1.696864 -0.173277 0
M  V30 47 H 1.302212 -0.280960 -2.420607 0
M  V30 48 H -1.244341 -2.345785 0.256846 0
M  V30 49 H -1.901805 -4.639723 -0.130214 0
M  V30 50 H 1.155275 -7.891564 -2.481304 0
M  V30 51 H 2.511817 -3.180364 -1.690933 0
M  V30 END ATOM
M  V30 BEGIN BOND
M  V30 1 1 1 2
M  V30 2 2 2 3
M  V30 3 1 3 4
M  V30 4 2 4 5
M  V30 5 1 5 6
M  V30 6 1 6 7
M  V30 7 2 7 8
M  V30 8 1 8 9
M  V30 9 1 9 10
M  V30 10 1 10 11
M  V30 11 2 11 12
M  V30 12 1 11 13
M  V30 13 1 13 14
M  V30 14 2 14 15
M  V30 15 1 15 16
M  V30 16 2 16 17
M  V30 17 1 17 18
M  V30 18 1 18 19
M  V30 19 3 19 20
M  V30 20 2 18 21
M  V30 21 1 9 22
M  V30 22 2 22 23
M  V30 23 1 23 24
M  V30 24 1 24 25
M  V30 25 2 25 26
M  V30 26 1 26 27
M  V30 27 2 27 28
M  V30 28 1 28 29
M  V30 29 2 29 30
M  V30 30 1 30 31
M  V30 31 1 31 32
M  V30 32 2 6 33
M  V30 33 1 33 2
M  V30 34 1 23 7
M  V30 35 2 32 24
M  V30 36 1 21 14
M  V30 37 1 31 27
M  V30 38 1 1 34
M  V30 39 1 1 35
M  V30 40 1 1 36
M  V30 41 1 3 37
M  V30 42 1 4 38
M  V30 43 1 5 39
M  V30 44 1 10 40
M  V30 45 1 10 41
M  V30 46 1 13 42
M  V30 47 1 15 43
M  V30 48 1 16 44
M  V30 49 1 17 45
M  V30 50 1 21 46
M  V30 51 1 22 47
M  V30 52 1 25 48
M  V30 53 1 26 49
M  V30 54 1 29 50
M  V30 55 1 32 51
M  V30 END BOND
M  V30 END CTAB
M  END
>  <Dataset>  (791) 
ChEMBL_Kinases

>  <Ligand_Instance>  (791) 
nan

>  <PDB_ID>  (791) 
nan

>  <Standardized_SMILES>  (791) 
Cc1cccc(-c2nn(CC(=S)Nc3cccc(C#N)c3)cc2-c2ccc3ncnn3c2)n1

>  <Name>  (791) 
nan

>  <Pocket>  (791) 
nan

>  <ATP_Site>  (791) 
nan

>  <Peripheral>  (791) 
nan

>  <Num_H_Atoms_ProtBoundConf>  (791) 
nan

>  <Num_Resolved_Atoms>  (791) 
nan

>  <Num_Not_Resolved_Atoms>  (791) 
nan

$$$$
CHEMBL3260623
     RDKit          3D

  0  0  0  0  0  0  0  0  0  0999 V3000
M  V30 BEGIN CTAB
M  V30 COUNTS 48 52 0 0 0
M  V30 BEGIN ATOM
M  V30 1 C 0.155920 -2.592724 5.073470 0
M  V30 2 C 0.969419 -2.772194 3.842516 0
M  V30 3 C 1.928250 -3.761051 3.805621 0
M  V30 4 C 2.658497 -3.902123 2.663041 0
M  V30 5 C 2.493430 -3.118218 1.552049 0
M  V30 6 C 1.511348 -2.144272 1.660606 0
M  V30 7 C 1.181741 -1.211972 0.593901 0
M  V30 8 N 1.967831 -0.296230 0.009224 0
M  V30 9 C 1.362952 0.422469 -0.960372 0
M  V30 10 C 2.100570 1.478659 -1.713920 0
M  V30 11 N 2.063662 2.771147 -1.126582 0
M  V30 12 C 0.994169 3.639993 -0.908030 0
M  V30 13 C 1.146801 4.882954 -0.283225 0
M  V30 14 C 0.096908 5.745655 -0.074500 0
M  V30 15 F 0.357768 6.935614 0.545934 0
M  V30 16 C -1.165180 5.421233 -0.475346 0
M  V30 17 C -1.360946 4.214778 -1.091106 0
M  V30 18 F -2.626808 3.921966 -1.477423 0
M  V30 19 C -0.279688 3.363086 -1.288654 0
M  V30 20 N 0.116715 -0.081735 -0.978362 0
M  V30 21 C -0.018865 -1.054460 -0.064947 0
M  V30 22 C -1.248454 -1.806243 0.170905 0
M  V30 23 C -2.489506 -1.339386 0.580338 0
M  V30 24 C -3.513394 -2.256951 0.735317 0
M  V30 25 C -3.311569 -3.602433 0.490597 0
M  V30 26 N -4.176988 -4.635898 0.585289 0
M  V30 27 C -3.500154 -5.733271 0.243727 0
M  V30 28 N -2.244254 -5.359840 -0.051809 0
M  V30 29 N -2.095232 -4.051293 0.090566 0
M  V30 30 C -1.091876 -3.166708 -0.063370 0
M  V30 31 N 0.750540 -1.954047 2.772190 0
M  V30 32 H -0.858056 -2.210006 4.879136 0
M  V30 33 H 0.092460 -3.535188 5.639022 0
M  V30 34 H 0.673388 -1.867110 5.734871 0
M  V30 35 H 2.066375 -4.385959 4.678650 0
M  V30 36 H 3.423761 -4.687812 2.626439 0
M  V30 37 H 3.051288 -3.198666 0.629766 0
M  V30 38 H 2.975597 -0.199072 0.333341 0
M  V30 39 H 3.128608 1.100292 -1.864034 0
M  V30 40 H 1.679010 1.508458 -2.769083 0
M  V30 41 H 3.010829 3.137246 -0.798594 0
M  V30 42 H 2.140864 5.185030 0.054714 0
M  V30 43 H -1.950010 6.127804 -0.289642 0
M  V30 44 H -0.559357 2.466925 -1.778404 0
M  V30 45 H -2.506230 -0.284739 0.733024 0
M  V30 46 H -4.455426 -1.842161 1.054537 0
M  V30 47 H -3.739336 -6.794203 0.161012 0
M  V30 48 H -0.163345 -3.644559 -0.387673 0
M  V30 END ATOM
M  V30 BEGIN BOND
M  V30 1 1 1 2
M  V30 2 2 2 3
M  V30 3 1 3 4
M  V30 4 2 4 5
M  V30 5 1 5 6
M  V30 6 1 6 7
M  V30 7 1 7 8
M  V30 8 1 8 9
M  V30 9 1 9 10
M  V30 10 1 10 11
M  V30 11 1 11 12
M  V30 12 2 12 13
M  V30 13 1 13 14
M  V30 14 1 14 15
M  V30 15 2 14 16
M  V30 16 1 16 17
M  V30 17 1 17 18
M  V30 18 2 17 19
M  V30 19 2 9 20
M  V30 20 1 20 21
M  V30 21 1 21 22
M  V30 22 1 22 23
M  V30 23 2 23 24
M  V30 24 1 24 25
M  V30 25 2 25 26
M  V30 26 1 26 27
M  V30 27 2 27 28
M  V30 28 1 28 29
M  V30 29 1 29 30
M  V30 30 2 6 31
M  V30 31 1 31 2
M  V30 32 2 21 7
M  V30 33 2 30 22
M  V30 34 1 19 12
M  V30 35 1 29 25
M  V30 36 1 1 32
M  V30 37 1 1 33
M  V30 38 1 1 34
M  V30 39 1 3 35
M  V30 40 1 4 36
M  V30 41 1 5 37
M  V30 42 1 8 38
M  V30 43 1 10 39
M  V30 44 1 10 40
M  V30 45 1 11 41
M  V30 46 1 13 42
M  V30 47 1 16 43
M  V30 48 1 19 44
M  V30 49 1 23 45
M  V30 50 1 24 46
M  V30 51 1 27 47
M  V30 52 1 30 48
M  V30 END BOND
M  V30 END CTAB
M  END
>  <Dataset>  (792) 
ChEMBL_Kinases

>  <Ligand_Instance>  (792) 
nan

>  <PDB_ID>  (792) 
nan

>  <Standardized_SMILES>  (792) 
Cc1cccc(-c2[nH]c(CNc3cc(F)cc(F)c3)nc2-c2ccc3ncnn3c2)n1

>  <Name>  (792) 
nan

>  <Pocket>  (792) 
nan

>  <ATP_Site>  (792) 
nan

>  <Peripheral>  (792) 
nan

>  <Num_H_Atoms_ProtBoundConf>  (792) 
nan

>  <Num_Resolved_Atoms>  (792) 
nan

>  <Num_Not_Resolved_Atoms>  (792) 
nan

$$$$
CHEMBL3260624
     RDKit          3D

  0  0  0  0  0  0  0  0  0  0999 V3000
M  V30 BEGIN CTAB
M  V30 COUNTS 48 52 0 0 0
M  V30 BEGIN ATOM
M  V30 1 C 0.077233 -2.615557 5.040577 0
M  V30 2 C 0.876772 -2.753018 3.794565 0
M  V30 3 C 1.820902 -3.770631 3.792109 0
M  V30 4 C 2.593477 -3.954366 2.674691 0
M  V30 5 C 2.473390 -3.166905 1.544058 0
M  V30 6 C 1.516077 -2.167660 1.602635 0
M  V30 7 C 1.201826 -1.214558 0.545880 0
M  V30 8 N 1.997654 -0.305623 -0.016904 0
M  V30 9 C 1.367712 0.425856 -0.986438 0
M  V30 10 C 2.121132 1.483226 -1.721134 0
M  V30 11 N 2.092759 2.767126 -1.104577 0
M  V30 12 C 1.041799 3.668305 -0.863858 0
M  V30 13 C 1.199887 4.894418 -0.212206 0
M  V30 14 C 0.133055 5.735004 -0.016676 0
M  V30 15 Cl 0.490741 7.244158 0.820158 0
M  V30 16 C -1.126432 5.433284 -0.437983 0
M  V30 17 C -1.323996 4.231945 -1.085724 0
M  V30 18 Cl -2.952411 3.869466 -1.616198 0
M  V30 19 C -0.235574 3.379235 -1.282834 0
M  V30 20 N 0.116990 -0.065481 -1.015849 0
M  V30 21 C 0.001417 -1.042030 -0.110571 0
M  V30 22 C -1.216111 -1.817041 0.149141 0
M  V30 23 C -2.434237 -1.344945 0.591807 0
M  V30 24 C -3.464892 -2.254749 0.773579 0
M  V30 25 C -3.294761 -3.599696 0.523453 0
M  V30 26 N -4.130086 -4.661914 0.622725 0
M  V30 27 C -3.432522 -5.770390 0.245802 0
M  V30 28 N -2.187009 -5.379347 -0.077994 0
M  V30 29 N -2.085474 -4.052171 0.086436 0
M  V30 30 C -1.084529 -3.169869 -0.090322 0
M  V30 31 N 0.751831 -1.987289 2.710390 0
M  V30 32 H -0.825481 -2.010486 4.843072 0
M  V30 33 H -0.214591 -3.580534 5.466205 0
M  V30 34 H 0.692618 -2.042332 5.784382 0
M  V30 35 H 1.974274 -4.429811 4.640982 0
M  V30 36 H 3.351671 -4.740383 2.619344 0
M  V30 37 H 3.022098 -3.227802 0.630920 0
M  V30 38 H 2.998810 -0.217658 0.304263 0
M  V30 39 H 3.147625 1.114073 -1.877765 0
M  V30 40 H 1.691437 1.571691 -2.755925 0
M  V30 41 H 3.027271 3.120987 -0.758604 0
M  V30 42 H 2.198138 5.133401 0.121912 0
M  V30 43 H -1.904705 6.151365 -0.242335 0
M  V30 44 H -0.527020 2.496670 -1.796681 0
M  V30 45 H -2.470875 -0.279784 0.759873 0
M  V30 46 H -4.403614 -1.846825 1.121233 0
M  V30 47 H -3.770654 -6.794054 0.198586 0
M  V30 48 H -0.149600 -3.624515 -0.443475 0
M  V30 END ATOM
M  V30 BEGIN BOND
M  V30 1 1 1 2
M  V30 2 2 2 3
M  V30 3 1 3 4
M  V30 4 2 4 5
M  V30 5 1 5 6
M  V30 6 1 6 7
M  V30 7 1 7 8
M  V30 8 1 8 9
M  V30 9 1 9 10
M  V30 10 1 10 11
M  V30 11 1 11 12
M  V30 12 2 12 13
M  V30 13 1 13 14
M  V30 14 1 14 15
M  V30 15 2 14 16
M  V30 16 1 16 17
M  V30 17 1 17 18
M  V30 18 2 17 19
M  V30 19 2 9 20
M  V30 20 1 20 21
M  V30 21 1 21 22
M  V30 22 1 22 23
M  V30 23 2 23 24
M  V30 24 1 24 25
M  V30 25 2 25 26
M  V30 26 1 26 27
M  V30 27 2 27 28
M  V30 28 1 28 29
M  V30 29 1 29 30
M  V30 30 2 6 31
M  V30 31 1 31 2
M  V30 32 2 21 7
M  V30 33 2 30 22
M  V30 34 1 19 12
M  V30 35 1 29 25
M  V30 36 1 1 32
M  V30 37 1 1 33
M  V30 38 1 1 34
M  V30 39 1 3 35
M  V30 40 1 4 36
M  V30 41 1 5 37
M  V30 42 1 8 38
M  V30 43 1 10 39
M  V30 44 1 10 40
M  V30 45 1 11 41
M  V30 46 1 13 42
M  V30 47 1 16 43
M  V30 48 1 19 44
M  V30 49 1 23 45
M  V30 50 1 24 46
M  V30 51 1 27 47
M  V30 52 1 30 48
M  V30 END BOND
M  V30 END CTAB
M  END
>  <Dataset>  (793) 
ChEMBL_Kinases

>  <Ligand_Instance>  (793) 
nan

>  <PDB_ID>  (793) 
nan

>  <Standardized_SMILES>  (793) 
Cc1cccc(-c2[nH]c(CNc3cc(Cl)cc(Cl)c3)nc2-c2ccc3ncnn3c2)n1

>  <Name>  (793) 
nan

>  <Pocket>  (793) 
nan

>  <ATP_Site>  (793) 
nan

>  <Peripheral>  (793) 
nan

>  <Num_H_Atoms_ProtBoundConf>  (793) 
nan

>  <Num_Resolved_Atoms>  (793) 
nan

>  <Num_Not_Resolved_Atoms>  (793) 
nan

$$$$
CHEMBL3260625
     RDKit          3D

  0  0  0  0  0  0  0  0  0  0999 V3000
M  V30 BEGIN CTAB
M  V30 COUNTS 54 58 0 0 0
M  V30 BEGIN ATOM
M  V30 1 C 5.029578 -3.858988 3.128621 0
M  V30 2 C 4.420219 -2.609118 2.612423 0
M  V30 3 C 4.121007 -1.548097 3.450555 0
M  V30 4 C 3.556354 -0.403563 2.934502 0
M  V30 5 C 3.235496 0.734103 3.831009 0
M  V30 6 C 3.309376 -0.365443 1.579703 0
M  V30 7 C 3.583041 -1.384618 0.696612 0
M  V30 8 N 3.328981 -1.358323 -0.690322 0
M  V30 9 C 2.722829 -0.306161 -1.474784 0
M  V30 10 C 1.285185 -0.074924 -1.104158 0
M  V30 11 N 0.548428 0.683214 -0.277756 0
M  V30 12 C -0.758654 0.408274 -0.419675 0
M  V30 13 C -1.752425 1.116156 0.378883 0
M  V30 14 C -1.704239 0.881728 1.760020 0
M  V30 15 C -2.587471 1.493136 2.618585 0
M  V30 16 C -3.562689 2.369557 2.137387 0
M  V30 17 N -4.547989 3.112849 2.660037 0
M  V30 18 C -5.184758 3.780693 1.668300 0
M  V30 19 N -4.559044 3.422787 0.527971 0
M  V30 20 N -3.578916 2.571920 0.797815 0
M  V30 21 C -2.717308 1.976345 -0.045496 0
M  V30 22 C -0.874873 -0.571966 -1.380757 0
M  V30 23 C -2.140317 -1.144482 -1.824033 0
M  V30 24 C -3.188590 -0.577682 -2.496044 0
M  V30 25 C -4.292137 -1.350191 -2.799285 0
M  V30 26 C -4.341304 -2.684351 -2.429309 0
M  V30 27 C -3.273346 -3.233190 -1.753144 0
M  V30 28 C -3.413531 -4.649565 -1.404255 0
M  V30 29 N -2.216991 -2.463270 -1.471667 0
M  V30 30 N 0.379407 -0.846208 -1.778792 0
M  V30 31 C 4.146424 -2.502492 1.268716 0
M  V30 32 H 4.520680 -4.777742 2.737507 0
M  V30 33 H 6.098006 -3.980006 2.863902 0
M  V30 34 H 4.967643 -3.924080 4.236508 0
M  V30 35 H 4.338113 -1.635952 4.508157 0
M  V30 36 H 3.452004 1.715321 3.343390 0
M  V30 37 H 3.815398 0.645886 4.784631 0
M  V30 38 H 2.164833 0.706060 4.094543 0
M  V30 39 H 2.873306 0.543249 1.208287 0
M  V30 40 H 3.607743 -2.207241 -1.258230 0
M  V30 41 H 2.851379 -0.444553 -2.547149 0
M  V30 42 H 3.285849 0.631686 -1.194974 0
M  V30 43 H -1.000179 0.226103 2.270105 0
M  V30 44 H -2.580898 1.337028 3.691105 0
M  V30 45 H -6.019417 4.468374 1.696995 0
M  V30 46 H -2.758417 2.161596 -1.089581 0
M  V30 47 H -3.028058 0.449859 -2.725460 0
M  V30 48 H -5.074017 -0.815283 -3.333553 0
M  V30 49 H -5.240400 -3.224005 -2.702695 0
M  V30 50 H -2.687053 -4.869397 -0.578139 0
M  V30 51 H -3.105240 -5.265926 -2.270192 0
M  V30 52 H -4.448193 -4.936183 -1.129231 0
M  V30 53 H 0.493144 -1.591319 -2.529390 0
M  V30 54 H 4.392991 -3.355058 0.630500 0
M  V30 END ATOM
M  V30 BEGIN BOND
M  V30 1 1 1 2
M  V30 2 2 2 3
M  V30 3 1 3 4
M  V30 4 1 4 5
M  V30 5 2 4 6
M  V30 6 1 6 7
M  V30 7 1 7 8
M  V30 8 1 8 9
M  V30 9 1 9 10
M  V30 10 2 10 11
M  V30 11 1 11 12
M  V30 12 1 12 13
M  V30 13 1 13 14
M  V30 14 2 14 15
M  V30 15 1 15 16
M  V30 16 2 16 17
M  V30 17 1 17 18
M  V30 18 2 18 19
M  V30 19 1 19 20
M  V30 20 1 20 21
M  V30 21 2 12 22
M  V30 22 1 22 23
M  V30 23 2 23 24
M  V30 24 1 24 25
M  V30 25 2 25 26
M  V30 26 1 26 27
M  V30 27 1 27 28
M  V30 28 2 27 29
M  V30 29 1 22 30
M  V30 30 2 7 31
M  V30 31 1 31 2
M  V30 32 1 30 10
M  V30 33 2 21 13
M  V30 34 1 29 23
M  V30 35 1 20 16
M  V30 36 1 1 32
M  V30 37 1 1 33
M  V30 38 1 1 34
M  V30 39 1 3 35
M  V30 40 1 5 36
M  V30 41 1 5 37
M  V30 42 1 5 38
M  V30 43 1 6 39
M  V30 44 1 8 40
M  V30 45 1 9 41
M  V30 46 1 9 42
M  V30 47 1 14 43
M  V30 48 1 15 44
M  V30 49 1 18 45
M  V30 50 1 21 46
M  V30 51 1 24 47
M  V30 52 1 25 48
M  V30 53 1 26 49
M  V30 54 1 28 50
M  V30 55 1 28 51
M  V30 56 1 28 52
M  V30 57 1 30 53
M  V30 58 1 31 54
M  V30 END BOND
M  V30 END CTAB
M  END
>  <Dataset>  (794) 
ChEMBL_Kinases

>  <Ligand_Instance>  (794) 
nan

>  <PDB_ID>  (794) 
nan

>  <Standardized_SMILES>  (794) 
Cc1cc(C)cc(NCc2nc(-c3ccc4ncnn4c3)c(-c3cccc(C)n3)[nH]2)c1

>  <Name>  (794) 
nan

>  <Pocket>  (794) 
nan

>  <ATP_Site>  (794) 
nan

>  <Peripheral>  (794) 
nan

>  <Num_H_Atoms_ProtBoundConf>  (794) 
nan

>  <Num_Resolved_Atoms>  (794) 
nan

>  <Num_Not_Resolved_Atoms>  (794) 
nan

$$$$
CHEMBL3260626
     RDKit          3D

  0  0  0  0  0  0  0  0  0  0999 V3000
M  V30 BEGIN CTAB
M  V30 COUNTS 56 60 0 0 0
M  V30 BEGIN ATOM
M  V30 1 C 6.210192 -3.118818 -0.362899 0
M  V30 2 O 5.146949 -3.780346 -1.048370 0
M  V30 3 C 3.861879 -3.792386 -0.529440 0
M  V30 4 C 3.652439 -3.145616 0.664283 0
M  V30 5 C 2.391543 -3.116741 1.243973 0
M  V30 6 N 2.182588 -2.464617 2.465912 0
M  V30 7 C 1.022437 -2.237760 3.296853 0
M  V30 8 C 0.089992 -1.347659 2.557607 0
M  V30 9 N 0.343401 -0.034563 2.697042 0
M  V30 10 C -0.565160 0.665845 1.997830 0
M  V30 11 C -0.785732 2.109024 1.780280 0
M  V30 12 C -0.679121 2.534328 0.454149 0
M  V30 13 C -0.862965 3.857341 0.125400 0
M  V30 14 C -1.157945 4.800887 1.097181 0
M  V30 15 N -1.387489 6.138300 1.088443 0
M  V30 16 C -1.626652 6.508700 2.379792 0
M  V30 17 N -1.536035 5.394569 3.128513 0
M  V30 18 N -1.249412 4.337957 2.359561 0
M  V30 19 C -1.080122 3.068134 2.727466 0
M  V30 20 C -1.428532 -0.226881 1.390921 0
M  V30 21 C -2.587104 -0.025154 0.525356 0
M  V30 22 C -3.646652 0.670316 1.114639 0
M  V30 23 C -4.798903 0.919454 0.386382 0
M  V30 24 C -4.844066 0.452673 -0.928445 0
M  V30 25 C -3.775863 -0.241782 -1.504394 0
M  V30 26 C -3.868621 -0.720689 -2.908433 0
M  V30 27 N -2.663556 -0.466367 -0.758628 0
M  V30 28 N -0.983920 -1.438268 1.765387 0
M  V30 29 C 1.411479 -3.765856 0.546709 0
M  V30 30 C 1.559714 -4.430305 -0.651968 0
M  V30 31 O 0.522455 -5.066753 -1.303612 0
M  V30 32 C 0.664492 -5.745256 -2.522944 0
M  V30 33 C 2.851426 -4.425393 -1.187010 0
M  V30 34 H 7.161977 -3.233908 -0.886408 0
M  V30 35 H 6.269115 -3.619779 0.634791 0
M  V30 36 H 6.008437 -2.036427 -0.242470 0
M  V30 37 H 4.482239 -2.651519 1.159762 0
M  V30 38 H 3.043183 -2.029885 2.904089 0
M  V30 39 H 1.257715 -1.891522 4.300102 0
M  V30 40 H 0.505004 -3.241017 3.337475 0
M  V30 41 H -0.450918 1.834246 -0.336746 0
M  V30 42 H -0.789355 4.229263 -0.891763 0
M  V30 43 H -1.856579 7.444295 2.886351 0
M  V30 44 H -1.151495 2.692450 3.731808 0
M  V30 45 H -3.602426 1.027721 2.134446 0
M  V30 46 H -5.629592 1.457808 0.829432 0
M  V30 47 H -5.755998 0.663014 -1.470389 0
M  V30 48 H -4.808698 -1.284448 -3.073102 0
M  V30 49 H -3.017167 -1.409092 -3.081753 0
M  V30 50 H -3.766468 0.159826 -3.568234 0
M  V30 51 H -1.350139 -2.381742 1.536355 0
M  V30 52 H 0.408202 -3.803162 0.918597 0
M  V30 53 H -0.287325 -5.781521 -3.097447 0
M  V30 54 H 1.130702 -6.733957 -2.387916 0
M  V30 55 H 1.365900 -5.174063 -3.194184 0
M  V30 56 H 3.074059 -4.908766 -2.107485 0
M  V30 END ATOM
M  V30 BEGIN BOND
M  V30 1 1 1 2
M  V30 2 1 2 3
M  V30 3 2 3 4
M  V30 4 1 4 5
M  V30 5 1 5 6
M  V30 6 1 6 7
M  V30 7 1 7 8
M  V30 8 2 8 9
M  V30 9 1 9 10
M  V30 10 1 10 11
M  V30 11 1 11 12
M  V30 12 2 12 13
M  V30 13 1 13 14
M  V30 14 2 14 15
M  V30 15 1 15 16
M  V30 16 2 16 17
M  V30 17 1 17 18
M  V30 18 1 18 19
M  V30 19 2 10 20
M  V30 20 1 20 21
M  V30 21 2 21 22
M  V30 22 1 22 23
M  V30 23 2 23 24
M  V30 24 1 24 25
M  V30 25 1 25 26
M  V30 26 2 25 27
M  V30 27 1 20 28
M  V30 28 2 5 29
M  V30 29 1 29 30
M  V30 30 1 30 31
M  V30 31 1 31 32
M  V30 32 2 30 33
M  V30 33 1 33 3
M  V30 34 1 28 8
M  V30 35 2 19 11
M  V30 36 1 27 21
M  V30 37 1 18 14
M  V30 38 1 1 34
M  V30 39 1 1 35
M  V30 40 1 1 36
M  V30 41 1 4 37
M  V30 42 1 6 38
M  V30 43 1 7 39
M  V30 44 1 7 40
M  V30 45 1 12 41
M  V30 46 1 13 42
M  V30 47 1 16 43
M  V30 48 1 19 44
M  V30 49 1 22 45
M  V30 50 1 23 46
M  V30 51 1 24 47
M  V30 52 1 26 48
M  V30 53 1 26 49
M  V30 54 1 26 50
M  V30 55 1 28 51
M  V30 56 1 29 52
M  V30 57 1 32 53
M  V30 58 1 32 54
M  V30 59 1 32 55
M  V30 60 1 33 56
M  V30 END BOND
M  V30 END CTAB
M  END
>  <Dataset>  (795) 
ChEMBL_Kinases

>  <Ligand_Instance>  (795) 
nan

>  <PDB_ID>  (795) 
nan

>  <Standardized_SMILES>  (795) 
COc1cc(NCc2nc(-c3ccc4ncnn4c3)c(-c3cccc(C)n3)[nH]2)cc(OC)c1

>  <Name>  (795) 
nan

>  <Pocket>  (795) 
nan

>  <ATP_Site>  (795) 
nan

>  <Peripheral>  (795) 
nan

>  <Num_H_Atoms_ProtBoundConf>  (795) 
nan

>  <Num_Resolved_Atoms>  (795) 
nan

>  <Num_Not_Resolved_Atoms>  (795) 
nan

$$$$
CHEMBL3260627
     RDKit          3D

  0  0  0  0  0  0  0  0  0  0999 V3000
M  V30 BEGIN CTAB
M  V30 COUNTS 56 60 0 0 0
M  V30 BEGIN ATOM
M  V30 1 C 4.915399 -2.879247 4.368350 0
M  V30 2 C 3.442304 -2.790696 4.073560 0
M  V30 3 C 2.580264 -3.575831 4.829873 0
M  V30 4 C 1.276105 -3.401826 4.477234 0
M  V30 5 C 0.677233 -2.605277 3.527048 0
M  V30 6 C 1.667884 -1.872676 2.844293 0
M  V30 7 C 1.385953 -0.942258 1.773735 0
M  V30 8 N 0.874042 0.254599 1.593526 0
M  V30 9 C 0.860018 0.671457 0.345407 0
M  V30 10 C 0.450887 1.907071 -0.417220 0
M  V30 11 N -0.889700 1.888003 -0.767383 0
M  V30 12 C -2.253193 1.916347 -1.071185 0
M  V30 13 C -3.418152 2.521950 -0.775464 0
M  V30 14 C -4.636238 2.316382 -1.315297 0
M  V30 15 N -5.691695 3.092623 -0.824684 0
M  V30 16 C -5.659368 4.084893 0.217649 0
M  V30 17 C -6.945087 2.829839 -1.504260 0
M  V30 18 C -4.639301 1.358757 -2.288454 0
M  V30 19 C -3.567641 0.627312 -2.740051 0
M  V30 20 C -2.348596 0.937211 -2.092467 0
M  V30 21 F -1.373454 0.121562 -2.653732 0
M  V30 22 N 1.418225 -0.362919 -0.349417 0
M  V30 23 C 1.752269 -1.367057 0.502737 0
M  V30 24 C 2.392628 -2.537906 -0.073067 0
M  V30 25 C 3.569467 -2.286875 -0.766453 0
M  V30 26 C 4.340047 -3.277908 -1.380393 0
M  V30 27 C 3.772423 -4.512443 -1.199236 0
M  V30 28 N 4.341452 -5.643203 -1.702925 0
M  V30 29 C 3.576227 -6.704428 -1.374496 0
M  V30 30 N 2.544804 -6.188059 -0.668914 0
M  V30 31 N 2.650298 -4.887739 -0.556672 0
M  V30 32 C 1.970987 -3.858733 0.005048 0
M  V30 33 N 2.992974 -1.968841 3.114600 0
M  V30 34 H 5.248005 -1.980667 4.942977 0
M  V30 35 H 5.453708 -2.849853 3.395578 0
M  V30 36 H 5.192244 -3.772749 4.928369 0
M  V30 37 H 2.939322 -4.236879 5.592343 0
M  V30 38 H 0.537458 -3.993142 5.046242 0
M  V30 39 H -0.358492 -2.507608 3.288115 0
M  V30 40 H 0.507463 0.828453 2.362758 0
M  V30 41 H 0.830330 2.739824 0.226281 0
M  V30 42 H 1.098037 1.948002 -1.362984 0
M  V30 43 H -1.084063 2.594290 0.005283 0
M  V30 44 H -3.233153 3.250594 0.011435 0
M  V30 45 H -4.874586 3.911499 0.977559 0
M  V30 46 H -6.629211 4.096464 0.801642 0
M  V30 47 H -5.547403 5.105271 -0.207933 0
M  V30 48 H -6.795536 2.820795 -2.622821 0
M  V30 49 H -7.347671 1.833212 -1.238845 0
M  V30 50 H -7.708920 3.596812 -1.246956 0
M  V30 51 H -5.615371 1.184194 -2.731216 0
M  V30 52 H -3.746058 -0.086275 -3.511037 0
M  V30 53 H 3.947227 -1.255372 -0.851084 0
M  V30 54 H 5.250268 -3.064254 -1.916051 0
M  V30 55 H 3.470582 -7.780374 -1.453107 0
M  V30 56 H 1.059859 -4.052190 0.535004 0
M  V30 END ATOM
M  V30 BEGIN BOND
M  V30 1 1 1 2
M  V30 2 2 2 3
M  V30 3 1 3 4
M  V30 4 2 4 5
M  V30 5 1 5 6
M  V30 6 1 6 7
M  V30 7 1 7 8
M  V30 8 1 8 9
M  V30 9 1 9 10
M  V30 10 1 10 11
M  V30 11 1 11 12
M  V30 12 2 12 13
M  V30 13 1 13 14
M  V30 14 1 14 15
M  V30 15 1 15 16
M  V30 16 1 15 17
M  V30 17 2 14 18
M  V30 18 1 18 19
M  V30 19 2 19 20
M  V30 20 1 20 21
M  V30 21 2 9 22
M  V30 22 1 22 23
M  V30 23 1 23 24
M  V30 24 1 24 25
M  V30 25 2 25 26
M  V30 26 1 26 27
M  V30 27 2 27 28
M  V30 28 1 28 29
M  V30 29 2 29 30
M  V30 30 1 30 31
M  V30 31 1 31 32
M  V30 32 2 6 33
M  V30 33 1 33 2
M  V30 34 2 23 7
M  V30 35 2 32 24
M  V30 36 1 20 12
M  V30 37 1 31 27
M  V30 38 1 1 34
M  V30 39 1 1 35
M  V30 40 1 1 36
M  V30 41 1 3 37
M  V30 42 1 4 38
M  V30 43 1 5 39
M  V30 44 1 8 40
M  V30 45 1 10 41
M  V30 46 1 10 42
M  V30 47 1 11 43
M  V30 48 1 13 44
M  V30 49 1 16 45
M  V30 50 1 16 46
M  V30 51 1 16 47
M  V30 52 1 17 48
M  V30 53 1 17 49
M  V30 54 1 17 50
M  V30 55 1 18 51
M  V30 56 1 19 52
M  V30 57 1 25 53
M  V30 58 1 26 54
M  V30 59 1 29 55
M  V30 60 1 32 56
M  V30 END BOND
M  V30 END CTAB
M  END
>  <Dataset>  (796) 
ChEMBL_Kinases

>  <Ligand_Instance>  (796) 
nan

>  <PDB_ID>  (796) 
nan

>  <Standardized_SMILES>  (796) 
Cc1cccc(-c2[nH]c(CNc3cc(N(C)C)ccc3F)nc2-c2ccc3ncnn3c2)n1

>  <Name>  (796) 
nan

>  <Pocket>  (796) 
nan

>  <ATP_Site>  (796) 
nan

>  <Peripheral>  (796) 
nan

>  <Num_H_Atoms_ProtBoundConf>  (796) 
nan

>  <Num_Resolved_Atoms>  (796) 
nan

>  <Num_Not_Resolved_Atoms>  (796) 
nan

$$$$
CHEMBL3260628
     RDKit          3D

  0  0  0  0  0  0  0  0  0  0999 V3000
M  V30 BEGIN CTAB
M  V30 COUNTS 59 63 0 0 0
M  V30 BEGIN ATOM
M  V30 1 C 4.858382 -3.815298 4.424622 0
M  V30 2 C 4.208844 -2.499553 4.155873 0
M  V30 3 C 4.163352 -1.585013 5.184886 0
M  V30 4 C 3.559319 -0.355040 4.944057 0
M  V30 5 C 3.040222 -0.129279 3.678077 0
M  V30 6 C 3.094114 -1.063002 2.649739 0
M  V30 7 C 2.515649 -0.713709 1.364981 0
M  V30 8 N 2.731160 0.217416 0.445805 0
M  V30 9 C 1.887776 0.118905 -0.626471 0
M  V30 10 C 2.003586 1.083619 -1.744040 0
M  V30 11 N 1.243665 2.275738 -1.608424 0
M  V30 12 C -0.143867 2.469030 -1.565874 0
M  V30 13 C -1.058243 1.437433 -1.677035 0
M  V30 14 C -2.431968 1.559732 -1.651752 0
M  V30 15 C -3.367160 0.442017 -1.771938 0
M  V30 16 N -3.763733 0.130719 -3.120058 0
M  V30 17 C -4.421189 1.228852 -3.783577 0
M  V30 18 C -4.685787 -0.987189 -3.070319 0
M  V30 19 C -2.972299 2.821743 -1.502530 0
M  V30 20 C -2.119536 3.898487 -1.385994 0
M  V30 21 C -0.756754 3.719240 -1.417554 0
M  V30 22 F 0.066778 4.799327 -1.300192 0
M  V30 23 N 1.123333 -0.943462 -0.316872 0
M  V30 24 C 1.473307 -1.464645 0.868414 0
M  V30 25 C 0.704888 -2.625903 1.302805 0
M  V30 26 C 0.759473 -3.753760 0.482682 0
M  V30 27 C 0.081921 -4.924891 0.768974 0
M  V30 28 C -0.665033 -4.917659 1.931329 0
M  V30 29 N -1.428439 -5.893233 2.477879 0
M  V30 30 C -1.953060 -5.377856 3.626937 0
M  V30 31 N -1.521340 -4.097697 3.793014 0
M  V30 32 N -0.737935 -3.846247 2.743096 0
M  V30 33 C -0.071216 -2.725069 2.441005 0
M  V30 34 N 3.690255 -2.246235 2.926432 0
M  V30 35 H 5.547603 -3.732046 5.295205 0
M  V30 36 H 4.096468 -4.572694 4.734981 0
M  V30 37 H 5.461248 -4.175618 3.573385 0
M  V30 38 H 4.567979 -1.770940 6.159264 0
M  V30 39 H 3.491600 0.404489 5.709276 0
M  V30 40 H 2.564172 0.827545 3.472251 0
M  V30 41 H 3.504144 0.931175 0.607328 0
M  V30 42 H 3.071715 1.331470 -1.882421 0
M  V30 43 H 1.667966 0.556848 -2.671521 0
M  V30 44 H 1.784277 3.191835 -1.521797 0
M  V30 45 H -0.743924 0.431029 -1.801306 0
M  V30 46 H -2.841169 -0.466700 -1.381032 0
M  V30 47 H -4.281853 0.589285 -1.182752 0
M  V30 48 H -3.908888 2.186535 -3.691481 0
M  V30 49 H -5.464457 1.298957 -3.406205 0
M  V30 50 H -4.502070 0.964463 -4.858244 0
M  V30 51 H -4.480404 -1.576050 -2.141912 0
M  V30 52 H -4.542096 -1.682615 -3.931817 0
M  V30 53 H -5.715033 -0.602811 -2.987920 0
M  V30 54 H -4.017047 3.092798 -1.462976 0
M  V30 55 H -2.476841 4.922330 -1.265717 0
M  V30 56 H 1.347773 -3.742451 -0.421847 0
M  V30 57 H 0.132560 -5.790160 0.126216 0
M  V30 58 H -2.602545 -6.027817 4.209401 0
M  V30 59 H -0.100772 -1.841310 3.063212 0
M  V30 END ATOM
M  V30 BEGIN BOND
M  V30 1 1 1 2
M  V30 2 2 2 3
M  V30 3 1 3 4
M  V30 4 2 4 5
M  V30 5 1 5 6
M  V30 6 1 6 7
M  V30 7 1 7 8
M  V30 8 1 8 9
M  V30 9 1 9 10
M  V30 10 1 10 11
M  V30 11 1 11 12
M  V30 12 2 12 13
M  V30 13 1 13 14
M  V30 14 1 14 15
M  V30 15 1 15 16
M  V30 16 1 16 17
M  V30 17 1 16 18
M  V30 18 2 14 19
M  V30 19 1 19 20
M  V30 20 2 20 21
M  V30 21 1 21 22
M  V30 22 2 9 23
M  V30 23 1 23 24
M  V30 24 1 24 25
M  V30 25 1 25 26
M  V30 26 2 26 27
M  V30 27 1 27 28
M  V30 28 2 28 29
M  V30 29 1 29 30
M  V30 30 2 30 31
M  V30 31 1 31 32
M  V30 32 1 32 33
M  V30 33 2 6 34
M  V30 34 1 34 2
M  V30 35 2 24 7
M  V30 36 2 33 25
M  V30 37 1 21 12
M  V30 38 1 32 28
M  V30 39 1 1 35
M  V30 40 1 1 36
M  V30 41 1 1 37
M  V30 42 1 3 38
M  V30 43 1 4 39
M  V30 44 1 5 40
M  V30 45 1 8 41
M  V30 46 1 10 42
M  V30 47 1 10 43
M  V30 48 1 11 44
M  V30 49 1 13 45
M  V30 50 1 15 46
M  V30 51 1 15 47
M  V30 52 1 17 48
M  V30 53 1 17 49
M  V30 54 1 17 50
M  V30 55 1 18 51
M  V30 56 1 18 52
M  V30 57 1 18 53
M  V30 58 1 19 54
M  V30 59 1 20 55
M  V30 60 1 26 56
M  V30 61 1 27 57
M  V30 62 1 30 58
M  V30 63 1 33 59
M  V30 END BOND
M  V30 END CTAB
M  END
>  <Dataset>  (797) 
ChEMBL_Kinases

>  <Ligand_Instance>  (797) 
nan

>  <PDB_ID>  (797) 
nan

>  <Standardized_SMILES>  (797) 
Cc1cccc(-c2[nH]c(CNc3cc(CN(C)C)ccc3F)nc2-c2ccc3ncnn3c2)n1

>  <Name>  (797) 
nan

>  <Pocket>  (797) 
nan

>  <ATP_Site>  (797) 
nan

>  <Peripheral>  (797) 
nan

>  <Num_H_Atoms_ProtBoundConf>  (797) 
nan

>  <Num_Resolved_Atoms>  (797) 
nan

>  <Num_Not_Resolved_Atoms>  (797) 
nan

$$$$
CHEMBL3260629
     RDKit          3D

  0  0  0  0  0  0  0  0  0  0999 V3000
M  V30 BEGIN CTAB
M  V30 COUNTS 59 63 0 0 0
M  V30 BEGIN ATOM
M  V30 1 C 5.868035 -1.921740 4.310967 0
M  V30 2 C 4.669697 -1.256207 3.772470 0
M  V30 3 C 4.198261 -0.117587 4.387765 0
M  V30 4 C 3.072437 0.522641 3.896753 0
M  V30 5 C 2.462018 -0.039373 2.773588 0
M  V30 6 C 2.961134 -1.195692 2.168645 0
M  V30 7 C 2.163154 -1.577257 1.036317 0
M  V30 8 N 1.952839 -0.842438 -0.066688 0
M  V30 9 C 1.162568 -1.467539 -0.946822 0
M  V30 10 C 0.543572 -1.262573 -2.275842 0
M  V30 11 N -0.774938 -0.745293 -2.273743 0
M  V30 12 C -1.277683 0.506136 -1.863648 0
M  V30 13 C -0.473373 1.515216 -1.375480 0
M  V30 14 C -0.905744 2.773585 -0.965225 0
M  V30 15 C -2.265258 2.969580 -1.080647 0
M  V30 16 C -3.163962 2.010871 -1.563774 0
M  V30 17 C -4.592733 2.391840 -1.634599 0
M  V30 18 N -5.070644 2.769314 -2.921692 0
M  V30 19 C -5.019115 1.781171 -3.950134 0
M  V30 20 C -4.502812 3.999554 -3.375271 0
M  V30 21 C -2.625232 0.817428 -1.934239 0
M  V30 22 F -3.448616 -0.136901 -2.388337 0
M  V30 23 N 0.871257 -2.661576 -0.343750 0
M  V30 24 C 1.465628 -2.747779 0.854759 0
M  V30 25 C 1.369993 -3.887231 1.772000 0
M  V30 26 C 2.441642 -4.660935 2.167816 0
M  V30 27 C 2.246894 -5.715078 3.037339 0
M  V30 28 C 0.958903 -5.963730 3.490331 0
M  V30 29 N 0.474910 -6.899172 4.324278 0
M  V30 30 C -0.853036 -6.755040 4.475738 0
M  V30 31 N -1.188206 -5.696122 3.708031 0
M  V30 32 N -0.101472 -5.219675 3.115452 0
M  V30 33 C 0.092185 -4.181734 2.258850 0
M  V30 34 N 4.063810 -1.766768 2.702049 0
M  V30 35 H 6.598681 -1.169347 4.711153 0
M  V30 36 H 5.572556 -2.547788 5.176494 0
M  V30 37 H 6.411470 -2.497017 3.536929 0
M  V30 38 H 4.746819 0.251316 5.269181 0
M  V30 39 H 2.743186 1.396631 4.400588 0
M  V30 40 H 1.584958 0.539653 2.465892 0
M  V30 41 H 2.306775 0.100502 -0.324476 0
M  V30 42 H 1.178480 -0.526730 -2.877657 0
M  V30 43 H 0.593103 -2.180373 -2.894945 0
M  V30 44 H -1.516989 -1.419159 -2.644954 0
M  V30 45 H 0.593698 1.377598 -1.285926 0
M  V30 46 H -0.240010 3.522506 -0.592637 0
M  V30 47 H -2.658021 3.949643 -0.768185 0
M  V30 48 H -5.230277 1.598546 -1.154766 0
M  V30 49 H -4.760176 3.289991 -0.967329 0
M  V30 50 H -3.984034 1.634224 -4.315240 0
M  V30 51 H -5.546182 0.842347 -3.688579 0
M  V30 52 H -5.564919 2.169725 -4.868131 0
M  V30 53 H -5.297107 4.561650 -3.924780 0
M  V30 54 H -3.702174 3.804519 -4.136107 0
M  V30 55 H -4.067174 4.623821 -2.588270 0
M  V30 56 H 3.412964 -4.401500 1.770246 0
M  V30 57 H 3.061951 -6.322997 3.354314 0
M  V30 58 H -1.556894 -7.342523 5.079436 0
M  V30 59 H -0.787922 -3.610074 1.984041 0
M  V30 END ATOM
M  V30 BEGIN BOND
M  V30 1 1 1 2
M  V30 2 2 2 3
M  V30 3 1 3 4
M  V30 4 2 4 5
M  V30 5 1 5 6
M  V30 6 1 6 7
M  V30 7 1 7 8
M  V30 8 1 8 9
M  V30 9 1 9 10
M  V30 10 1 10 11
M  V30 11 1 11 12
M  V30 12 2 12 13
M  V30 13 1 13 14
M  V30 14 2 14 15
M  V30 15 1 15 16
M  V30 16 1 16 17
M  V30 17 1 17 18
M  V30 18 1 18 19
M  V30 19 1 18 20
M  V30 20 2 16 21
M  V30 21 1 21 22
M  V30 22 2 9 23
M  V30 23 1 23 24
M  V30 24 1 24 25
M  V30 25 1 25 26
M  V30 26 2 26 27
M  V30 27 1 27 28
M  V30 28 2 28 29
M  V30 29 1 29 30
M  V30 30 2 30 31
M  V30 31 1 31 32
M  V30 32 1 32 33
M  V30 33 2 6 34
M  V30 34 1 34 2
M  V30 35 2 24 7
M  V30 36 2 33 25
M  V30 37 1 21 12
M  V30 38 1 32 28
M  V30 39 1 1 35
M  V30 40 1 1 36
M  V30 41 1 1 37
M  V30 42 1 3 38
M  V30 43 1 4 39
M  V30 44 1 5 40
M  V30 45 1 8 41
M  V30 46 1 10 42
M  V30 47 1 10 43
M  V30 48 1 11 44
M  V30 49 1 13 45
M  V30 50 1 14 46
M  V30 51 1 15 47
M  V30 52 1 17 48
M  V30 53 1 17 49
M  V30 54 1 19 50
M  V30 55 1 19 51
M  V30 56 1 19 52
M  V30 57 1 20 53
M  V30 58 1 20 54
M  V30 59 1 20 55
M  V30 60 1 26 56
M  V30 61 1 27 57
M  V30 62 1 30 58
M  V30 63 1 33 59
M  V30 END BOND
M  V30 END CTAB
M  END
>  <Dataset>  (798) 
ChEMBL_Kinases

>  <Ligand_Instance>  (798) 
nan

>  <PDB_ID>  (798) 
nan

>  <Standardized_SMILES>  (798) 
Cc1cccc(-c2[nH]c(CNc3cccc(CN(C)C)c3F)nc2-c2ccc3ncnn3c2)n1

>  <Name>  (798) 
nan

>  <Pocket>  (798) 
nan

>  <ATP_Site>  (798) 
nan

>  <Peripheral>  (798) 
nan

>  <Num_H_Atoms_ProtBoundConf>  (798) 
nan

>  <Num_Resolved_Atoms>  (798) 
nan

>  <Num_Not_Resolved_Atoms>  (798) 
nan

$$$$
CHEMBL3260630
     RDKit          3D

  0  0  0  0  0  0  0  0  0  0999 V3000
M  V30 BEGIN CTAB
M  V30 COUNTS 63 68 0 0 0
M  V30 BEGIN ATOM
M  V30 1 C 3.551173 -2.674000 -4.186393 0
M  V30 2 C 2.490396 -1.658994 -4.383344 0
M  V30 3 C 2.427738 -0.872589 -5.511361 0
M  V30 4 C 1.499986 0.122643 -5.828765 0
M  V30 5 C 0.512189 0.318255 -4.839834 0
M  V30 6 C 0.574402 -0.465963 -3.713990 0
M  V30 7 C -0.506574 -0.119269 -2.791977 0
M  V30 8 N -0.136941 0.550621 -1.694880 0
M  V30 9 C -1.237390 0.834200 -0.921069 0
M  V30 10 C -1.146388 1.569158 0.393090 0
M  V30 11 N -1.111757 0.613778 1.482768 0
M  V30 12 C -0.785764 1.084555 2.794495 0
M  V30 13 C -0.492166 2.417024 3.100381 0
M  V30 14 C -0.185221 2.794390 4.367298 0
M  V30 15 C -0.137804 1.922960 5.439136 0
M  V30 16 C -0.428190 0.575357 5.170613 0
M  V30 17 C -0.394551 -0.343905 6.304135 0
M  V30 18 N 0.754446 -1.235497 6.340583 0
M  V30 19 C 0.617805 -2.009905 7.545589 0
M  V30 20 C 2.022244 -2.425861 7.887611 0
M  V30 21 C 2.779240 -1.122009 7.605525 0
M  V30 22 C 1.957851 -0.472722 6.545578 0
M  V30 23 C -0.730719 0.232496 3.888158 0
M  V30 24 F -0.994171 -1.093883 3.703165 0
M  V30 25 N -2.281333 0.313062 -1.586414 0
M  V30 26 C -1.874359 -0.279836 -2.738264 0
M  V30 27 C -2.572962 -0.986850 -3.795640 0
M  V30 28 C -2.814655 -0.503196 -5.078215 0
M  V30 29 C -3.478519 -1.264497 -6.033852 0
M  V30 30 C -3.884242 -2.518785 -5.644575 0
M  V30 31 N -4.517858 -3.549643 -6.190016 0
M  V30 32 C -4.683963 -4.565625 -5.412502 0
M  V30 33 N -4.110059 -4.194748 -4.231438 0
M  V30 34 N -3.631631 -2.931593 -4.414247 0
M  V30 35 C -2.996302 -2.273385 -3.414830 0
M  V30 36 N 1.510063 -1.405963 -3.491853 0
M  V30 37 H 3.378353 -3.598538 -4.788519 0
M  V30 38 H 3.638651 -2.902235 -3.088417 0
M  V30 39 H 4.570019 -2.291414 -4.447058 0
M  V30 40 H 3.219220 -1.059952 -6.253990 0
M  V30 41 H 1.553112 0.668877 -6.735614 0
M  V30 42 H -0.177915 1.099228 -5.122610 0
M  V30 43 H 0.825451 0.871442 -1.365294 0
M  V30 44 H -0.218033 2.166863 0.425523 0
M  V30 45 H -2.059045 2.191154 0.451659 0
M  V30 46 H -1.304269 -0.391955 1.385727 0
M  V30 47 H -0.524221 3.132446 2.280443 0
M  V30 48 H 0.026526 3.857634 4.509441 0
M  V30 49 H 0.119622 2.350390 6.386079 0
M  V30 50 H -1.356140 -0.903054 6.328886 0
M  V30 51 H -0.385031 0.223614 7.266644 0
M  V30 52 H 0.201804 -1.408858 8.383574 0
M  V30 53 H 0.039876 -2.940489 7.391138 0
M  V30 54 H 2.114180 -2.706792 8.957028 0
M  V30 55 H 2.371264 -3.259285 7.276740 0
M  V30 56 H 2.739257 -0.526933 8.540448 0
M  V30 57 H 3.800006 -1.361483 7.292955 0
M  V30 58 H 2.581157 -0.432261 5.623542 0
M  V30 59 H 1.700849 0.589461 6.779316 0
M  V30 60 H -2.474180 0.485514 -5.309329 0
M  V30 61 H -3.682387 -0.924921 -7.031024 0
M  V30 62 H -5.092502 -5.565334 -5.353593 0
M  V30 63 H -2.825103 -2.675466 -2.428070 0
M  V30 END ATOM
M  V30 BEGIN BOND
M  V30 1 1 1 2
M  V30 2 2 2 3
M  V30 3 1 3 4
M  V30 4 2 4 5
M  V30 5 1 5 6
M  V30 6 1 6 7
M  V30 7 1 7 8
M  V30 8 1 8 9
M  V30 9 1 9 10
M  V30 10 1 10 11
M  V30 11 1 11 12
M  V30 12 2 12 13
M  V30 13 1 13 14
M  V30 14 2 14 15
M  V30 15 1 15 16
M  V30 16 1 16 17
M  V30 17 1 17 18
M  V30 18 1 18 19
M  V30 19 1 19 20
M  V30 20 1 20 21
M  V30 21 1 21 22
M  V30 22 2 16 23
M  V30 23 1 23 24
M  V30 24 2 9 25
M  V30 25 1 25 26
M  V30 26 1 26 27
M  V30 27 1 27 28
M  V30 28 2 28 29
M  V30 29 1 29 30
M  V30 30 2 30 31
M  V30 31 1 31 32
M  V30 32 2 32 33
M  V30 33 1 33 34
M  V30 34 1 34 35
M  V30 35 2 6 36
M  V30 36 1 36 2
M  V30 37 2 26 7
M  V30 38 2 35 27
M  V30 39 1 23 12
M  V30 40 1 34 30
M  V30 41 1 22 18
M  V30 42 1 1 37
M  V30 43 1 1 38
M  V30 44 1 1 39
M  V30 45 1 3 40
M  V30 46 1 4 41
M  V30 47 1 5 42
M  V30 48 1 8 43
M  V30 49 1 10 44
M  V30 50 1 10 45
M  V30 51 1 11 46
M  V30 52 1 13 47
M  V30 53 1 14 48
M  V30 54 1 15 49
M  V30 55 1 17 50
M  V30 56 1 17 51
M  V30 57 1 19 52
M  V30 58 1 19 53
M  V30 59 1 20 54
M  V30 60 1 20 55
M  V30 61 1 21 56
M  V30 62 1 21 57
M  V30 63 1 22 58
M  V30 64 1 22 59
M  V30 65 1 28 60
M  V30 66 1 29 61
M  V30 67 1 32 62
M  V30 68 1 35 63
M  V30 END BOND
M  V30 END CTAB
M  END
>  <Dataset>  (799) 
ChEMBL_Kinases

>  <Ligand_Instance>  (799) 
nan

>  <PDB_ID>  (799) 
nan

>  <Standardized_SMILES>  (799) 
Cc1cccc(-c2[nH]c(CNc3cccc(CN4CCCC4)c3F)nc2-c2ccc3ncnn3c2)n1

>  <Name>  (799) 
nan

>  <Pocket>  (799) 
nan

>  <ATP_Site>  (799) 
nan

>  <Peripheral>  (799) 
nan

>  <Num_H_Atoms_ProtBoundConf>  (799) 
nan

>  <Num_Resolved_Atoms>  (799) 
nan

>  <Num_Not_Resolved_Atoms>  (799) 
nan

$$$$
CHEMBL3260631
     RDKit          3D

  0  0  0  0  0  0  0  0  0  0999 V3000
M  V30 BEGIN CTAB
M  V30 COUNTS 64 69 0 0 0
M  V30 BEGIN ATOM
M  V30 1 C 4.185247 -2.407118 3.675950 0
M  V30 2 C 4.417881 -2.292357 2.205100 0
M  V30 3 C 5.573949 -2.735114 1.580975 0
M  V30 4 C 5.634606 -2.556478 0.214749 0
M  V30 5 C 4.580395 -1.963406 -0.466728 0
M  V30 6 C 3.440974 -1.535698 0.206573 0
M  V30 7 C 2.396003 -0.927128 -0.604993 0
M  V30 8 N 1.616794 -1.343105 -1.617125 0
M  V30 9 C 0.776838 -0.346756 -2.031191 0
M  V30 10 C -0.139146 -0.702962 -3.169659 0
M  V30 11 N -1.379675 -1.288909 -2.726387 0
M  V30 12 C -2.414425 -0.696930 -1.977385 0
M  V30 13 C -2.443992 0.602632 -1.527176 0
M  V30 14 C -3.470800 1.164275 -0.802129 0
M  V30 15 C -4.538054 0.337866 -0.520391 0
M  V30 16 C -4.598540 -0.999596 -0.936302 0
M  V30 17 C -5.801703 -1.704770 -0.519478 0
M  V30 18 N -5.730814 -2.541185 0.616326 0
M  V30 19 C -4.878266 -3.672306 0.593327 0
M  V30 20 C -3.492283 -3.404495 1.122227 0
M  V30 21 O -3.310635 -2.101032 1.522746 0
M  V30 22 C -4.291504 -1.647369 2.391160 0
M  V30 23 C -5.696285 -1.826987 1.874862 0
M  V30 24 C -3.520436 -1.447657 -1.650666 0
M  V30 25 F -3.575254 -2.729228 -2.074511 0
M  V30 26 N 1.039769 0.716922 -1.257111 0
M  V30 27 C 2.010861 0.378890 -0.397115 0
M  V30 28 C 2.434371 1.438039 0.542853 0
M  V30 29 C 2.309776 1.374238 1.914725 0
M  V30 30 C 2.746415 2.437192 2.689303 0
M  V30 31 C 3.300562 3.543810 2.060058 0
M  V30 32 N 3.785902 4.681816 2.632857 0
M  V30 33 C 4.213157 5.454243 1.608390 0
M  V30 34 N 3.991579 4.799597 0.447350 0
M  V30 35 N 3.430501 3.622267 0.707122 0
M  V30 36 C 2.989912 2.557101 -0.024628 0
M  V30 37 N 3.401168 -1.718957 1.539076 0
M  V30 38 H 3.140511 -2.709684 3.857274 0
M  V30 39 H 4.905077 -3.046852 4.190471 0
M  V30 40 H 4.266463 -1.362743 4.081799 0
M  V30 41 H 6.313903 -3.177475 2.233291 0
M  V30 42 H 6.544117 -2.907166 -0.262336 0
M  V30 43 H 4.671948 -1.845213 -1.528143 0
M  V30 44 H 1.753141 -2.343949 -1.942966 0
M  V30 45 H -0.410559 0.289212 -3.612015 0
M  V30 46 H 0.396939 -1.282203 -3.919143 0
M  V30 47 H -1.473103 -2.289826 -3.027503 0
M  V30 48 H -1.610576 1.249125 -1.755000 0
M  V30 49 H -3.453333 2.195880 -0.466230 0
M  V30 50 H -5.341425 0.808425 0.057267 0
M  V30 51 H -6.158360 -2.343036 -1.392741 0
M  V30 52 H -6.672848 -0.995169 -0.379689 0
M  V30 53 H -4.900289 -4.230672 -0.358868 0
M  V30 54 H -5.323815 -4.406654 1.347261 0
M  V30 55 H -2.770454 -3.625023 0.313788 0
M  V30 56 H -3.193750 -4.074773 1.960519 0
M  V30 57 H -4.134514 -0.556739 2.539801 0
M  V30 58 H -4.158536 -2.113115 3.400746 0
M  V30 59 H -6.250142 -2.435344 2.617402 0
M  V30 60 H -6.225875 -0.877174 1.749136 0
M  V30 61 H 1.873372 0.491486 2.326550 0
M  V30 62 H 2.648852 2.387753 3.771246 0
M  V30 63 H 4.666176 6.432894 1.576833 0
M  V30 64 H 3.112696 2.663313 -1.087790 0
M  V30 END ATOM
M  V30 BEGIN BOND
M  V30 1 1 1 2
M  V30 2 2 2 3
M  V30 3 1 3 4
M  V30 4 2 4 5
M  V30 5 1 5 6
M  V30 6 1 6 7
M  V30 7 1 7 8
M  V30 8 1 8 9
M  V30 9 1 9 10
M  V30 10 1 10 11
M  V30 11 1 11 12
M  V30 12 2 12 13
M  V30 13 1 13 14
M  V30 14 2 14 15
M  V30 15 1 15 16
M  V30 16 1 16 17
M  V30 17 1 17 18
M  V30 18 1 18 19
M  V30 19 1 19 20
M  V30 20 1 20 21
M  V30 21 1 21 22
M  V30 22 1 22 23
M  V30 23 2 16 24
M  V30 24 1 24 25
M  V30 25 2 9 26
M  V30 26 1 26 27
M  V30 27 1 27 28
M  V30 28 1 28 29
M  V30 29 2 29 30
M  V30 30 1 30 31
M  V30 31 2 31 32
M  V30 32 1 32 33
M  V30 33 2 33 34
M  V30 34 1 34 35
M  V30 35 1 35 36
M  V30 36 2 6 37
M  V30 37 1 37 2
M  V30 38 2 27 7
M  V30 39 2 36 28
M  V30 40 1 24 12
M  V30 41 1 35 31
M  V30 42 1 23 18
M  V30 43 1 1 38
M  V30 44 1 1 39
M  V30 45 1 1 40
M  V30 46 1 3 41
M  V30 47 1 4 42
M  V30 48 1 5 43
M  V30 49 1 8 44
M  V30 50 1 10 45
M  V30 51 1 10 46
M  V30 52 1 11 47
M  V30 53 1 13 48
M  V30 54 1 14 49
M  V30 55 1 15 50
M  V30 56 1 17 51
M  V30 57 1 17 52
M  V30 58 1 19 53
M  V30 59 1 19 54
M  V30 60 1 20 55
M  V30 61 1 20 56
M  V30 62 1 22 57
M  V30 63 1 22 58
M  V30 64 1 23 59
M  V30 65 1 23 60
M  V30 66 1 29 61
M  V30 67 1 30 62
M  V30 68 1 33 63
M  V30 69 1 36 64
M  V30 END BOND
M  V30 END CTAB
M  END
>  <Dataset>  (800) 
ChEMBL_Kinases

>  <Ligand_Instance>  (800) 
nan

>  <PDB_ID>  (800) 
nan

>  <Standardized_SMILES>  (800) 
Cc1cccc(-c2[nH]c(CNc3cccc(CN4CCOCC4)c3F)nc2-c2ccc3ncnn3c2)n1

>  <Name>  (800) 
nan

>  <Pocket>  (800) 
nan

>  <ATP_Site>  (800) 
nan

>  <Peripheral>  (800) 
nan

>  <Num_H_Atoms_ProtBoundConf>  (800) 
nan

>  <Num_Resolved_Atoms>  (800) 
nan

>  <Num_Not_Resolved_Atoms>  (800) 
nan

$$$$
CHEMBL3260907
     RDKit          3D

  0  0  0  0  0  0  0  0  0  0999 V3000
M  V30 BEGIN CTAB
M  V30 COUNTS 65 70 0 0 0
M  V30 BEGIN ATOM
M  V30 1 C 4.560664 -2.476041 2.671639 0
M  V30 2 C 4.375272 -2.097932 1.234659 0
M  V30 3 C 5.320763 -2.402164 0.259584 0
M  V30 4 C 5.106660 -2.034655 -1.042994 0
M  V30 5 C 3.923941 -1.356124 -1.343180 0
M  V30 6 C 2.972970 -1.047851 -0.374256 0
M  V30 7 C 1.760437 -0.339252 -0.741907 0
M  V30 8 N 0.703587 -0.543422 -1.543180 0
M  V30 9 C -0.168618 0.507344 -1.492460 0
M  V30 10 C -1.380632 0.386841 -2.353307 0
M  V30 11 N -2.469456 -0.275151 -1.669296 0
M  V30 12 C -3.223548 0.127511 -0.538147 0
M  V30 13 C -2.999359 1.327261 0.102872 0
M  V30 14 C -3.695273 1.784442 1.198515 0
M  V30 15 C -3.439472 3.038806 1.845518 0
M  V30 16 N -3.219686 4.049017 2.365425 0
M  V30 17 C -4.703039 0.997742 1.715410 0
M  V30 18 C -4.949358 -0.200435 1.099097 0
M  V30 19 C -4.250971 -0.654149 0.003611 0
M  V30 20 C -4.553494 -1.957442 -0.631533 0
M  V30 21 N -3.606738 -2.991991 -0.328279 0
M  V30 22 C -3.993086 -4.239323 -1.006144 0
M  V30 23 C -3.224014 -5.405142 -0.458473 0
M  V30 24 O -3.357834 -5.548264 0.911515 0
M  V30 25 C -2.792107 -4.383226 1.472399 0
M  V30 26 C -3.704283 -3.247384 1.115548 0
M  V30 27 N 0.394891 1.351736 -0.635738 0
M  V30 28 C 1.559602 0.879111 -0.160008 0
M  V30 29 C 2.203319 1.787409 0.787807 0
M  V30 30 C 2.430710 1.484526 2.124185 0
M  V30 31 C 3.043399 2.379045 2.977083 0
M  V30 32 C 3.429736 3.600784 2.458144 0
M  V30 33 N 4.043787 4.654931 3.060572 0
M  V30 34 C 4.204892 5.620907 2.110725 0
M  V30 35 N 3.683755 5.131634 0.948130 0
M  V30 36 N 3.213755 3.903006 1.164903 0
M  V30 37 C 2.615718 3.030448 0.331631 0
M  V30 38 N 3.263347 -1.443785 0.869780 0
M  V30 39 H 3.968113 -1.765394 3.290271 0
M  V30 40 H 5.634045 -2.286572 2.962555 0
M  V30 41 H 4.278035 -3.522994 2.866696 0
M  V30 42 H 6.207021 -2.937522 0.623239 0
M  V30 43 H 5.852177 -2.282720 -1.770275 0
M  V30 44 H 3.770334 -1.071316 -2.386586 0
M  V30 45 H 0.697717 -1.453222 -2.078270 0
M  V30 46 H -1.783172 1.426013 -2.579101 0
M  V30 47 H -1.175681 -0.099854 -3.314967 0
M  V30 48 H -2.761060 -1.213093 -2.065138 0
M  V30 49 H -2.241052 2.023635 -0.220594 0
M  V30 50 H -5.293904 1.284575 2.570844 0
M  V30 51 H -5.735007 -0.859113 1.467999 0
M  V30 52 H -4.658716 -1.885798 -1.744937 0
M  V30 53 H -5.597241 -2.231295 -0.297160 0
M  V30 54 H -5.087963 -4.422433 -0.906497 0
M  V30 55 H -3.782248 -4.137163 -2.076147 0
M  V30 56 H -3.545653 -6.309070 -0.987376 0
M  V30 57 H -2.145395 -5.262195 -0.667021 0
M  V30 58 H -2.667178 -4.450469 2.562815 0
M  V30 59 H -1.801897 -4.185470 0.967442 0
M  V30 60 H -3.537367 -2.319139 1.662625 0
M  V30 61 H -4.761661 -3.583630 1.290598 0
M  V30 62 H 2.118092 0.530696 2.488900 0
M  V30 63 H 3.215388 2.126744 4.026031 0
M  V30 64 H 4.635018 6.611037 2.127276 0
M  V30 65 H 2.437956 3.269183 -0.718277 0
M  V30 END ATOM
M  V30 BEGIN BOND
M  V30 1 1 1 2
M  V30 2 2 2 3
M  V30 3 1 3 4
M  V30 4 2 4 5
M  V30 5 1 5 6
M  V30 6 1 6 7
M  V30 7 1 7 8
M  V30 8 1 8 9
M  V30 9 1 9 10
M  V30 10 1 10 11
M  V30 11 1 11 12
M  V30 12 2 12 13
M  V30 13 1 13 14
M  V30 14 1 14 15
M  V30 15 3 15 16
M  V30 16 2 14 17
M  V30 17 1 17 18
M  V30 18 2 18 19
M  V30 19 1 19 20
M  V30 20 1 20 21
M  V30 21 1 21 22
M  V30 22 1 22 23
M  V30 23 1 23 24
M  V30 24 1 24 25
M  V30 25 1 25 26
M  V30 26 2 9 27
M  V30 27 1 27 28
M  V30 28 1 28 29
M  V30 29 1 29 30
M  V30 30 2 30 31
M  V30 31 1 31 32
M  V30 32 2 32 33
M  V30 33 1 33 34
M  V30 34 2 34 35
M  V30 35 1 35 36
M  V30 36 1 36 37
M  V30 37 2 6 38
M  V30 38 1 38 2
M  V30 39 2 28 7
M  V30 40 2 37 29
M  V30 41 1 19 12
M  V30 42 1 26 21
M  V30 43 1 36 32
M  V30 44 1 1 39
M  V30 45 1 1 40
M  V30 46 1 1 41
M  V30 47 1 3 42
M  V30 48 1 4 43
M  V30 49 1 5 44
M  V30 50 1 8 45
M  V30 51 1 10 46
M  V30 52 1 10 47
M  V30 53 1 11 48
M  V30 54 1 13 49
M  V30 55 1 17 50
M  V30 56 1 18 51
M  V30 57 1 20 52
M  V30 58 1 20 53
M  V30 59 1 22 54
M  V30 60 1 22 55
M  V30 61 1 23 56
M  V30 62 1 23 57
M  V30 63 1 25 58
M  V30 64 1 25 59
M  V30 65 1 26 60
M  V30 66 1 26 61
M  V30 67 1 30 62
M  V30 68 1 31 63
M  V30 69 1 34 64
M  V30 70 1 37 65
M  V30 END BOND
M  V30 END CTAB
M  END
>  <Dataset>  (801) 
ChEMBL_Kinases

>  <Ligand_Instance>  (801) 
nan

>  <PDB_ID>  (801) 
nan

>  <Standardized_SMILES>  (801) 
Cc1cccc(-c2[nH]c(CNc3cc(C#N)ccc3CN3CCOCC3)nc2-c2ccc3ncnn3c2)n1

>  <Name>  (801) 
nan

>  <Pocket>  (801) 
nan

>  <ATP_Site>  (801) 
nan

>  <Peripheral>  (801) 
nan

>  <Num_H_Atoms_ProtBoundConf>  (801) 
nan

>  <Num_Resolved_Atoms>  (801) 
nan

>  <Num_Not_Resolved_Atoms>  (801) 
nan

$$$$
CHEMBL3260898
     RDKit          3D

  0  0  0  0  0  0  0  0  0  0999 V3000
M  V30 BEGIN CTAB
M  V30 COUNTS 64 69 0 0 0
M  V30 BEGIN ATOM
M  V30 1 C 3.464407 -1.316141 4.559487 0
M  V30 2 C 3.780596 -1.259853 3.091085 0
M  V30 3 C 4.985422 -1.678480 2.570400 0
M  V30 4 C 5.191922 -1.588940 1.193070 0
M  V30 5 C 4.149899 -1.076994 0.446097 0
M  V30 6 C 2.963247 -0.672827 1.024088 0
M  V30 7 C 1.964089 -0.156729 0.106518 0
M  V30 8 N 1.335535 -0.734227 -0.930024 0
M  V30 9 C 0.455743 0.120372 -1.533552 0
M  V30 10 C -0.287801 -0.433249 -2.704922 0
M  V30 11 N -1.514875 -1.104055 -2.330202 0
M  V30 12 C -2.690965 -0.614993 -1.740386 0
M  V30 13 C -2.836057 0.719135 -1.424246 0
M  V30 14 C -3.959684 1.266372 -0.851423 0
M  V30 15 C -5.030686 0.450453 -0.562041 0
M  V30 16 C -4.904223 -0.887146 -0.871386 0
M  V30 17 C -5.991417 -1.781156 -0.590289 0
M  V30 18 N -6.875179 -2.520051 -0.372121 0
M  V30 19 C -3.781988 -1.441477 -1.444891 0
M  V30 20 C -3.716987 -2.899137 -1.753928 0
M  V30 21 N -2.901832 -3.639018 -0.820346 0
M  V30 22 C -2.883622 -5.047062 -1.183905 0
M  V30 23 C -2.390469 -5.685834 0.108079 0
M  V30 24 C -2.631802 -4.675494 1.200039 0
M  V30 25 C -3.545343 -3.683872 0.479504 0
M  V30 26 N 0.569042 1.252122 -0.823209 0
M  V30 27 C 1.464121 1.124499 0.168676 0
M  V30 28 C 1.759899 2.226260 1.079885 0
M  V30 29 C 1.553445 2.316706 2.442045 0
M  V30 30 C 1.919756 3.472334 3.101367 0
M  V30 31 C 2.481189 4.503765 2.382960 0
M  V30 32 N 2.885691 5.683805 2.887808 0
M  V30 33 C 3.366076 6.374543 1.825554 0
M  V30 34 N 3.239348 5.602015 0.725305 0
M  V30 35 N 2.693279 4.441710 1.055639 0
M  V30 36 C 2.332216 3.300507 0.400538 0
M  V30 37 N 2.772360 -0.762535 2.353140 0
M  V30 38 H 2.592899 -1.965578 4.665698 0
M  V30 39 H 4.360327 -1.602762 5.107274 0
M  V30 40 H 3.132324 -0.279465 4.836164 0
M  V30 41 H 5.677189 -2.049659 3.316976 0
M  V30 42 H 6.144665 -1.928160 0.846288 0
M  V30 43 H 4.356725 -1.026048 -0.625048 0
M  V30 44 H 1.600313 -1.745115 -1.132518 0
M  V30 45 H -0.620305 0.425038 -3.373595 0
M  V30 46 H 0.346890 -1.063349 -3.334490 0
M  V30 47 H -1.519424 -2.143945 -2.538474 0
M  V30 48 H -2.070696 1.459353 -1.606856 0
M  V30 49 H -4.075698 2.312154 -0.602385 0
M  V30 50 H -5.956703 0.781135 -0.113157 0
M  V30 51 H -4.765770 -3.281775 -1.787388 0
M  V30 52 H -3.315433 -3.064913 -2.773430 0
M  V30 53 H -3.896408 -5.426449 -1.441045 0
M  V30 54 H -2.144482 -5.195510 -2.013552 0
M  V30 55 H -1.319171 -5.946093 0.033193 0
M  V30 56 H -2.979731 -6.608961 0.322878 0
M  V30 57 H -3.114317 -5.116654 2.092342 0
M  V30 58 H -1.686329 -4.149925 1.417857 0
M  V30 59 H -4.556839 -4.106527 0.446338 0
M  V30 60 H -3.542554 -2.695042 0.990888 0
M  V30 61 H 1.105230 1.426602 2.858147 0
M  V30 62 H 1.730036 3.475756 4.166942 0
M  V30 63 H 3.794624 7.375940 1.779852 0
M  V30 64 H 2.548755 3.359243 -0.669596 0
M  V30 END ATOM
M  V30 BEGIN BOND
M  V30 1 1 1 2
M  V30 2 2 2 3
M  V30 3 1 3 4
M  V30 4 2 4 5
M  V30 5 1 5 6
M  V30 6 1 6 7
M  V30 7 1 7 8
M  V30 8 1 8 9
M  V30 9 1 9 10
M  V30 10 1 10 11
M  V30 11 1 11 12
M  V30 12 2 12 13
M  V30 13 1 13 14
M  V30 14 2 14 15
M  V30 15 1 15 16
M  V30 16 1 16 17
M  V30 17 3 17 18
M  V30 18 2 16 19
M  V30 19 1 19 20
M  V30 20 1 20 21
M  V30 21 1 21 22
M  V30 22 1 22 23
M  V30 23 1 23 24
M  V30 24 1 24 25
M  V30 25 2 9 26
M  V30 26 1 26 27
M  V30 27 1 27 28
M  V30 28 1 28 29
M  V30 29 2 29 30
M  V30 30 1 30 31
M  V30 31 2 31 32
M  V30 32 1 32 33
M  V30 33 2 33 34
M  V30 34 1 34 35
M  V30 35 1 35 36
M  V30 36 2 6 37
M  V30 37 1 37 2
M  V30 38 2 27 7
M  V30 39 2 36 28
M  V30 40 1 19 12
M  V30 41 1 25 21
M  V30 42 1 35 31
M  V30 43 1 1 38
M  V30 44 1 1 39
M  V30 45 1 1 40
M  V30 46 1 3 41
M  V30 47 1 4 42
M  V30 48 1 5 43
M  V30 49 1 8 44
M  V30 50 1 10 45
M  V30 51 1 10 46
M  V30 52 1 11 47
M  V30 53 1 13 48
M  V30 54 1 14 49
M  V30 55 1 15 50
M  V30 56 1 20 51
M  V30 57 1 20 52
M  V30 58 1 22 53
M  V30 59 1 22 54
M  V30 60 1 23 55
M  V30 61 1 23 56
M  V30 62 1 24 57
M  V30 63 1 24 58
M  V30 64 1 25 59
M  V30 65 1 25 60
M  V30 66 1 29 61
M  V30 67 1 30 62
M  V30 68 1 33 63
M  V30 69 1 36 64
M  V30 END BOND
M  V30 END CTAB
M  END
>  <Dataset>  (802) 
ChEMBL_Kinases

>  <Ligand_Instance>  (802) 
nan

>  <PDB_ID>  (802) 
nan

>  <Standardized_SMILES>  (802) 
Cc1cccc(-c2[nH]c(CNc3cccc(C#N)c3CN3CCCC3)nc2-c2ccc3ncnn3c2)n1

>  <Name>  (802) 
nan

>  <Pocket>  (802) 
nan

>  <ATP_Site>  (802) 
nan

>  <Peripheral>  (802) 
nan

>  <Num_H_Atoms_ProtBoundConf>  (802) 
nan

>  <Num_Resolved_Atoms>  (802) 
nan

>  <Num_Not_Resolved_Atoms>  (802) 
nan

$$$$
CHEMBL3260899
     RDKit          3D

  0  0  0  0  0  0  0  0  0  0999 V3000
M  V30 BEGIN CTAB
M  V30 COUNTS 65 70 0 0 0
M  V30 BEGIN ATOM
M  V30 1 C 2.566532 -1.619129 4.724383 0
M  V30 2 C 3.120877 -0.926829 3.513275 0
M  V30 3 C 4.385565 -0.368898 3.543292 0
M  V30 4 C 4.918409 0.279155 2.429281 0
M  V30 5 C 4.149492 0.359669 1.265430 0
M  V30 6 C 2.886532 -0.209336 1.267125 0
M  V30 7 C 1.977382 -0.197682 0.131298 0
M  V30 8 N 1.376539 -1.069162 -0.696586 0
M  V30 9 C 0.596096 -0.419254 -1.611001 0
M  V30 10 C -0.119657 -1.310959 -2.590384 0
M  V30 11 N -1.406426 -1.744667 -2.092600 0
M  V30 12 C -2.562857 -1.005246 -1.786446 0
M  V30 13 C -2.631165 0.351516 -2.002263 0
M  V30 14 C -3.771204 1.089083 -1.759982 0
M  V30 15 C -4.899768 0.452481 -1.280729 0
M  V30 16 C -4.796980 -0.906892 -1.074864 0
M  V30 17 C -6.004806 -1.542079 -0.569603 0
M  V30 18 N -6.974852 -2.047312 -0.171769 0
M  V30 19 C -3.674425 -1.700640 -1.300574 0
M  V30 20 C -3.771183 -3.129571 -0.961022 0
M  V30 21 N -3.363890 -3.530412 0.323375 0
M  V30 22 C -2.066047 -3.322776 0.808141 0
M  V30 23 C -1.110496 -4.464350 0.519744 0
M  V30 24 O -1.786797 -5.686712 0.498710 0
M  V30 25 C -2.890460 -5.643226 1.350006 0
M  V30 26 C -3.979338 -4.765012 0.775598 0
M  V30 27 N 0.732717 0.872838 -1.324148 0
M  V30 28 C 1.558785 1.051362 -0.278078 0
M  V30 29 C 1.842674 2.424775 0.197752 0
M  V30 30 C 1.473777 2.763418 1.484070 0
M  V30 31 C 1.736752 4.049045 1.936931 0
M  V30 32 C 2.364357 4.910719 1.037971 0
M  V30 33 N 2.723669 6.191040 1.231349 0
M  V30 34 C 3.302697 6.647400 0.099617 0
M  V30 35 N 3.291094 5.626331 -0.786497 0
M  V30 36 N 2.719191 4.567052 -0.215526 0
M  V30 37 C 2.465850 3.309433 -0.668521 0
M  V30 38 N 2.408379 -0.831120 2.376695 0
M  V30 39 H 1.533995 -1.275517 4.929308 0
M  V30 40 H 3.201233 -1.318482 5.604404 0
M  V30 41 H 2.569763 -2.706122 4.613820 0
M  V30 42 H 4.990549 -0.423298 4.437856 0
M  V30 43 H 5.909142 0.731719 2.412420 0
M  V30 44 H 4.486168 0.841065 0.363146 0
M  V30 45 H 1.592174 -2.087642 -0.519302 0
M  V30 46 H -0.359127 -0.646592 -3.468518 0
M  V30 47 H 0.532071 -2.101102 -2.949550 0
M  V30 48 H -1.421292 -2.796353 -1.962900 0
M  V30 49 H -1.818042 0.923523 -2.373023 0
M  V30 50 H -3.847319 2.156194 -1.922151 0
M  V30 51 H -5.803526 0.996875 -1.082471 0
M  V30 52 H -3.261748 -3.738045 -1.783471 0
M  V30 53 H -4.860466 -3.420222 -1.110969 0
M  V30 54 H -2.124573 -3.268656 1.943495 0
M  V30 55 H -1.610131 -2.390300 0.497294 0
M  V30 56 H -0.531531 -4.334506 -0.409867 0
M  V30 57 H -0.387744 -4.512600 1.358704 0
M  V30 58 H -2.628888 -5.285814 2.359928 0
M  V30 59 H -3.285046 -6.677379 1.434254 0
M  V30 60 H -4.713544 -4.587536 1.599329 0
M  V30 61 H -4.526682 -5.269294 -0.060898 0
M  V30 62 H 0.987982 2.020803 2.112593 0
M  V30 63 H 1.464246 4.353744 2.937316 0
M  V30 64 H 3.696458 7.661507 -0.039967 0
M  V30 65 H 2.747800 3.042174 -1.659438 0
M  V30 END ATOM
M  V30 BEGIN BOND
M  V30 1 1 1 2
M  V30 2 2 2 3
M  V30 3 1 3 4
M  V30 4 2 4 5
M  V30 5 1 5 6
M  V30 6 1 6 7
M  V30 7 1 7 8
M  V30 8 1 8 9
M  V30 9 1 9 10
M  V30 10 1 10 11
M  V30 11 1 11 12
M  V30 12 2 12 13
M  V30 13 1 13 14
M  V30 14 2 14 15
M  V30 15 1 15 16
M  V30 16 1 16 17
M  V30 17 3 17 18
M  V30 18 2 16 19
M  V30 19 1 19 20
M  V30 20 1 20 21
M  V30 21 1 21 22
M  V30 22 1 22 23
M  V30 23 1 23 24
M  V30 24 1 24 25
M  V30 25 1 25 26
M  V30 26 2 9 27
M  V30 27 1 27 28
M  V30 28 1 28 29
M  V30 29 1 29 30
M  V30 30 2 30 31
M  V30 31 1 31 32
M  V30 32 2 32 33
M  V30 33 1 33 34
M  V30 34 2 34 35
M  V30 35 1 35 36
M  V30 36 1 36 37
M  V30 37 2 6 38
M  V30 38 1 38 2
M  V30 39 2 28 7
M  V30 40 2 37 29
M  V30 41 1 19 12
M  V30 42 1 26 21
M  V30 43 1 36 32
M  V30 44 1 1 39
M  V30 45 1 1 40
M  V30 46 1 1 41
M  V30 47 1 3 42
M  V30 48 1 4 43
M  V30 49 1 5 44
M  V30 50 1 8 45
M  V30 51 1 10 46
M  V30 52 1 10 47
M  V30 53 1 11 48
M  V30 54 1 13 49
M  V30 55 1 14 50
M  V30 56 1 15 51
M  V30 57 1 20 52
M  V30 58 1 20 53
M  V30 59 1 22 54
M  V30 60 1 22 55
M  V30 61 1 23 56
M  V30 62 1 23 57
M  V30 63 1 25 58
M  V30 64 1 25 59
M  V30 65 1 26 60
M  V30 66 1 26 61
M  V30 67 1 30 62
M  V30 68 1 31 63
M  V30 69 1 34 64
M  V30 70 1 37 65
M  V30 END BOND
M  V30 END CTAB
M  END
>  <Dataset>  (803) 
ChEMBL_Kinases

>  <Ligand_Instance>  (803) 
nan

>  <PDB_ID>  (803) 
nan

>  <Standardized_SMILES>  (803) 
Cc1cccc(-c2[nH]c(CNc3cccc(C#N)c3CN3CCOCC3)nc2-c2ccc3ncnn3c2)n1

>  <Name>  (803) 
nan

>  <Pocket>  (803) 
nan

>  <ATP_Site>  (803) 
nan

>  <Peripheral>  (803) 
nan

>  <Num_H_Atoms_ProtBoundConf>  (803) 
nan

>  <Num_Resolved_Atoms>  (803) 
nan

>  <Num_Not_Resolved_Atoms>  (803) 
nan

$$$$
CHEMBL3260900
     RDKit          3D

  0  0  0  0  0  0  0  0  0  0999 V3000
M  V30 BEGIN CTAB
M  V30 COUNTS 57 61 0 0 0
M  V30 BEGIN ATOM
M  V30 1 C 3.928017 -5.226012 2.866927 0
M  V30 2 C 2.956199 -4.099407 2.916975 0
M  V30 3 C 2.313765 -3.683118 4.076710 0
M  V30 4 C 1.432263 -2.613139 3.956026 0
M  V30 5 C 1.222972 -2.013830 2.742210 0
M  V30 6 C 1.872497 -2.441503 1.593075 0
M  V30 7 C 1.608960 -1.768795 0.344848 0
M  V30 8 N 1.887423 -0.459401 0.225160 0
M  V30 9 C 1.575834 -0.012413 -1.000388 0
M  V30 10 C 1.590169 1.239399 -1.802775 0
M  V30 11 N 0.287361 1.857777 -1.710791 0
M  V30 12 C -0.396320 2.446556 -0.623019 0
M  V30 13 C 0.100078 2.580198 0.651162 0
M  V30 14 C -0.561123 3.142154 1.717337 0
M  V30 15 C 0.034105 3.241392 3.018981 0
M  V30 16 N 0.520791 3.313428 4.067870 0
M  V30 17 C -1.826493 3.610210 1.488084 0
M  V30 18 C -2.378944 3.504485 0.229363 0
M  V30 19 N -3.700208 3.988022 -0.029278 0
M  V30 20 C -4.336667 3.907177 -1.324829 0
M  V30 21 C -4.447864 4.597749 1.077664 0
M  V30 22 C -1.668864 2.931675 -0.800479 0
M  V30 23 N 1.092757 -1.102121 -1.634654 0
M  V30 24 C 1.100065 -2.188709 -0.840566 0
M  V30 25 C 0.678049 -3.554495 -1.099439 0
M  V30 26 C 1.539954 -4.637720 -1.067554 0
M  V30 27 C 1.011475 -5.885869 -1.332067 0
M  V30 28 C -0.332963 -6.022415 -1.615759 0
M  V30 29 N -0.963987 -7.179573 -1.888919 0
M  V30 30 C -2.256556 -6.807682 -2.097203 0
M  V30 31 N -2.366481 -5.474972 -1.948261 0
M  V30 32 N -1.180569 -4.977888 -1.649791 0
M  V30 33 C -0.677769 -3.737222 -1.391318 0
M  V30 34 N 2.710534 -3.477693 1.773027 0
M  V30 35 H 4.933727 -4.756630 2.943825 0
M  V30 36 H 3.802855 -5.903894 3.713089 0
M  V30 37 H 3.837756 -5.741917 1.881438 0
M  V30 38 H 2.538697 -4.214545 4.994271 0
M  V30 39 H 0.940616 -2.301707 4.868375 0
M  V30 40 H 0.518796 -1.178887 2.713837 0
M  V30 41 H 2.291818 0.224885 0.897684 0
M  V30 42 H 2.373783 1.907803 -1.324822 0
M  V30 43 H 1.890138 1.072173 -2.841925 0
M  V30 44 H -0.232429 1.856754 -2.643133 0
M  V30 45 H 1.092372 2.230205 0.860382 0
M  V30 46 H -2.424425 4.062554 2.243703 0
M  V30 47 H -4.012589 4.785860 -1.920472 0
M  V30 48 H -4.184912 2.934783 -1.836041 0
M  V30 49 H -5.432404 4.009888 -1.198680 0
M  V30 50 H -4.461636 3.806883 1.876502 0
M  V30 51 H -5.466695 4.840204 0.773728 0
M  V30 52 H -3.865852 5.436577 1.492159 0
M  V30 53 H -2.150443 2.873880 -1.770669 0
M  V30 54 H 2.585280 -4.476548 -0.839957 0
M  V30 55 H 1.703397 -6.717477 -1.301630 0
M  V30 56 H -3.181371 -7.323970 -2.346485 0
M  V30 57 H -1.402924 -2.936871 -1.432419 0
M  V30 END ATOM
M  V30 BEGIN BOND
M  V30 1 1 1 2
M  V30 2 2 2 3
M  V30 3 1 3 4
M  V30 4 2 4 5
M  V30 5 1 5 6
M  V30 6 1 6 7
M  V30 7 1 7 8
M  V30 8 1 8 9
M  V30 9 1 9 10
M  V30 10 1 10 11
M  V30 11 1 11 12
M  V30 12 2 12 13
M  V30 13 1 13 14
M  V30 14 1 14 15
M  V30 15 3 15 16
M  V30 16 2 14 17
M  V30 17 1 17 18
M  V30 18 1 18 19
M  V30 19 1 19 20
M  V30 20 1 19 21
M  V30 21 2 18 22
M  V30 22 2 9 23
M  V30 23 1 23 24
M  V30 24 1 24 25
M  V30 25 1 25 26
M  V30 26 2 26 27
M  V30 27 1 27 28
M  V30 28 2 28 29
M  V30 29 1 29 30
M  V30 30 2 30 31
M  V30 31 1 31 32
M  V30 32 1 32 33
M  V30 33 2 6 34
M  V30 34 1 34 2
M  V30 35 2 24 7
M  V30 36 2 33 25
M  V30 37 1 22 12
M  V30 38 1 32 28
M  V30 39 1 1 35
M  V30 40 1 1 36
M  V30 41 1 1 37
M  V30 42 1 3 38
M  V30 43 1 4 39
M  V30 44 1 5 40
M  V30 45 1 8 41
M  V30 46 1 10 42
M  V30 47 1 10 43
M  V30 48 1 11 44
M  V30 49 1 13 45
M  V30 50 1 17 46
M  V30 51 1 20 47
M  V30 52 1 20 48
M  V30 53 1 20 49
M  V30 54 1 21 50
M  V30 55 1 21 51
M  V30 56 1 21 52
M  V30 57 1 22 53
M  V30 58 1 26 54
M  V30 59 1 27 55
M  V30 60 1 30 56
M  V30 61 1 33 57
M  V30 END BOND
M  V30 END CTAB
M  END
>  <Dataset>  (804) 
ChEMBL_Kinases

>  <Ligand_Instance>  (804) 
nan

>  <PDB_ID>  (804) 
nan

>  <Standardized_SMILES>  (804) 
Cc1cccc(-c2[nH]c(CNc3cc(C#N)cc(N(C)C)c3)nc2-c2ccc3ncnn3c2)n1

>  <Name>  (804) 
nan

>  <Pocket>  (804) 
nan

>  <ATP_Site>  (804) 
nan

>  <Peripheral>  (804) 
nan

>  <Num_H_Atoms_ProtBoundConf>  (804) 
nan

>  <Num_Resolved_Atoms>  (804) 
nan

>  <Num_Not_Resolved_Atoms>  (804) 
nan

$$$$
CHEMBL3260901
     RDKit          3D

  0  0  0  0  0  0  0  0  0  0999 V3000
M  V30 BEGIN CTAB
M  V30 COUNTS 60 64 0 0 0
M  V30 BEGIN ATOM
M  V30 1 C -3.325645 -0.164810 5.267669 0
M  V30 2 C -2.661200 0.030839 3.951142 0
M  V30 3 C -3.056394 1.209061 3.352465 0
M  V30 4 C -2.524368 1.548696 2.103305 0
M  V30 5 C -1.632143 0.654380 1.570889 0
M  V30 6 C -1.236538 -0.526222 2.171470 0
M  V30 7 C -0.283984 -1.457904 1.579523 0
M  V30 8 N -0.477426 -2.101613 0.417684 0
M  V30 9 C 0.565912 -2.891490 0.128047 0
M  V30 10 C 1.051543 -3.838942 -0.906304 0
M  V30 11 N 1.856340 -3.135851 -1.881311 0
M  V30 12 C 1.531919 -2.179140 -2.856073 0
M  V30 13 C 2.491338 -1.613146 -3.669214 0
M  V30 14 C 2.181239 -0.689083 -4.640130 0
M  V30 15 C 3.268908 -0.170365 -5.423702 0
M  V30 16 N 4.157065 0.246737 -6.074944 0
M  V30 17 C 0.879363 -0.286358 -4.841438 0
M  V30 18 C -0.124399 -0.816031 -4.060357 0
M  V30 19 C -1.481703 -0.349883 -4.333040 0
M  V30 20 N -1.875173 0.810110 -3.610267 0
M  V30 21 C -1.849158 0.700297 -2.193274 0
M  V30 22 C -3.069806 1.437241 -4.125631 0
M  V30 23 C 0.250517 -1.737144 -3.105033 0
M  V30 24 N 1.438971 -2.720473 1.165747 0
M  V30 25 C 0.935345 -1.852829 2.053815 0
M  V30 26 C 1.563977 -1.404372 3.303135 0
M  V30 27 C 1.938718 -0.086959 3.591159 0
M  V30 28 C 2.518057 0.148868 4.820769 0
M  V30 29 C 2.727830 -0.856212 5.741047 0
M  V30 30 N 3.275946 -0.821571 6.986651 0
M  V30 31 C 3.238914 -2.093850 7.455697 0
M  V30 32 N 2.680638 -2.876483 6.512522 0
M  V30 33 N 2.362943 -2.117896 5.451396 0
M  V30 34 C 1.789284 -2.403826 4.256540 0
M  V30 35 N -1.785481 -0.794041 3.371995 0
M  V30 36 H -4.394756 -0.392776 5.035757 0
M  V30 37 H -2.790955 -0.959600 5.793006 0
M  V30 38 H -3.313602 0.787626 5.865583 0
M  V30 39 H -3.767671 1.939888 3.757003 0
M  V30 40 H -2.789283 2.459117 1.573379 0
M  V30 41 H -1.211601 0.886308 0.624762 0
M  V30 42 H -1.258012 -2.102771 -0.268870 0
M  V30 43 H 0.094259 -4.150207 -1.447678 0
M  V30 44 H 1.560136 -4.717219 -0.501585 0
M  V30 45 H 2.887199 -3.407426 -1.835437 0
M  V30 46 H 3.539917 -1.918478 -3.528420 0
M  V30 47 H 0.711485 0.431972 -5.610031 0
M  V30 48 H -1.673608 -0.154047 -5.411682 0
M  V30 49 H -2.170509 -1.190186 -4.046435 0
M  V30 50 H -0.862362 0.938698 -1.742690 0
M  V30 51 H -2.637542 1.294594 -1.673749 0
M  V30 52 H -2.079538 -0.362442 -1.905810 0
M  V30 53 H -3.927486 0.806186 -3.765728 0
M  V30 54 H -3.117884 1.404594 -5.232440 0
M  V30 55 H -3.232285 2.445889 -3.749039 0
M  V30 56 H -0.575215 -2.123612 -2.526358 0
M  V30 57 H 1.738254 0.637527 2.814605 0
M  V30 58 H 2.796316 1.181823 5.011264 0
M  V30 59 H 3.590543 -2.441033 8.416058 0
M  V30 60 H 1.519525 -3.439119 4.087459 0
M  V30 END ATOM
M  V30 BEGIN BOND
M  V30 1 1 1 2
M  V30 2 2 2 3
M  V30 3 1 3 4
M  V30 4 2 4 5
M  V30 5 1 5 6
M  V30 6 1 6 7
M  V30 7 1 7 8
M  V30 8 1 8 9
M  V30 9 1 9 10
M  V30 10 1 10 11
M  V30 11 1 11 12
M  V30 12 2 12 13
M  V30 13 1 13 14
M  V30 14 1 14 15
M  V30 15 3 15 16
M  V30 16 2 14 17
M  V30 17 1 17 18
M  V30 18 1 18 19
M  V30 19 1 19 20
M  V30 20 1 20 21
M  V30 21 1 20 22
M  V30 22 2 18 23
M  V30 23 2 9 24
M  V30 24 1 24 25
M  V30 25 1 25 26
M  V30 26 1 26 27
M  V30 27 2 27 28
M  V30 28 1 28 29
M  V30 29 2 29 30
M  V30 30 1 30 31
M  V30 31 2 31 32
M  V30 32 1 32 33
M  V30 33 1 33 34
M  V30 34 2 6 35
M  V30 35 1 35 2
M  V30 36 2 25 7
M  V30 37 2 34 26
M  V30 38 1 23 12
M  V30 39 1 33 29
M  V30 40 1 1 36
M  V30 41 1 1 37
M  V30 42 1 1 38
M  V30 43 1 3 39
M  V30 44 1 4 40
M  V30 45 1 5 41
M  V30 46 1 8 42
M  V30 47 1 10 43
M  V30 48 1 10 44
M  V30 49 1 11 45
M  V30 50 1 13 46
M  V30 51 1 17 47
M  V30 52 1 19 48
M  V30 53 1 19 49
M  V30 54 1 21 50
M  V30 55 1 21 51
M  V30 56 1 21 52
M  V30 57 1 22 53
M  V30 58 1 22 54
M  V30 59 1 22 55
M  V30 60 1 23 56
M  V30 61 1 27 57
M  V30 62 1 28 58
M  V30 63 1 31 59
M  V30 64 1 34 60
M  V30 END BOND
M  V30 END CTAB
M  END
>  <Dataset>  (805) 
ChEMBL_Kinases

>  <Ligand_Instance>  (805) 
nan

>  <PDB_ID>  (805) 
nan

>  <Standardized_SMILES>  (805) 
Cc1cccc(-c2[nH]c(CNc3cc(C#N)cc(CN(C)C)c3)nc2-c2ccc3ncnn3c2)n1

>  <Name>  (805) 
nan

>  <Pocket>  (805) 
nan

>  <ATP_Site>  (805) 
nan

>  <Peripheral>  (805) 
nan

>  <Num_H_Atoms_ProtBoundConf>  (805) 
nan

>  <Num_Resolved_Atoms>  (805) 
nan

>  <Num_Not_Resolved_Atoms>  (805) 
nan

$$$$
CHEMBL3260902
     RDKit          3D

  0  0  0  0  0  0  0  0  0  0999 V3000
M  V30 BEGIN CTAB
M  V30 COUNTS 64 69 0 0 0
M  V30 BEGIN ATOM
M  V30 1 C 2.541266 -1.654803 3.647576 0
M  V30 2 C 2.930269 -0.979610 2.371104 0
M  V30 3 C 4.202939 -0.629720 1.981992 0
M  V30 4 C 4.412481 -0.004389 0.763620 0
M  V30 5 C 3.326092 0.261241 -0.051395 0
M  V30 6 C 2.047500 -0.098533 0.356264 0
M  V30 7 C 0.962674 0.218527 -0.556939 0
M  V30 8 N 0.113766 -0.587858 -1.196610 0
M  V30 9 C -0.753241 0.082950 -1.952268 0
M  V30 10 C -1.887815 -0.221203 -2.849528 0
M  V30 11 N -3.176237 -0.205827 -2.193668 0
M  V30 12 C -3.717858 -1.078806 -1.215679 0
M  V30 13 C -4.990776 -0.872600 -0.666441 0
M  V30 14 C -5.510149 -1.737322 0.267347 0
M  V30 15 C -6.809316 -1.452290 0.770705 0
M  V30 16 N -7.878205 -1.225812 1.202084 0
M  V30 17 C -4.816648 -2.836854 0.706553 0
M  V30 18 C -3.548976 -3.085310 0.191844 0
M  V30 19 C -2.835212 -4.271460 0.669471 0
M  V30 20 N -2.030402 -4.051661 1.853417 0
M  V30 21 C -1.032717 -3.039034 1.641794 0
M  V30 22 C 0.006614 -3.794546 0.833797 0
M  V30 23 C 0.103638 -5.081453 1.631291 0
M  V30 24 C -1.281285 -5.252967 2.173933 0
M  V30 25 C -3.065530 -2.197547 -0.739365 0
M  V30 26 N -0.407774 1.392085 -1.759786 0
M  V30 27 C 0.625739 1.502720 -0.921419 0
M  V30 28 C 1.271981 2.735676 -0.478555 0
M  V30 29 C 1.215452 3.059177 0.861457 0
M  V30 30 C 1.810321 4.211850 1.338714 0
M  V30 31 C 2.451284 4.997367 0.392139 0
M  V30 32 N 3.109411 6.163991 0.574495 0
M  V30 33 C 3.572012 6.570122 -0.620894 0
M  V30 34 N 3.201173 5.655655 -1.547243 0
M  V30 35 N 2.518773 4.706595 -0.902217 0
M  V30 36 C 1.938327 3.583155 -1.363779 0
M  V30 37 N 1.874039 -0.713577 1.562489 0
M  V30 38 H 1.850834 -2.494109 3.465636 0
M  V30 39 H 3.464690 -2.070094 4.116563 0
M  V30 40 H 2.046048 -0.932065 4.351986 0
M  V30 41 H 4.991339 -0.880272 2.691058 0
M  V30 42 H 5.428145 0.252852 0.497548 0
M  V30 43 H 3.544889 0.752861 -0.994794 0
M  V30 44 H 0.095202 -1.615961 -1.147596 0
M  V30 45 H -1.890067 0.496384 -3.689568 0
M  V30 46 H -1.674557 -1.246763 -3.275817 0
M  V30 47 H -3.836615 0.581137 -2.479427 0
M  V30 48 H -5.571052 -0.006002 -0.993346 0
M  V30 49 H -5.257947 -3.484706 1.434808 0
M  V30 50 H -2.247786 -4.751115 -0.159187 0
M  V30 51 H -3.596768 -5.062722 0.929666 0
M  V30 52 H -0.565790 -2.740714 2.603256 0
M  V30 53 H -1.413797 -2.136865 1.164838 0
M  V30 54 H -0.345164 -4.028841 -0.180848 0
M  V30 55 H 0.974181 -3.253401 0.808220 0
M  V30 56 H 0.427373 -5.930513 1.016564 0
M  V30 57 H 0.824407 -4.857351 2.459143 0
M  V30 58 H -1.235214 -5.322061 3.276961 0
M  V30 59 H -1.768871 -6.156649 1.749351 0
M  V30 60 H -2.099353 -2.440210 -1.104226 0
M  V30 61 H 0.705013 2.418307 1.563876 0
M  V30 62 H 1.753724 4.448376 2.399897 0
M  V30 63 H 4.139818 7.491826 -0.733895 0
M  V30 64 H 1.974171 3.315359 -2.413254 0
M  V30 END ATOM
M  V30 BEGIN BOND
M  V30 1 1 1 2
M  V30 2 2 2 3
M  V30 3 1 3 4
M  V30 4 2 4 5
M  V30 5 1 5 6
M  V30 6 1 6 7
M  V30 7 1 7 8
M  V30 8 1 8 9
M  V30 9 1 9 10
M  V30 10 1 10 11
M  V30 11 1 11 12
M  V30 12 2 12 13
M  V30 13 1 13 14
M  V30 14 1 14 15
M  V30 15 3 15 16
M  V30 16 2 14 17
M  V30 17 1 17 18
M  V30 18 1 18 19
M  V30 19 1 19 20
M  V30 20 1 20 21
M  V30 21 1 21 22
M  V30 22 1 22 23
M  V30 23 1 23 24
M  V30 24 2 18 25
M  V30 25 2 9 26
M  V30 26 1 26 27
M  V30 27 1 27 28
M  V30 28 1 28 29
M  V30 29 2 29 30
M  V30 30 1 30 31
M  V30 31 2 31 32
M  V30 32 1 32 33
M  V30 33 2 33 34
M  V30 34 1 34 35
M  V30 35 1 35 36
M  V30 36 2 6 37
M  V30 37 1 37 2
M  V30 38 2 27 7
M  V30 39 2 36 28
M  V30 40 1 25 12
M  V30 41 1 35 31
M  V30 42 1 24 20
M  V30 43 1 1 38
M  V30 44 1 1 39
M  V30 45 1 1 40
M  V30 46 1 3 41
M  V30 47 1 4 42
M  V30 48 1 5 43
M  V30 49 1 8 44
M  V30 50 1 10 45
M  V30 51 1 10 46
M  V30 52 1 11 47
M  V30 53 1 13 48
M  V30 54 1 17 49
M  V30 55 1 19 50
M  V30 56 1 19 51
M  V30 57 1 21 52
M  V30 58 1 21 53
M  V30 59 1 22 54
M  V30 60 1 22 55
M  V30 61 1 23 56
M  V30 62 1 23 57
M  V30 63 1 24 58
M  V30 64 1 24 59
M  V30 65 1 25 60
M  V30 66 1 29 61
M  V30 67 1 30 62
M  V30 68 1 33 63
M  V30 69 1 36 64
M  V30 END BOND
M  V30 END CTAB
M  END
>  <Dataset>  (806) 
ChEMBL_Kinases

>  <Ligand_Instance>  (806) 
nan

>  <PDB_ID>  (806) 
nan

>  <Standardized_SMILES>  (806) 
Cc1cccc(-c2[nH]c(CNc3cc(C#N)cc(CN4CCCC4)c3)nc2-c2ccc3ncnn3c2)n1

>  <Name>  (806) 
nan

>  <Pocket>  (806) 
nan

>  <ATP_Site>  (806) 
nan

>  <Peripheral>  (806) 
nan

>  <Num_H_Atoms_ProtBoundConf>  (806) 
nan

>  <Num_Resolved_Atoms>  (806) 
nan

>  <Num_Not_Resolved_Atoms>  (806) 
nan

$$$$
CHEMBL3260903
     RDKit          3D

  0  0  0  0  0  0  0  0  0  0999 V3000
M  V30 BEGIN CTAB
M  V30 COUNTS 65 70 0 0 0
M  V30 BEGIN ATOM
M  V30 1 C 4.117380 -2.938908 3.431387 0
M  V30 2 C 4.454794 -2.395693 2.079769 0
M  V30 3 C 5.704193 -2.557864 1.542774 0
M  V30 4 C 5.990112 -2.048959 0.295432 0
M  V30 5 C 4.964194 -1.382820 -0.361461 0
M  V30 6 C 3.703155 -1.236043 0.214881 0
M  V30 7 C 2.678720 -0.525833 -0.540407 0
M  V30 8 N 2.069012 -0.704881 -1.699826 0
M  V30 9 C 1.151844 0.276946 -1.963199 0
M  V30 10 C 0.370744 0.229214 -3.242734 0
M  V30 11 N -0.843287 -0.542373 -3.111101 0
M  V30 12 C -1.976208 -0.235276 -2.322069 0
M  V30 13 C -2.120830 0.891785 -1.565152 0
M  V30 14 C -3.203674 1.211745 -0.776662 0
M  V30 15 C -3.271674 2.423855 -0.010552 0
M  V30 16 N -3.327733 3.391864 0.621688 0
M  V30 17 C -4.250292 0.290750 -0.754025 0
M  V30 18 C -4.154821 -0.879709 -1.510141 0
M  V30 19 C -5.313496 -1.798028 -1.438079 0
M  V30 20 N -5.186254 -2.652784 -0.315120 0
M  V30 21 C -4.072161 -3.508576 -0.229877 0
M  V30 22 C -3.669878 -3.648157 1.239778 0
M  V30 23 O -4.764938 -4.189317 1.904268 0
M  V30 24 C -5.821567 -3.315630 1.903189 0
M  V30 25 C -5.705951 -2.180798 0.921428 0
M  V30 26 C -3.032564 -1.116017 -2.270504 0
M  V30 27 N 1.251037 1.062185 -0.880373 0
M  V30 28 C 2.160566 0.607612 -0.004974 0
M  V30 29 C 2.292029 1.440018 1.183339 0
M  V30 30 C 2.021897 1.028195 2.471465 0
M  V30 31 C 2.158189 1.854440 3.567926 0
M  V30 32 C 2.583835 3.146990 3.356317 0
M  V30 33 N 2.798597 4.154995 4.243257 0
M  V30 34 C 3.211709 5.227036 3.514938 0
M  V30 35 N 3.240043 4.856025 2.216973 0
M  V30 36 N 2.861341 3.594275 2.100785 0
M  V30 37 C 2.712430 2.747665 1.061250 0
M  V30 38 N 3.490786 -1.748579 1.418652 0
M  V30 39 H 3.204081 -2.445350 3.832312 0
M  V30 40 H 4.981712 -2.740444 4.099223 0
M  V30 41 H 4.034656 -4.028475 3.349704 0
M  V30 42 H 6.456164 -3.098022 2.131131 0
M  V30 43 H 6.983083 -2.182990 -0.120439 0
M  V30 44 H 5.211498 -0.986847 -1.349647 0
M  V30 45 H 2.313170 -1.529857 -2.295783 0
M  V30 46 H 1.033039 -0.172155 -4.029268 0
M  V30 47 H 0.081647 1.291827 -3.522568 0
M  V30 48 H -0.861105 -1.436776 -3.681531 0
M  V30 49 H -1.346488 1.634809 -1.556056 0
M  V30 50 H -5.127876 0.510374 -0.138961 0
M  V30 51 H -6.245255 -1.179140 -1.290579 0
M  V30 52 H -5.476059 -2.336581 -2.398925 0
M  V30 53 H -3.215919 -3.188038 -0.844087 0
M  V30 54 H -4.403845 -4.546949 -0.529882 0
M  V30 55 H -2.772281 -4.299483 1.336485 0
M  V30 56 H -3.433127 -2.661688 1.684009 0
M  V30 57 H -6.726385 -3.904549 1.565343 0
M  V30 58 H -6.088585 -2.930311 2.918715 0
M  V30 59 H -6.685446 -1.663897 0.803375 0
M  V30 60 H -4.996893 -1.432981 1.345078 0
M  V30 61 H -2.964720 -2.025678 -2.867716 0
M  V30 62 H 1.689968 0.016351 2.621291 0
M  V30 63 H 1.946130 1.526642 4.568398 0
M  V30 64 H 3.521743 6.265747 3.620541 0
M  V30 65 H 2.934749 3.107302 0.061383 0
M  V30 END ATOM
M  V30 BEGIN BOND
M  V30 1 1 1 2
M  V30 2 2 2 3
M  V30 3 1 3 4
M  V30 4 2 4 5
M  V30 5 1 5 6
M  V30 6 1 6 7
M  V30 7 1 7 8
M  V30 8 1 8 9
M  V30 9 1 9 10
M  V30 10 1 10 11
M  V30 11 1 11 12
M  V30 12 2 12 13
M  V30 13 1 13 14
M  V30 14 1 14 15
M  V30 15 3 15 16
M  V30 16 2 14 17
M  V30 17 1 17 18
M  V30 18 1 18 19
M  V30 19 1 19 20
M  V30 20 1 20 21
M  V30 21 1 21 22
M  V30 22 1 22 23
M  V30 23 1 23 24
M  V30 24 1 24 25
M  V30 25 2 18 26
M  V30 26 2 9 27
M  V30 27 1 27 28
M  V30 28 1 28 29
M  V30 29 1 29 30
M  V30 30 2 30 31
M  V30 31 1 31 32
M  V30 32 2 32 33
M  V30 33 1 33 34
M  V30 34 2 34 35
M  V30 35 1 35 36
M  V30 36 1 36 37
M  V30 37 2 6 38
M  V30 38 1 38 2
M  V30 39 2 28 7
M  V30 40 2 37 29
M  V30 41 1 26 12
M  V30 42 1 36 32
M  V30 43 1 25 20
M  V30 44 1 1 39
M  V30 45 1 1 40
M  V30 46 1 1 41
M  V30 47 1 3 42
M  V30 48 1 4 43
M  V30 49 1 5 44
M  V30 50 1 8 45
M  V30 51 1 10 46
M  V30 52 1 10 47
M  V30 53 1 11 48
M  V30 54 1 13 49
M  V30 55 1 17 50
M  V30 56 1 19 51
M  V30 57 1 19 52
M  V30 58 1 21 53
M  V30 59 1 21 54
M  V30 60 1 22 55
M  V30 61 1 22 56
M  V30 62 1 24 57
M  V30 63 1 24 58
M  V30 64 1 25 59
M  V30 65 1 25 60
M  V30 66 1 26 61
M  V30 67 1 30 62
M  V30 68 1 31 63
M  V30 69 1 34 64
M  V30 70 1 37 65
M  V30 END BOND
M  V30 END CTAB
M  END
>  <Dataset>  (807) 
ChEMBL_Kinases

>  <Ligand_Instance>  (807) 
nan

>  <PDB_ID>  (807) 
nan

>  <Standardized_SMILES>  (807) 
Cc1cccc(-c2[nH]c(CNc3cc(C#N)cc(CN4CCOCC4)c3)nc2-c2ccc3ncnn3c2)n1

>  <Name>  (807) 
nan

>  <Pocket>  (807) 
nan

>  <ATP_Site>  (807) 
nan

>  <Peripheral>  (807) 
nan

>  <Num_H_Atoms_ProtBoundConf>  (807) 
nan

>  <Num_Resolved_Atoms>  (807) 
nan

>  <Num_Not_Resolved_Atoms>  (807) 
nan

$$$$
CHEMBL3260904
     RDKit          3D

  0  0  0  0  0  0  0  0  0  0999 V3000
M  V30 BEGIN CTAB
M  V30 COUNTS 57 61 0 0 0
M  V30 BEGIN ATOM
M  V30 1 C 3.909552 -4.034934 4.258561 0
M  V30 2 C 3.068903 -2.894106 3.828605 0
M  V30 3 C 2.660167 -2.003990 4.815522 0
M  V30 4 C 1.878393 -0.946239 4.415970 0
M  V30 5 C 1.550138 -0.828320 3.090518 0
M  V30 6 C 1.991889 -1.754763 2.149382 0
M  V30 7 C 1.535559 -1.455241 0.802866 0
M  V30 8 N 1.769174 -0.362418 0.064169 0
M  V30 9 C 1.185512 -0.425894 -1.138810 0
M  V30 10 C 1.081444 0.456126 -2.331008 0
M  V30 11 N -0.143123 1.229226 -2.274896 0
M  V30 12 C -0.625722 2.250604 -1.438356 0
M  V30 13 C 0.152789 2.736547 -0.409783 0
M  V30 14 C -0.224959 3.739668 0.451597 0
M  V30 15 C 0.585258 4.245507 1.522872 0
M  V30 16 N 1.249934 4.651661 2.375930 0
M  V30 17 C -1.462057 4.321316 0.303725 0
M  V30 18 C -2.258620 3.852887 -0.717433 0
M  V30 19 C -1.876611 2.851727 -1.573898 0
M  V30 20 N -2.742508 2.405340 -2.613266 0
M  V30 21 C -2.666487 2.349829 -4.061443 0
M  V30 22 C -4.041408 1.858312 -2.211818 0
M  V30 23 N 0.558704 -1.640853 -1.121240 0
M  V30 24 C 0.760920 -2.274084 0.044759 0
M  V30 25 C 0.198628 -3.592248 0.322037 0
M  V30 26 C 0.935574 -4.733773 0.569876 0
M  V30 27 C 0.325820 -5.937625 0.822535 0
M  V30 28 C -1.049428 -6.039563 0.835628 0
M  V30 29 N -1.874591 -7.101865 1.056576 0
M  V30 30 C -3.126052 -6.620055 0.945816 0
M  V30 31 N -3.057408 -5.307300 0.666666 0
M  V30 32 N -1.783487 -4.925718 0.593672 0
M  V30 33 C -1.175924 -3.737788 0.344492 0
M  V30 34 N 2.758715 -2.797701 2.522642 0
M  V30 35 H 4.932948 -3.664172 4.371179 0
M  V30 36 H 3.553126 -4.394479 5.261988 0
M  V30 37 H 3.781622 -4.876173 3.561928 0
M  V30 38 H 2.955547 -2.159563 5.833580 0
M  V30 39 H 1.565704 -0.259435 5.190643 0
M  V30 40 H 0.931051 0.033876 2.860557 0
M  V30 41 H 2.339661 0.454826 0.356350 0
M  V30 42 H 1.976577 1.131502 -2.370493 0
M  V30 43 H 1.042864 -0.195808 -3.222599 0
M  V30 44 H -0.862621 0.990865 -3.028515 0
M  V30 45 H 1.142463 2.380172 -0.183823 0
M  V30 46 H -1.821109 5.106660 0.938054 0
M  V30 47 H -3.241025 4.263378 -0.892016 0
M  V30 48 H -2.737039 1.335738 -4.479473 0
M  V30 49 H -1.751985 2.895554 -4.368446 0
M  V30 50 H -3.526940 2.909782 -4.529240 0
M  V30 51 H -4.118145 1.785569 -1.097110 0
M  V30 52 H -4.278954 0.916702 -2.712411 0
M  V30 53 H -4.780994 2.672874 -2.467343 0
M  V30 54 H 2.012284 -4.645223 0.557246 0
M  V30 55 H 0.914481 -6.821282 1.014513 0
M  V30 56 H -4.135365 -6.999120 1.020102 0
M  V30 57 H -1.880828 -2.910267 0.163951 0
M  V30 END ATOM
M  V30 BEGIN BOND
M  V30 1 1 1 2
M  V30 2 2 2 3
M  V30 3 1 3 4
M  V30 4 2 4 5
M  V30 5 1 5 6
M  V30 6 1 6 7
M  V30 7 1 7 8
M  V30 8 1 8 9
M  V30 9 1 9 10
M  V30 10 1 10 11
M  V30 11 1 11 12
M  V30 12 2 12 13
M  V30 13 1 13 14
M  V30 14 1 14 15
M  V30 15 3 15 16
M  V30 16 2 14 17
M  V30 17 1 17 18
M  V30 18 2 18 19
M  V30 19 1 19 20
M  V30 20 1 20 21
M  V30 21 1 20 22
M  V30 22 2 9 23
M  V30 23 1 23 24
M  V30 24 1 24 25
M  V30 25 1 25 26
M  V30 26 2 26 27
M  V30 27 1 27 28
M  V30 28 2 28 29
M  V30 29 1 29 30
M  V30 30 2 30 31
M  V30 31 1 31 32
M  V30 32 1 32 33
M  V30 33 2 6 34
M  V30 34 1 34 2
M  V30 35 2 24 7
M  V30 36 2 33 25
M  V30 37 1 19 12
M  V30 38 1 32 28
M  V30 39 1 1 35
M  V30 40 1 1 36
M  V30 41 1 1 37
M  V30 42 1 3 38
M  V30 43 1 4 39
M  V30 44 1 5 40
M  V30 45 1 8 41
M  V30 46 1 10 42
M  V30 47 1 10 43
M  V30 48 1 11 44
M  V30 49 1 13 45
M  V30 50 1 17 46
M  V30 51 1 18 47
M  V30 52 1 21 48
M  V30 53 1 21 49
M  V30 54 1 21 50
M  V30 55 1 22 51
M  V30 56 1 22 52
M  V30 57 1 22 53
M  V30 58 1 26 54
M  V30 59 1 27 55
M  V30 60 1 30 56
M  V30 61 1 33 57
M  V30 END BOND
M  V30 END CTAB
M  END
>  <Dataset>  (808) 
ChEMBL_Kinases

>  <Ligand_Instance>  (808) 
nan

>  <PDB_ID>  (808) 
nan

>  <Standardized_SMILES>  (808) 
Cc1cccc(-c2[nH]c(CNc3cc(C#N)ccc3N(C)C)nc2-c2ccc3ncnn3c2)n1

>  <Name>  (808) 
nan

>  <Pocket>  (808) 
nan

>  <ATP_Site>  (808) 
nan

>  <Peripheral>  (808) 
nan

>  <Num_H_Atoms_ProtBoundConf>  (808) 
nan

>  <Num_Resolved_Atoms>  (808) 
nan

>  <Num_Not_Resolved_Atoms>  (808) 
nan

$$$$
CHEMBL3260905
     RDKit          3D

  0  0  0  0  0  0  0  0  0  0999 V3000
M  V30 BEGIN CTAB
M  V30 COUNTS 60 64 0 0 0
M  V30 BEGIN ATOM
M  V30 1 C 1.354061 -0.481231 6.089190 0
M  V30 2 C 2.164819 -0.646638 4.871192 0
M  V30 3 C 3.554140 -0.527902 4.964923 0
M  V30 4 C 4.262517 -0.691367 3.791734 0
M  V30 5 C 3.576107 -0.952341 2.642338 0
M  V30 6 C 2.184295 -1.064771 2.584153 0
M  V30 7 C 1.718628 -1.345710 1.220414 0
M  V30 8 N 1.959543 -0.463733 0.240286 0
M  V30 9 C 1.476655 -0.859236 -0.947827 0
M  V30 10 C 1.416787 -0.347560 -2.337833 0
M  V30 11 N 0.203528 0.355769 -2.663934 0
M  V30 12 C -0.445834 1.519864 -2.192202 0
M  V30 13 C 0.169587 2.275082 -1.221285 0
M  V30 14 C -0.370628 3.453652 -0.750445 0
M  V30 15 C 0.240174 4.273746 0.264095 0
M  V30 16 N 0.744196 4.926917 1.078567 0
M  V30 17 C -1.582298 3.889763 -1.281030 0
M  V30 18 C -2.163778 3.103767 -2.249318 0
M  V30 19 C -1.648960 1.914205 -2.744035 0
M  V30 20 C -2.439709 1.183324 -3.737875 0
M  V30 21 N -3.321295 0.184486 -3.265301 0
M  V30 22 C -2.790529 -0.875541 -2.484024 0
M  V30 23 C -3.987570 -0.394278 -4.435280 0
M  V30 24 N 0.893682 -2.069166 -0.699922 0
M  V30 25 C 1.026508 -2.382816 0.598483 0
M  V30 26 C 0.601806 -3.531958 1.387826 0
M  V30 27 C 1.257993 -4.716894 1.647900 0
M  V30 28 C 0.662222 -5.678041 2.432948 0
M  V30 29 C -0.591875 -5.406994 2.935165 0
M  V30 30 N -1.350322 -6.211823 3.725552 0
M  V30 31 C -2.491942 -5.559898 3.979954 0
M  V30 32 N -2.427151 -4.360698 3.344978 0
M  V30 33 N -1.257837 -4.269182 2.703372 0
M  V30 34 C -0.666962 -3.329642 1.931765 0
M  V30 35 N 1.484760 -0.907343 3.721183 0
M  V30 36 H 0.519435 -1.203792 6.157559 0
M  V30 37 H 2.012361 -0.600292 6.981507 0
M  V30 38 H 0.976921 0.576204 6.152125 0
M  V30 39 H 4.019621 -0.320335 5.910164 0
M  V30 40 H 5.330085 -0.598657 3.871377 0
M  V30 41 H 4.244214 -1.060256 1.783383 0
M  V30 42 H 2.459449 0.447080 0.291112 0
M  V30 43 H 2.238002 0.430428 -2.422309 0
M  V30 44 H 1.694630 -1.129916 -3.051040 0
M  V30 45 H -0.262244 -0.143998 -3.458687 0
M  V30 46 H 1.094212 2.047564 -0.747015 0
M  V30 47 H -2.047478 4.798925 -0.951653 0
M  V30 48 H -3.109038 3.470102 -2.643807 0
M  V30 49 H -1.798134 0.738544 -4.548359 0
M  V30 50 H -3.067903 1.936655 -4.295160 0
M  V30 51 H -2.213877 -0.515817 -1.593119 0
M  V30 52 H -2.109347 -1.568474 -3.041788 0
M  V30 53 H -3.613941 -1.558312 -2.130769 0
M  V30 54 H -3.267399 -0.563713 -5.257295 0
M  V30 55 H -4.762182 0.300156 -4.818999 0
M  V30 56 H -4.510916 -1.339495 -4.189786 0
M  V30 57 H 2.220250 -4.772464 1.185711 0
M  V30 58 H 1.206976 -6.593790 2.614851 0
M  V30 59 H -3.427857 -5.684158 4.518980 0
M  V30 60 H -1.284488 -2.442965 1.802181 0
M  V30 END ATOM
M  V30 BEGIN BOND
M  V30 1 1 1 2
M  V30 2 2 2 3
M  V30 3 1 3 4
M  V30 4 2 4 5
M  V30 5 1 5 6
M  V30 6 1 6 7
M  V30 7 1 7 8
M  V30 8 1 8 9
M  V30 9 1 9 10
M  V30 10 1 10 11
M  V30 11 1 11 12
M  V30 12 2 12 13
M  V30 13 1 13 14
M  V30 14 1 14 15
M  V30 15 3 15 16
M  V30 16 2 14 17
M  V30 17 1 17 18
M  V30 18 2 18 19
M  V30 19 1 19 20
M  V30 20 1 20 21
M  V30 21 1 21 22
M  V30 22 1 21 23
M  V30 23 2 9 24
M  V30 24 1 24 25
M  V30 25 1 25 26
M  V30 26 1 26 27
M  V30 27 2 27 28
M  V30 28 1 28 29
M  V30 29 2 29 30
M  V30 30 1 30 31
M  V30 31 2 31 32
M  V30 32 1 32 33
M  V30 33 1 33 34
M  V30 34 2 6 35
M  V30 35 1 35 2
M  V30 36 2 25 7
M  V30 37 2 34 26
M  V30 38 1 19 12
M  V30 39 1 33 29
M  V30 40 1 1 36
M  V30 41 1 1 37
M  V30 42 1 1 38
M  V30 43 1 3 39
M  V30 44 1 4 40
M  V30 45 1 5 41
M  V30 46 1 8 42
M  V30 47 1 10 43
M  V30 48 1 10 44
M  V30 49 1 11 45
M  V30 50 1 13 46
M  V30 51 1 17 47
M  V30 52 1 18 48
M  V30 53 1 20 49
M  V30 54 1 20 50
M  V30 55 1 22 51
M  V30 56 1 22 52
M  V30 57 1 22 53
M  V30 58 1 23 54
M  V30 59 1 23 55
M  V30 60 1 23 56
M  V30 61 1 27 57
M  V30 62 1 28 58
M  V30 63 1 31 59
M  V30 64 1 34 60
M  V30 END BOND
M  V30 END CTAB
M  END
>  <Dataset>  (809) 
ChEMBL_Kinases

>  <Ligand_Instance>  (809) 
nan

>  <PDB_ID>  (809) 
nan

>  <Standardized_SMILES>  (809) 
Cc1cccc(-c2[nH]c(CNc3cc(C#N)ccc3CN(C)C)nc2-c2ccc3ncnn3c2)n1

>  <Name>  (809) 
nan

>  <Pocket>  (809) 
nan

>  <ATP_Site>  (809) 
nan

>  <Peripheral>  (809) 
nan

>  <Num_H_Atoms_ProtBoundConf>  (809) 
nan

>  <Num_Resolved_Atoms>  (809) 
nan

>  <Num_Not_Resolved_Atoms>  (809) 
nan

$$$$
CHEMBL3260906
     RDKit          3D

  0  0  0  0  0  0  0  0  0  0999 V3000
M  V30 BEGIN CTAB
M  V30 COUNTS 64 69 0 0 0
M  V30 BEGIN ATOM
M  V30 1 C 4.362334 0.174199 4.054754 0
M  V30 2 C 4.190673 -0.420703 2.704063 0
M  V30 3 C 5.196476 -1.267772 2.243478 0
M  V30 4 C 4.975410 -1.793914 0.969420 0
M  V30 5 C 3.828494 -1.479742 0.232237 0
M  V30 6 C 2.885538 -0.609570 0.809551 0
M  V30 7 C 1.778219 -0.406660 -0.137353 0
M  V30 8 N 1.122330 -1.369079 -0.833109 0
M  V30 9 C 0.187061 -0.740542 -1.606765 0
M  V30 10 C -0.637981 -1.659046 -2.449555 0
M  V30 11 N -1.813675 -2.110637 -1.770322 0
M  V30 12 C -2.980865 -1.491197 -1.266213 0
M  V30 13 C -3.115216 -0.108941 -1.437383 0
M  V30 14 C -4.211717 0.577315 -0.998199 0
M  V30 15 C -4.420789 2.005332 -1.139029 0
M  V30 16 N -4.568369 3.154023 -1.252259 0
M  V30 17 C -5.240851 -0.072287 -0.362427 0
M  V30 18 C -5.112450 -1.430037 -0.193648 0
M  V30 19 C -4.028238 -2.164025 -0.618061 0
M  V30 20 C -3.961255 -3.618522 -0.393462 0
M  V30 21 N -3.220119 -3.978656 0.711609 0
M  V30 22 C -2.899304 -5.333396 0.959335 0
M  V30 23 C -1.365713 -5.320271 0.856276 0
M  V30 24 C -0.945314 -3.904904 1.211272 0
M  V30 25 C -2.298143 -3.161031 1.337065 0
M  V30 26 N 0.266939 0.570248 -1.391998 0
M  V30 27 C 1.233261 0.815833 -0.495490 0
M  V30 28 C 1.547912 2.146217 0.015003 0
M  V30 29 C 2.818417 2.633139 0.351466 0
M  V30 30 C 2.933783 3.954095 0.809309 0
M  V30 31 C 1.782473 4.717621 0.905443 0
M  V30 32 N 1.726194 6.021354 1.324374 0
M  V30 33 C 0.435133 6.395766 1.260971 0
M  V30 34 N -0.295108 5.322160 0.806974 0
M  V30 35 N 0.527320 4.287808 0.587425 0
M  V30 36 C 0.496915 3.015815 0.159695 0
M  V30 37 N 3.089636 -0.102533 2.029014 0
M  V30 38 H 3.399442 0.282168 4.572495 0
M  V30 39 H 5.032088 -0.465844 4.657917 0
M  V30 40 H 4.858034 1.165218 3.979430 0
M  V30 41 H 6.064823 -1.491124 2.822680 0
M  V30 42 H 5.771546 -2.449465 0.628854 0
M  V30 43 H 3.783277 -1.960647 -0.740182 0
M  V30 44 H 1.402033 -2.378941 -0.697593 0
M  V30 45 H -0.976480 -1.033905 -3.339522 0
M  V30 46 H -0.059637 -2.463933 -2.895999 0
M  V30 47 H -1.812930 -3.157072 -1.599991 0
M  V30 48 H -2.416670 0.541184 -1.914943 0
M  V30 49 H -6.141228 0.381606 0.018970 0
M  V30 50 H -5.886083 -1.983107 0.291026 0
M  V30 51 H -3.568665 -4.121734 -1.339941 0
M  V30 52 H -5.031476 -3.971020 -0.258329 0
M  V30 53 H -3.299196 -6.023785 0.179486 0
M  V30 54 H -3.156991 -5.685873 1.991253 0
M  V30 55 H -1.138587 -5.533304 -0.214366 0
M  V30 56 H -0.912051 -6.088732 1.503428 0
M  V30 57 H -0.417507 -3.873944 2.169834 0
M  V30 58 H -0.435812 -3.420156 0.372641 0
M  V30 59 H -2.224055 -2.151604 0.917588 0
M  V30 60 H -2.480334 -3.051629 2.466239 0
M  V30 61 H 3.627886 1.962327 0.239482 0
M  V30 62 H 3.890453 4.342800 1.070221 0
M  V30 63 H -0.411013 7.104003 1.351148 0
M  V30 64 H -0.519808 2.693671 -0.091575 0
M  V30 END ATOM
M  V30 BEGIN BOND
M  V30 1 1 1 2
M  V30 2 2 2 3
M  V30 3 1 3 4
M  V30 4 2 4 5
M  V30 5 1 5 6
M  V30 6 1 6 7
M  V30 7 1 7 8
M  V30 8 1 8 9
M  V30 9 1 9 10
M  V30 10 1 10 11
M  V30 11 1 11 12
M  V30 12 2 12 13
M  V30 13 1 13 14
M  V30 14 1 14 15
M  V30 15 3 15 16
M  V30 16 2 14 17
M  V30 17 1 17 18
M  V30 18 2 18 19
M  V30 19 1 19 20
M  V30 20 1 20 21
M  V30 21 1 21 22
M  V30 22 1 22 23
M  V30 23 1 23 24
M  V30 24 1 24 25
M  V30 25 2 9 26
M  V30 26 1 26 27
M  V30 27 1 27 28
M  V30 28 1 28 29
M  V30 29 2 29 30
M  V30 30 1 30 31
M  V30 31 2 31 32
M  V30 32 1 32 33
M  V30 33 2 33 34
M  V30 34 1 34 35
M  V30 35 1 35 36
M  V30 36 2 6 37
M  V30 37 1 37 2
M  V30 38 2 27 7
M  V30 39 2 36 28
M  V30 40 1 19 12
M  V30 41 1 25 21
M  V30 42 1 35 31
M  V30 43 1 1 38
M  V30 44 1 1 39
M  V30 45 1 1 40
M  V30 46 1 3 41
M  V30 47 1 4 42
M  V30 48 1 5 43
M  V30 49 1 8 44
M  V30 50 1 10 45
M  V30 51 1 10 46
M  V30 52 1 11 47
M  V30 53 1 13 48
M  V30 54 1 17 49
M  V30 55 1 18 50
M  V30 56 1 20 51
M  V30 57 1 20 52
M  V30 58 1 22 53
M  V30 59 1 22 54
M  V30 60 1 23 55
M  V30 61 1 23 56
M  V30 62 1 24 57
M  V30 63 1 24 58
M  V30 64 1 25 59
M  V30 65 1 25 60
M  V30 66 1 29 61
M  V30 67 1 30 62
M  V30 68 1 33 63
M  V30 69 1 36 64
M  V30 END BOND
M  V30 END CTAB
M  END
>  <Dataset>  (810) 
ChEMBL_Kinases

>  <Ligand_Instance>  (810) 
nan

>  <PDB_ID>  (810) 
nan

>  <Standardized_SMILES>  (810) 
Cc1cccc(-c2[nH]c(CNc3cc(C#N)ccc3CN3CCCC3)nc2-c2ccc3ncnn3c2)n1

>  <Name>  (810) 
nan

>  <Pocket>  (810) 
nan

>  <ATP_Site>  (810) 
nan

>  <Peripheral>  (810) 
nan

>  <Num_H_Atoms_ProtBoundConf>  (810) 
nan

>  <Num_Resolved_Atoms>  (810) 
nan

>  <Num_Not_Resolved_Atoms>  (810) 
nan

$$$$
CHEMBL3260897
     RDKit          3D

  0  0  0  0  0  0  0  0  0  0999 V3000
M  V30 BEGIN CTAB
M  V30 COUNTS 60 64 0 0 0
M  V30 BEGIN ATOM
M  V30 1 C 2.601828 -1.464121 5.860091 0
M  V30 2 C 3.208476 -1.575645 4.494825 0
M  V30 3 C 4.536334 -1.971642 4.477052 0
M  V30 4 C 5.121504 -2.084008 3.238203 0
M  V30 5 C 4.422676 -1.816057 2.056837 0
M  V30 6 C 3.087638 -1.422342 2.160095 0
M  V30 7 C 2.281865 -1.125740 0.988083 0
M  V30 8 N 2.116069 0.037257 0.332247 0
M  V30 9 C 1.280988 -0.115533 -0.710246 0
M  V30 10 C 0.731917 0.788194 -1.740593 0
M  V30 11 N -0.556528 1.330105 -1.434997 0
M  V30 12 C -1.409626 2.430575 -1.229730 0
M  V30 13 C -0.724832 3.626113 -1.380563 0
M  V30 14 C -1.392565 4.842505 -1.213402 0
M  V30 15 C -2.726460 4.741837 -0.900339 0
M  V30 16 C -3.394269 3.550984 -0.754336 0
M  V30 17 C -4.790762 3.445051 -0.426300 0
M  V30 18 N -5.915729 3.379366 -0.162216 0
M  V30 19 C -2.748339 2.350460 -0.916564 0
M  V30 20 C -3.385857 1.008446 -0.789476 0
M  V30 21 N -3.645759 0.385010 -2.021340 0
M  V30 22 C -4.180044 -0.881555 -2.139561 0
M  V30 23 C -3.161788 0.947159 -3.222563 0
M  V30 24 N 0.931924 -1.435859 -0.673609 0
M  V30 25 C 1.519233 -2.066931 0.338313 0
M  V30 26 C 1.289875 -3.486762 0.565234 0
M  V30 27 C 2.172857 -4.523803 0.275812 0
M  V30 28 C 1.756375 -5.801380 0.580321 0
M  V30 29 C 0.517839 -6.010726 1.145121 0
M  V30 30 N -0.066039 -7.158941 1.512317 0
M  V30 31 C -1.282533 -6.925123 2.025532 0
M  V30 32 N -1.430036 -5.575215 1.960487 0
M  V30 33 N -0.345385 -5.021115 1.430148 0
M  V30 34 C 0.051518 -3.772095 1.136850 0
M  V30 35 N 2.508621 -1.309784 3.362297 0
M  V30 36 H 1.498076 -1.448540 5.781913 0
M  V30 37 H 2.973295 -2.355176 6.446848 0
M  V30 38 H 2.929404 -0.514984 6.335067 0
M  V30 39 H 5.115744 -2.188209 5.363348 0
M  V30 40 H 6.160948 -2.387408 3.157076 0
M  V30 41 H 4.842210 -1.887464 1.066127 0
M  V30 42 H 2.547608 0.958349 0.557292 0
M  V30 43 H 1.442052 1.656654 -1.916434 0
M  V30 44 H 0.681550 0.310927 -2.755496 0
M  V30 45 H -1.066094 0.402930 -1.315554 0
M  V30 46 H 0.323941 3.739269 -1.627208 0
M  V30 47 H -0.927206 5.798760 -1.315416 0
M  V30 48 H -3.281996 5.680596 -0.761554 0
M  V30 49 H -4.369848 1.092893 -0.246329 0
M  V30 50 H -2.684506 0.367386 -0.189851 0
M  V30 51 H -4.800073 -1.253473 -1.302536 0
M  V30 52 H -3.344993 -1.608172 -2.379073 0
M  V30 53 H -4.827917 -0.931086 -3.050300 0
M  V30 54 H -2.192154 0.444309 -3.522085 0
M  V30 55 H -2.999947 2.043346 -3.185309 0
M  V30 56 H -3.824981 0.756776 -4.111364 0
M  V30 57 H 3.102742 -4.218093 -0.163892 0
M  V30 58 H 2.448972 -6.599415 0.348940 0
M  V30 59 H -2.095858 -7.517781 2.442158 0
M  V30 60 H -0.675282 -3.006043 1.384470 0
M  V30 END ATOM
M  V30 BEGIN BOND
M  V30 1 1 1 2
M  V30 2 2 2 3
M  V30 3 1 3 4
M  V30 4 2 4 5
M  V30 5 1 5 6
M  V30 6 1 6 7
M  V30 7 1 7 8
M  V30 8 1 8 9
M  V30 9 1 9 10
M  V30 10 1 10 11
M  V30 11 1 11 12
M  V30 12 2 12 13
M  V30 13 1 13 14
M  V30 14 2 14 15
M  V30 15 1 15 16
M  V30 16 1 16 17
M  V30 17 3 17 18
M  V30 18 2 16 19
M  V30 19 1 19 20
M  V30 20 1 20 21
M  V30 21 1 21 22
M  V30 22 1 21 23
M  V30 23 2 9 24
M  V30 24 1 24 25
M  V30 25 1 25 26
M  V30 26 1 26 27
M  V30 27 2 27 28
M  V30 28 1 28 29
M  V30 29 2 29 30
M  V30 30 1 30 31
M  V30 31 2 31 32
M  V30 32 1 32 33
M  V30 33 1 33 34
M  V30 34 2 6 35
M  V30 35 1 35 2
M  V30 36 2 25 7
M  V30 37 2 34 26
M  V30 38 1 19 12
M  V30 39 1 33 29
M  V30 40 1 1 36
M  V30 41 1 1 37
M  V30 42 1 1 38
M  V30 43 1 3 39
M  V30 44 1 4 40
M  V30 45 1 5 41
M  V30 46 1 8 42
M  V30 47 1 10 43
M  V30 48 1 10 44
M  V30 49 1 11 45
M  V30 50 1 13 46
M  V30 51 1 14 47
M  V30 52 1 15 48
M  V30 53 1 20 49
M  V30 54 1 20 50
M  V30 55 1 22 51
M  V30 56 1 22 52
M  V30 57 1 22 53
M  V30 58 1 23 54
M  V30 59 1 23 55
M  V30 60 1 23 56
M  V30 61 1 27 57
M  V30 62 1 28 58
M  V30 63 1 31 59
M  V30 64 1 34 60
M  V30 END BOND
M  V30 END CTAB
M  END
>  <Dataset>  (811) 
ChEMBL_Kinases

>  <Ligand_Instance>  (811) 
nan

>  <PDB_ID>  (811) 
nan

>  <Standardized_SMILES>  (811) 
Cc1cccc(-c2[nH]c(CNc3cccc(C#N)c3CN(C)C)nc2-c2ccc3ncnn3c2)n1

>  <Name>  (811) 
nan

>  <Pocket>  (811) 
nan

>  <ATP_Site>  (811) 
nan

>  <Peripheral>  (811) 
nan

>  <Num_H_Atoms_ProtBoundConf>  (811) 
nan

>  <Num_Resolved_Atoms>  (811) 
nan

>  <Num_Not_Resolved_Atoms>  (811) 
nan

$$$$
CHEMBL3264000
     RDKit          3D

  0  0  0  0  0  0  0  0  0  0999 V3000
M  V30 BEGIN CTAB
M  V30 COUNTS 52 55 0 0 0
M  V30 BEGIN ATOM
M  V30 1 C 6.428886 0.073652 4.625071 0
M  V30 2 N 6.472354 -0.884089 3.541438 0
M  V30 3 S 5.014145 -1.834568 3.689848 0
M  V30 4 O 5.039650 -2.405878 5.076151 0
M  V30 5 O 5.019037 -2.952277 2.704389 0
M  V30 6 N 3.657847 -0.791124 3.513130 0
M  V30 7 C 3.519759 -0.108883 2.276906 0
M  V30 8 N 4.427565 -0.296070 1.310464 0
M  V30 9 C 4.290099 0.363884 0.123294 0
M  V30 10 C 3.197367 1.192513 0.010913 0
M  V30 11 C 2.192313 1.452887 0.966031 0
M  V30 12 C 1.130493 2.378145 0.537356 0
M  V30 13 C -0.062959 1.671944 0.083430 0
M  V30 14 C -1.160971 1.118356 0.682047 0
M  V30 15 C -1.263879 1.329548 2.118355 0
M  V30 16 C -2.142135 0.446629 -0.000117 0
M  V30 17 C -3.186265 -0.061769 0.720836 0
M  V30 18 C -4.216528 -0.757031 0.080747 0
M  V30 19 C -4.169599 -0.925407 -1.286402 0
M  V30 20 O -5.212320 -1.625325 -1.909035 0
M  V30 21 C -5.127271 -2.997746 -2.062270 0
M  V30 22 C -6.122834 -3.712635 -2.659744 0
M  V30 23 C -6.051153 -5.085908 -2.818943 0
M  V30 24 C -4.910518 -5.744237 -2.344126 0
M  V30 25 C -3.950065 -4.963994 -1.755157 0
M  V30 26 N -4.008088 -3.612341 -1.592252 0
M  V30 27 C -3.115700 -0.411195 -2.004511 0
M  V30 28 C -2.109510 0.269546 -1.365350 0
M  V30 29 O -1.074456 0.785090 -1.990060 0
M  V30 30 C -0.128454 1.435064 -1.309276 0
M  V30 31 O 0.735435 1.819863 -2.156865 0
M  V30 32 C 2.461445 0.728157 2.096250 0
M  V30 33 F 1.610180 0.895008 3.102153 0
M  V30 34 H 6.254705 1.114545 4.264122 0
M  V30 35 H 7.391993 0.105322 5.188790 0
M  V30 36 H 5.668081 -0.188520 5.409148 0
M  V30 37 H 6.394866 -0.362989 2.642479 0
M  V30 38 H 2.971532 -0.672904 4.290639 0
M  V30 39 H 5.019214 0.207463 -0.637919 0
M  V30 40 H 3.176964 1.678135 -0.970529 0
M  V30 41 H 1.524331 2.994641 -0.297929 0
M  V30 42 H 0.905315 3.137869 1.335967 0
M  V30 43 H -0.991868 0.397147 2.647746 0
M  V30 44 H -2.310627 1.584742 2.437699 0
M  V30 45 H -0.648958 2.160236 2.507291 0
M  V30 46 H -3.339125 -0.002776 1.775760 0
M  V30 47 H -5.061138 -1.176223 0.609363 0
M  V30 48 H -7.014449 -3.198163 -3.030187 0
M  V30 49 H -6.821905 -5.672803 -3.285858 0
M  V30 50 H -4.818190 -6.798958 -2.447596 0
M  V30 51 H -3.068123 -5.465407 -1.387479 0
M  V30 52 H -3.052149 -0.527712 -3.072520 0
M  V30 END ATOM
M  V30 BEGIN BOND
M  V30 1 1 1 2
M  V30 2 1 2 3
M  V30 3 2 3 4
M  V30 4 2 3 5
M  V30 5 1 3 6
M  V30 6 1 6 7
M  V30 7 2 7 8
M  V30 8 1 8 9
M  V30 9 2 9 10
M  V30 10 1 10 11
M  V30 11 1 11 12
M  V30 12 1 12 13
M  V30 13 2 13 14
M  V30 14 1 14 15
M  V30 15 1 14 16
M  V30 16 2 16 17
M  V30 17 1 17 18
M  V30 18 2 18 19
M  V30 19 1 19 20
M  V30 20 1 20 21
M  V30 21 2 21 22
M  V30 22 1 22 23
M  V30 23 2 23 24
M  V30 24 1 24 25
M  V30 25 2 25 26
M  V30 26 1 19 27
M  V30 27 2 27 28
M  V30 28 1 28 29
M  V30 29 1 29 30
M  V30 30 2 30 31
M  V30 31 2 11 32
M  V30 32 1 32 33
M  V30 33 1 32 7
M  V30 34 1 30 13
M  V30 35 1 28 16
M  V30 36 1 26 21
M  V30 37 1 1 34
M  V30 38 1 1 35
M  V30 39 1 1 36
M  V30 40 1 2 37
M  V30 41 1 6 38
M  V30 42 1 9 39
M  V30 43 1 10 40
M  V30 44 1 12 41
M  V30 45 1 12 42
M  V30 46 1 15 43
M  V30 47 1 15 44
M  V30 48 1 15 45
M  V30 49 1 17 46
M  V30 50 1 18 47
M  V30 51 1 22 48
M  V30 52 1 23 49
M  V30 53 1 24 50
M  V30 54 1 25 51
M  V30 55 1 27 52
M  V30 END BOND
M  V30 END CTAB
M  END
>  <Dataset>  (812) 
ChEMBL_Kinases

>  <Ligand_Instance>  (812) 
nan

>  <PDB_ID>  (812) 
nan

>  <Standardized_SMILES>  (812) 
CNS(=O)(=O)Nc1nccc(Cc2c(C)c3ccc(Oc4ccccn4)cc3oc2=O)c1F

>  <Name>  (812) 
nan

>  <Pocket>  (812) 
nan

>  <ATP_Site>  (812) 
nan

>  <Peripheral>  (812) 
nan

>  <Num_H_Atoms_ProtBoundConf>  (812) 
nan

>  <Num_Resolved_Atoms>  (812) 
nan

>  <Num_Not_Resolved_Atoms>  (812) 
nan

$$$$
CHEMBL3264001
     RDKit          3D

  0  0  0  0  0  0  0  0  0  0999 V3000
M  V30 BEGIN CTAB
M  V30 COUNTS 51 54 0 0 0
M  V30 BEGIN ATOM
M  V30 1 C 4.558025 -1.491793 0.547932 0
M  V30 2 N 3.149538 -1.434987 0.921821 0
M  V30 3 S 3.020655 -0.971386 2.589682 0
M  V30 4 O 1.589619 -1.087334 3.047445 0
M  V30 5 O 3.797724 -1.980186 3.384854 0
M  V30 6 N 3.686737 0.574233 2.835165 0
M  V30 7 C 3.219733 1.774863 2.227772 0
M  V30 8 N 3.791669 2.995400 2.454509 0
M  V30 9 C 3.329260 4.113373 1.868376 0
M  V30 10 C 2.247550 4.057178 1.008684 0
M  V30 11 C 1.628288 2.829655 0.745410 0
M  V30 12 C 0.506184 2.961782 -0.181664 0
M  V30 13 C -0.223506 1.749401 -0.507436 0
M  V30 14 C -1.113850 1.249309 0.451803 0
M  V30 15 C -1.369366 1.853551 1.769147 0
M  V30 16 C -1.806852 0.096693 0.135362 0
M  V30 17 C -2.712505 -0.465365 1.035569 0
M  V30 18 C -3.434571 -1.615261 0.775784 0
M  V30 19 C -3.263704 -2.256234 -0.434555 0
M  V30 20 O -3.990529 -3.393380 -0.667991 0
M  V30 21 C -3.610993 -4.680217 -0.363677 0
M  V30 22 C -4.478298 -5.706610 -0.674737 0
M  V30 23 N -4.078450 -6.962444 -0.363782 0
M  V30 24 C -2.894474 -7.220528 0.221518 0
M  V30 25 C -2.037081 -6.183757 0.526823 0
M  V30 26 N -2.422843 -4.940356 0.223838 0
M  V30 27 C -2.367194 -1.730380 -1.368090 0
M  V30 28 C -1.670482 -0.580089 -1.060664 0
M  V30 29 O -0.818383 -0.069428 -1.933619 0
M  V30 30 C -0.135329 1.024315 -1.680767 0
M  V30 31 O 0.674526 1.471692 -2.563769 0
M  V30 32 C 2.137423 1.711562 1.369139 0
M  V30 33 F 1.481567 0.582136 1.060887 0
M  V30 34 H 4.998490 -2.502573 0.707741 0
M  V30 35 H 5.162973 -0.785262 1.162063 0
M  V30 36 H 4.617630 -1.266024 -0.531608 0
M  V30 37 H 2.739480 -2.369065 0.759161 0
M  V30 38 H 4.519018 0.705933 3.485014 0
M  V30 39 H 3.841930 5.049365 2.101953 0
M  V30 40 H 1.945438 5.022221 0.580643 0
M  V30 41 H 0.938639 3.406372 -1.125883 0
M  V30 42 H -0.155474 3.799164 0.190875 0
M  V30 43 H -1.166155 1.115580 2.598418 0
M  V30 44 H -2.433388 2.175178 1.853700 0
M  V30 45 H -0.750935 2.718816 1.996640 0
M  V30 46 H -2.854210 0.039773 2.002585 0
M  V30 47 H -4.126008 -1.992056 1.535568 0
M  V30 48 H -5.457629 -5.581870 -1.150530 0
M  V30 49 H -2.610812 -8.246631 0.455153 0
M  V30 50 H -1.091158 -6.436723 0.999053 0
M  V30 51 H -2.260214 -2.254313 -2.296651 0
M  V30 END ATOM
M  V30 BEGIN BOND
M  V30 1 1 1 2
M  V30 2 1 2 3
M  V30 3 2 3 4
M  V30 4 2 3 5
M  V30 5 1 3 6
M  V30 6 1 6 7
M  V30 7 2 7 8
M  V30 8 1 8 9
M  V30 9 2 9 10
M  V30 10 1 10 11
M  V30 11 1 11 12
M  V30 12 1 12 13
M  V30 13 2 13 14
M  V30 14 1 14 15
M  V30 15 1 14 16
M  V30 16 2 16 17
M  V30 17 1 17 18
M  V30 18 2 18 19
M  V30 19 1 19 20
M  V30 20 1 20 21
M  V30 21 2 21 22
M  V30 22 1 22 23
M  V30 23 2 23 24
M  V30 24 1 24 25
M  V30 25 2 25 26
M  V30 26 1 19 27
M  V30 27 2 27 28
M  V30 28 1 28 29
M  V30 29 1 29 30
M  V30 30 2 30 31
M  V30 31 2 11 32
M  V30 32 1 32 33
M  V30 33 1 32 7
M  V30 34 1 30 13
M  V30 35 1 28 16
M  V30 36 1 26 21
M  V30 37 1 1 34
M  V30 38 1 1 35
M  V30 39 1 1 36
M  V30 40 1 2 37
M  V30 41 1 6 38
M  V30 42 1 9 39
M  V30 43 1 10 40
M  V30 44 1 12 41
M  V30 45 1 12 42
M  V30 46 1 15 43
M  V30 47 1 15 44
M  V30 48 1 15 45
M  V30 49 1 17 46
M  V30 50 1 18 47
M  V30 51 1 22 48
M  V30 52 1 24 49
M  V30 53 1 25 50
M  V30 54 1 27 51
M  V30 END BOND
M  V30 END CTAB
M  END
>  <Dataset>  (813) 
ChEMBL_Kinases

>  <Ligand_Instance>  (813) 
nan

>  <PDB_ID>  (813) 
nan

>  <Standardized_SMILES>  (813) 
CNS(=O)(=O)Nc1nccc(Cc2c(C)c3ccc(Oc4cnccn4)cc3oc2=O)c1F

>  <Name>  (813) 
nan

>  <Pocket>  (813) 
nan

>  <ATP_Site>  (813) 
nan

>  <Peripheral>  (813) 
nan

>  <Num_H_Atoms_ProtBoundConf>  (813) 
nan

>  <Num_Resolved_Atoms>  (813) 
nan

>  <Num_Not_Resolved_Atoms>  (813) 
nan

$$$$
CHEMBL3675483
     RDKit          3D

  0  0  0  0  0  0  0  0  0  0999 V3000
M  V30 BEGIN CTAB
M  V30 COUNTS 54 57 0 0 0
M  V30 BEGIN ATOM
M  V30 1 C 1.375916 -0.210594 4.588591 0
M  V30 2 C 1.103877 0.973930 3.647169 0
M  V30 3 N 1.984778 1.079806 2.550291 0
M  V30 4 C 2.953056 1.179317 1.500848 0
M  V30 5 N 4.271794 1.075958 1.585023 0
M  V30 6 C 5.162497 1.129279 0.607218 0
M  V30 7 N 4.593149 1.311305 -0.579599 0
M  V30 8 C 3.291097 1.433305 -0.822252 0
M  V30 9 C 2.920569 1.631960 -2.128207 0
M  V30 10 C 3.825883 1.704951 -3.262620 0
M  V30 11 N 5.186627 1.600829 -3.613562 0
M  V30 12 O 3.504253 1.926823 -4.440272 0
M  V30 13 C 1.593285 1.783976 -2.455656 0
M  V30 14 C 0.682016 1.728121 -1.425324 0
M  V30 15 C 1.121945 1.526433 -0.139003 0
M  V30 16 C 2.428123 1.367632 0.242312 0
M  V30 17 C -0.347685 0.747596 3.238160 0
M  V30 18 C -1.380966 1.579205 3.681048 0
M  V30 19 C -2.720797 1.435825 3.395700 0
M  V30 20 C -3.032516 0.357017 2.593783 0
M  V30 21 C -2.081616 -0.517007 2.109843 0
M  V30 22 N -2.458619 -1.620343 1.290372 0
M  V30 23 C -2.818392 -2.964727 1.555873 0
M  V30 24 O -2.808561 -3.271334 2.766566 0
M  V30 25 C -3.147145 -3.798150 0.403759 0
M  V30 26 C -3.158903 -3.421562 -0.944120 0
M  V30 27 C -3.508368 -4.409296 -1.844044 0
M  V30 28 C -3.835118 -5.701773 -1.498723 0
M  V30 29 C -4.176195 -6.589279 -2.623582 0
M  V30 30 F -3.378755 -6.429692 -3.728763 0
M  V30 31 F -4.072673 -7.935493 -2.258219 0
M  V30 32 F -5.490312 -6.411598 -3.047920 0
M  V30 33 N -3.812084 -6.029102 -0.175931 0
M  V30 34 C -3.477454 -5.100683 0.742414 0
M  V30 35 C -0.764071 -0.318568 2.430709 0
M  V30 36 H 2.339014 0.000038 5.088833 0
M  V30 37 H 0.557372 -0.243253 5.319473 0
M  V30 38 H 1.494503 -1.131685 3.999037 0
M  V30 39 H 1.050907 1.902062 4.243721 0
M  V30 40 H 2.709194 1.022449 3.333913 0
M  V30 41 H 6.216739 1.030109 0.815265 0
M  V30 42 H 5.926551 2.325534 -3.655364 0
M  V30 43 H 5.712672 0.730129 -3.906438 0
M  V30 44 H 1.221988 1.943162 -3.456520 0
M  V30 45 H -0.376112 1.842225 -1.616937 0
M  V30 46 H 0.390006 1.504119 0.643453 0
M  V30 47 H -1.093659 2.413219 4.306674 0
M  V30 48 H -3.425603 2.141725 3.795785 0
M  V30 49 H -4.088018 0.215840 2.349197 0
M  V30 50 H -2.392522 -1.136624 0.372261 0
M  V30 51 H -2.894798 -2.398380 -1.131515 0
M  V30 52 H -3.496208 -4.044159 -2.869896 0
M  V30 53 H -3.504507 -5.514152 1.756004 0
M  V30 54 H 0.014803 -0.969881 2.079871 0
M  V30 END ATOM
M  V30 BEGIN BOND
M  V30 1 1 1 2
M  V30 2 1 2 3
M  V30 3 1 3 4
M  V30 4 2 4 5
M  V30 5 1 5 6
M  V30 6 2 6 7
M  V30 7 1 7 8
M  V30 8 2 8 9
M  V30 9 1 9 10
M  V30 10 1 10 11
M  V30 11 2 10 12
M  V30 12 1 9 13
M  V30 13 2 13 14
M  V30 14 1 14 15
M  V30 15 2 15 16
M  V30 16 1 2 17
M  V30 17 2 17 18
M  V30 18 1 18 19
M  V30 19 2 19 20
M  V30 20 1 20 21
M  V30 21 1 21 22
M  V30 22 1 22 23
M  V30 23 2 23 24
M  V30 24 1 23 25
M  V30 25 2 25 26
M  V30 26 1 26 27
M  V30 27 2 27 28
M  V30 28 1 28 29
M  V30 29 1 29 30
M  V30 30 1 29 31
M  V30 31 1 29 32
M  V30 32 1 28 33
M  V30 33 2 33 34
M  V30 34 2 21 35
M  V30 35 1 16 4
M  V30 36 1 35 17
M  V30 37 1 16 8
M  V30 38 1 34 25
M  V30 39 1 1 36
M  V30 40 1 1 37
M  V30 41 1 1 38
M  V30 42 1 2 39
M  V30 43 1 3 40
M  V30 44 1 6 41
M  V30 45 1 11 42
M  V30 46 1 11 43
M  V30 47 1 13 44
M  V30 48 1 14 45
M  V30 49 1 15 46
M  V30 50 1 18 47
M  V30 51 1 19 48
M  V30 52 1 20 49
M  V30 53 1 22 50
M  V30 54 1 26 51
M  V30 55 1 27 52
M  V30 56 1 34 53
M  V30 57 1 35 54
M  V30 END BOND
M  V30 END CTAB
M  END
>  <Dataset>  (814) 
ChEMBL_Kinases

>  <Ligand_Instance>  (814) 
nan

>  <PDB_ID>  (814) 
nan

>  <Standardized_SMILES>  (814) 
CC(Nc1ncnc2c(C(N)=O)cccc12)c1cccc(NC(=O)c2ccc(C(F)(F)F)nc2)c1

>  <Name>  (814) 
nan

>  <Pocket>  (814) 
nan

>  <ATP_Site>  (814) 
nan

>  <Peripheral>  (814) 
nan

>  <Num_H_Atoms_ProtBoundConf>  (814) 
nan

>  <Num_Resolved_Atoms>  (814) 
nan

>  <Num_Not_Resolved_Atoms>  (814) 
nan

$$$$
CHEMBL3675482
     RDKit          3D

  0  0  0  0  0  0  0  0  0  0999 V3000
M  V30 BEGIN CTAB
M  V30 COUNTS 43 45 0 0 0
M  V30 BEGIN ATOM
M  V30 1 N -0.079625 -4.804485 0.952130 0
M  V30 2 C 1.309361 -4.447701 1.162962 0
M  V30 3 C 1.452208 -3.031686 0.543601 0
M  V30 4 C 2.887559 -2.594291 0.728817 0
M  V30 5 C 3.109385 -1.258109 0.183024 0
M  V30 6 C 3.434855 -1.075647 -1.163318 0
M  V30 7 C 3.657150 0.231427 -1.582151 0
M  V30 8 C 3.558112 1.298091 -0.697269 0
M  V30 9 C 3.237216 1.075955 0.612269 0
M  V30 10 C 3.000596 -0.205360 1.104678 0
M  V30 11 N 0.477722 -2.168035 1.146747 0
M  V30 12 C -0.052082 -0.929414 0.629958 0
M  V30 13 N 0.281649 -0.433072 -0.570003 0
M  V30 14 C -0.215772 0.694461 -1.092137 0
M  V30 15 N -1.117128 1.433759 -0.424543 0
M  V30 16 C -1.489637 0.985495 0.784412 0
M  V30 17 C -2.412379 1.718645 1.502333 0
M  V30 18 C -2.939073 2.940463 0.902820 0
M  V30 19 N -3.890450 3.752581 1.621105 0
M  V30 20 O -2.579598 3.312854 -0.244491 0
M  V30 21 C -2.857723 1.344130 2.753317 0
M  V30 22 C -2.329660 0.166599 3.283437 0
M  V30 23 C -1.418701 -0.537701 2.550294 0
M  V30 24 C -0.976387 -0.175112 1.319669 0
M  V30 25 H -0.171644 -5.457585 0.142070 0
M  V30 26 H -0.570423 -5.096649 1.807453 0
M  V30 27 H 1.480579 -4.420625 2.254789 0
M  V30 28 H 1.986255 -5.150520 0.656640 0
M  V30 29 H 1.281174 -3.168593 -0.538970 0
M  V30 30 H 3.186538 -2.640974 1.798753 0
M  V30 31 H 3.499189 -3.300728 0.129789 0
M  V30 32 H 3.500006 -1.932766 -1.811192 0
M  V30 33 H 3.909349 0.395519 -2.615209 0
M  V30 34 H 3.728713 2.319421 -1.010809 0
M  V30 35 H 3.158667 1.906258 1.307738 0
M  V30 36 H 2.748751 -0.383554 2.131765 0
M  V30 37 H 0.144545 -2.511832 2.061959 0
M  V30 38 H 0.097795 1.043920 -2.075026 0
M  V30 39 H -4.910790 3.985423 1.503038 0
M  V30 40 H -3.770502 4.339312 2.490241 0
M  V30 41 H -3.585478 1.922310 3.319708 0
M  V30 42 H -2.701441 -0.097627 4.267955 0
M  V30 43 H -1.083916 -1.423939 3.060439 0
M  V30 END ATOM
M  V30 BEGIN BOND
M  V30 1 1 1 2
M  V30 2 1 2 3
M  V30 3 1 3 4
M  V30 4 1 4 5
M  V30 5 2 5 6
M  V30 6 1 6 7
M  V30 7 2 7 8
M  V30 8 1 8 9
M  V30 9 2 9 10
M  V30 10 1 3 11
M  V30 11 1 11 12
M  V30 12 2 12 13
M  V30 13 1 13 14
M  V30 14 2 14 15
M  V30 15 1 15 16
M  V30 16 2 16 17
M  V30 17 1 17 18
M  V30 18 1 18 19
M  V30 19 2 18 20
M  V30 20 1 17 21
M  V30 21 2 21 22
M  V30 22 1 22 23
M  V30 23 2 23 24
M  V30 24 1 10 5
M  V30 25 1 24 12
M  V30 26 1 24 16
M  V30 27 1 1 25
M  V30 28 1 1 26
M  V30 29 1 2 27
M  V30 30 1 2 28
M  V30 31 1 3 29
M  V30 32 1 4 30
M  V30 33 1 4 31
M  V30 34 1 6 32
M  V30 35 1 7 33
M  V30 36 1 8 34
M  V30 37 1 9 35
M  V30 38 1 10 36
M  V30 39 1 11 37
M  V30 40 1 14 38
M  V30 41 1 19 39
M  V30 42 1 19 40
M  V30 43 1 21 41
M  V30 44 1 22 42
M  V30 45 1 23 43
M  V30 END BOND
M  V30 END CTAB
M  END
>  <Dataset>  (815) 
ChEMBL_Kinases

>  <Ligand_Instance>  (815) 
nan

>  <PDB_ID>  (815) 
nan

>  <Standardized_SMILES>  (815) 
NCC(Cc1ccccc1)Nc1ncnc2c(C(N)=O)cccc12

>  <Name>  (815) 
nan

>  <Pocket>  (815) 
nan

>  <ATP_Site>  (815) 
nan

>  <Peripheral>  (815) 
nan

>  <Num_H_Atoms_ProtBoundConf>  (815) 
nan

>  <Num_Resolved_Atoms>  (815) 
nan

>  <Num_Not_Resolved_Atoms>  (815) 
nan

$$$$
CHEMBL3675481
     RDKit          3D

  0  0  0  0  0  0  0  0  0  0999 V3000
M  V30 BEGIN CTAB
M  V30 COUNTS 76 79 0 0 0
M  V30 BEGIN ATOM
M  V30 1 C 4.415461 -3.825006 9.695014 0
M  V30 2 O 4.820110 -4.194582 8.413066 0
M  V30 3 C 4.497032 -3.537938 7.232976 0
M  V30 4 C 4.946403 -3.981765 6.007734 0
M  V30 5 C 4.636184 -3.343212 4.827711 0
M  V30 6 C 3.834723 -2.194036 4.829114 0
M  V30 7 C 3.629141 -1.677673 3.489531 0
M  V30 8 O 4.074985 -2.169455 2.412526 0
M  V30 9 N 2.884594 -0.526360 3.193556 0
M  V30 10 C 2.564503 0.138349 1.980956 0
M  V30 11 C 3.379147 1.128234 1.470749 0
M  V30 12 C 3.015903 1.743020 0.287970 0
M  V30 13 C 1.841011 1.352539 -0.360765 0
M  V30 14 C 1.046323 0.342649 0.196150 0
M  V30 15 C -0.158729 0.123770 -0.704192 0
M  V30 16 C -0.807218 -1.096734 -0.164309 0
M  V30 17 N -1.985297 -1.574554 -0.826253 0
M  V30 18 C -1.728961 -2.584800 -1.866155 0
M  V30 19 C -3.322945 -1.181222 -0.544610 0
M  V30 20 O -4.422107 -1.508299 -1.031573 0
M  V30 21 O -3.451420 -0.258371 0.460078 0
M  V30 22 C -4.668873 0.276049 0.910920 0
M  V30 23 C -5.615378 -0.758766 1.436900 0
M  V30 24 C -5.370104 1.077730 -0.186429 0
M  V30 25 C -4.397615 1.263412 2.041494 0
M  V30 26 N 0.288441 0.079296 -2.052052 0
M  V30 27 C -0.593258 0.200483 -3.180403 0
M  V30 28 N -1.915722 0.406136 -3.049544 0
M  V30 29 C -2.774261 0.548887 -4.071677 0
M  V30 30 N -2.355844 0.494104 -5.347947 0
M  V30 31 C -1.051192 0.291777 -5.557475 0
M  V30 32 C -0.616918 0.235446 -6.862765 0
M  V30 33 C -1.562769 0.393155 -7.960359 0
M  V30 34 N -2.940960 0.606808 -7.690568 0
M  V30 35 O -1.231591 0.351833 -9.172570 0
M  V30 36 C 0.723309 0.029200 -7.153603 0
M  V30 37 C 1.595075 -0.115907 -6.083185 0
M  V30 38 C 1.125584 -0.054095 -4.792829 0
M  V30 39 C -0.183272 0.147329 -4.497090 0
M  V30 40 C 1.401316 -0.264422 1.359894 0
M  V30 41 C 3.393572 -1.762754 6.058131 0
M  V30 42 F 2.629658 -0.659393 6.007113 0
M  V30 43 C 3.708548 -2.406961 7.232510 0
M  V30 44 H 3.394482 -3.381437 9.613740 0
M  V30 45 H 5.105825 -3.121505 10.165681 0
M  V30 46 H 4.300975 -4.772059 10.278116 0
M  V30 47 H 5.561738 -4.867591 6.020740 0
M  V30 48 H 5.065100 -3.810281 3.926496 0
M  V30 49 H 2.418303 0.053071 3.920306 0
M  V30 50 H 4.260653 1.347862 2.056758 0
M  V30 51 H 3.691424 2.510973 -0.066102 0
M  V30 52 H 1.676113 1.912800 -1.273980 0
M  V30 53 H -0.860297 0.984876 -0.604179 0
M  V30 54 H -0.038599 -1.916110 -0.049589 0
M  V30 55 H -1.153130 -0.828405 0.881491 0
M  V30 56 H -2.407647 -2.427013 -2.738065 0
M  V30 57 H -1.867859 -3.617407 -1.486678 0
M  V30 58 H -0.711359 -2.542753 -2.265302 0
M  V30 59 H -5.095406 -1.619458 1.898896 0
M  V30 60 H -6.319707 -1.112526 0.647325 0
M  V30 61 H -6.269242 -0.266531 2.212186 0
M  V30 62 H -6.440238 0.837046 -0.189372 0
M  V30 63 H -4.930427 0.840276 -1.196447 0
M  V30 64 H -5.201433 2.168199 -0.060707 0
M  V30 65 H -3.790955 2.091161 1.633493 0
M  V30 66 H -3.806384 0.723967 2.803998 0
M  V30 67 H -5.350241 1.646165 2.443231 0
M  V30 68 H 1.307748 -0.049054 -2.201509 0
M  V30 69 H -3.800562 0.707067 -3.758232 0
M  V30 70 H -3.616923 1.268735 -7.210008 0
M  V30 71 H -3.708408 1.162085 -7.267951 0
M  V30 72 H 0.989726 -0.003735 -8.192608 0
M  V30 73 H 2.636613 -0.276391 -6.368851 0
M  V30 74 H 1.879041 -0.178520 -4.060895 0
M  V30 75 H 0.704957 -1.010419 1.660212 0
M  V30 76 H 3.312132 -1.986822 8.127520 0
M  V30 END ATOM
M  V30 BEGIN BOND
M  V30 1 1 1 2
M  V30 2 1 2 3
M  V30 3 2 3 4
M  V30 4 1 4 5
M  V30 5 2 5 6
M  V30 6 1 6 7
M  V30 7 2 7 8
M  V30 8 1 7 9
M  V30 9 1 9 10
M  V30 10 2 10 11
M  V30 11 1 11 12
M  V30 12 2 12 13
M  V30 13 1 13 14
M  V30 14 1 14 15
M  V30 15 1 15 16
M  V30 16 1 16 17
M  V30 17 1 17 18
M  V30 18 1 17 19
M  V30 19 2 19 20
M  V30 20 1 19 21
M  V30 21 1 21 22
M  V30 22 1 22 23
M  V30 23 1 22 24
M  V30 24 1 22 25
M  V30 25 1 15 26
M  V30 26 1 26 27
M  V30 27 2 27 28
M  V30 28 1 28 29
M  V30 29 2 29 30
M  V30 30 1 30 31
M  V30 31 2 31 32
M  V30 32 1 32 33
M  V30 33 1 33 34
M  V30 34 2 33 35
M  V30 35 1 32 36
M  V30 36 2 36 37
M  V30 37 1 37 38
M  V30 38 2 38 39
M  V30 39 2 14 40
M  V30 40 1 6 41
M  V30 41 1 41 42
M  V30 42 2 41 43
M  V30 43 1 43 3
M  V30 44 1 40 10
M  V30 45 1 39 27
M  V30 46 1 39 31
M  V30 47 1 1 44
M  V30 48 1 1 45
M  V30 49 1 1 46
M  V30 50 1 4 47
M  V30 51 1 5 48
M  V30 52 1 9 49
M  V30 53 1 11 50
M  V30 54 1 12 51
M  V30 55 1 13 52
M  V30 56 1 15 53
M  V30 57 1 16 54
M  V30 58 1 16 55
M  V30 59 1 18 56
M  V30 60 1 18 57
M  V30 61 1 18 58
M  V30 62 1 23 59
M  V30 63 1 23 60
M  V30 64 1 23 61
M  V30 65 1 24 62
M  V30 66 1 24 63
M  V30 67 1 24 64
M  V30 68 1 25 65
M  V30 69 1 25 66
M  V30 70 1 25 67
M  V30 71 1 26 68
M  V30 72 1 29 69
M  V30 73 1 34 70
M  V30 74 1 34 71
M  V30 75 1 36 72
M  V30 76 1 37 73
M  V30 77 1 38 74
M  V30 78 1 40 75
M  V30 79 1 43 76
M  V30 END BOND
M  V30 END CTAB
M  END
>  <Dataset>  (816) 
ChEMBL_Kinases

>  <Ligand_Instance>  (816) 
nan

>  <PDB_ID>  (816) 
nan

>  <Standardized_SMILES>  (816) 
COc1ccc(C(=O)Nc2cccc(C(CN(C)C(=O)OC(C)(C)C)Nc3ncnc4c(C(N)=O)cccc34)c2)c(F)c1

>  <Name>  (816) 
nan

>  <Pocket>  (816) 
nan

>  <ATP_Site>  (816) 
nan

>  <Peripheral>  (816) 
nan

>  <Num_H_Atoms_ProtBoundConf>  (816) 
nan

>  <Num_Resolved_Atoms>  (816) 
nan

>  <Num_Not_Resolved_Atoms>  (816) 
nan

$$$$
CHEMBL3675479
     RDKit          3D

  0  0  0  0  0  0  0  0  0  0999 V3000
M  V30 BEGIN CTAB
M  V30 COUNTS 46 48 0 0 0
M  V30 BEGIN ATOM
M  V30 1 C 0.038932 -3.468022 3.057653 0
M  V30 2 N -1.334249 -3.183067 2.763840 0
M  V30 3 C -2.164860 -4.075624 3.544410 0
M  V30 4 C -1.666753 -1.829407 2.949664 0
M  V30 5 C -1.145374 -0.802894 2.028491 0
M  V30 6 N 0.274593 -0.625589 1.931963 0
M  V30 7 C 0.642742 0.359564 0.934441 0
M  V30 8 N -0.262859 1.026214 0.191398 0
M  V30 9 C 0.025812 1.944033 -0.739870 0
M  V30 10 N 1.315567 2.240021 -0.968459 0
M  V30 11 C 2.271256 1.612722 -0.263390 0
M  V30 12 C 3.610818 1.863602 -0.445296 0
M  V30 13 C 3.931384 2.855696 -1.451030 0
M  V30 14 N 3.023952 3.598513 -2.256100 0
M  V30 15 O 4.616683 3.591814 -2.176594 0
M  V30 16 C 4.661816 1.275994 0.222339 0
M  V30 17 C 4.321433 0.326772 1.183118 0
M  V30 18 C 2.977212 0.065292 1.375715 0
M  V30 19 C 1.967349 0.668922 0.693672 0
M  V30 20 C -1.764882 -0.950622 0.666370 0
M  V30 21 C -2.904861 -0.344943 0.178099 0
M  V30 22 C -3.283016 -0.633233 -1.110303 0
M  V30 23 C -2.549858 -1.502840 -1.902796 0
M  V30 24 F -3.040884 -1.693071 -3.154048 0
M  V30 25 C -1.414316 -2.105110 -1.414884 0
M  V30 26 C -1.024729 -1.827296 -0.130817 0
M  V30 27 H 0.158029 -4.510727 3.479560 0
M  V30 28 H 0.724720 -3.376814 2.200964 0
M  V30 29 H 0.395305 -2.819412 3.877424 0
M  V30 30 H -2.929535 -3.450522 4.058799 0
M  V30 31 H -2.684730 -4.824247 2.916584 0
M  V30 32 H -1.549609 -4.632079 4.280479 0
M  V30 33 H -2.785644 -1.740131 2.926142 0
M  V30 34 H -1.389007 -1.488870 4.001536 0
M  V30 35 H -1.588221 0.184167 2.390780 0
M  V30 36 H 0.999607 -1.084867 2.466423 0
M  V30 37 H -0.833323 2.386003 -1.246085 0
M  V30 38 H 2.081734 4.075238 -2.260248 0
M  V30 39 H 2.092144 4.074598 -2.273239 0
M  V30 40 H 5.671993 1.567345 -0.020447 0
M  V30 41 H 5.135055 -0.151781 1.725711 0
M  V30 42 H 2.830817 -0.682677 2.140184 0
M  V30 43 H -3.383153 0.308461 0.891425 0
M  V30 44 H -4.179686 -0.142175 -1.457997 0
M  V30 45 H -0.884942 -2.777568 -2.088483 0
M  V30 46 H -0.116163 -2.347850 0.170804 0
M  V30 END ATOM
M  V30 BEGIN BOND
M  V30 1 1 1 2
M  V30 2 1 2 3
M  V30 3 1 2 4
M  V30 4 1 4 5
M  V30 5 1 5 6
M  V30 6 1 6 7
M  V30 7 2 7 8
M  V30 8 1 8 9
M  V30 9 2 9 10
M  V30 10 1 10 11
M  V30 11 2 11 12
M  V30 12 1 12 13
M  V30 13 1 13 14
M  V30 14 2 13 15
M  V30 15 1 12 16
M  V30 16 2 16 17
M  V30 17 1 17 18
M  V30 18 2 18 19
M  V30 19 1 5 20
M  V30 20 2 20 21
M  V30 21 1 21 22
M  V30 22 2 22 23
M  V30 23 1 23 24
M  V30 24 1 23 25
M  V30 25 2 25 26
M  V30 26 1 19 7
M  V30 27 1 26 20
M  V30 28 1 19 11
M  V30 29 1 1 27
M  V30 30 1 1 28
M  V30 31 1 1 29
M  V30 32 1 3 30
M  V30 33 1 3 31
M  V30 34 1 3 32
M  V30 35 1 4 33
M  V30 36 1 4 34
M  V30 37 1 5 35
M  V30 38 1 6 36
M  V30 39 1 9 37
M  V30 40 1 14 38
M  V30 41 1 14 39
M  V30 42 1 16 40
M  V30 43 1 17 41
M  V30 44 1 18 42
M  V30 45 1 21 43
M  V30 46 1 22 44
M  V30 47 1 25 45
M  V30 48 1 26 46
M  V30 END BOND
M  V30 END CTAB
M  END
>  <Dataset>  (817) 
ChEMBL_Kinases

>  <Ligand_Instance>  (817) 
nan

>  <PDB_ID>  (817) 
nan

>  <Standardized_SMILES>  (817) 
CN(C)CC(Nc1ncnc2c(C(N)=O)cccc12)c1ccc(F)cc1

>  <Name>  (817) 
nan

>  <Pocket>  (817) 
nan

>  <ATP_Site>  (817) 
nan

>  <Peripheral>  (817) 
nan

>  <Num_H_Atoms_ProtBoundConf>  (817) 
nan

>  <Num_Resolved_Atoms>  (817) 
nan

>  <Num_Not_Resolved_Atoms>  (817) 
nan

$$$$
CHEMBL3751934
     RDKit          3D

  0  0  0  0  0  0  0  0  0  0999 V3000
M  V30 BEGIN CTAB
M  V30 COUNTS 34 36 0 0 0
M  V30 BEGIN ATOM
M  V30 1 C -2.342608 -5.722070 2.684164 0
M  V30 2 O -2.182079 -4.810947 1.585532 0
M  V30 3 C -1.399682 -3.668835 1.845961 0
M  V30 4 C -0.811911 -3.414968 3.066966 0
M  V30 5 C -0.066753 -2.255746 3.193591 0
M  V30 6 C 0.042803 -1.432725 2.104827 0
M  V30 7 C -0.535299 -1.676542 0.895419 0
M  V30 8 C -0.473987 -0.914098 -0.240359 0
M  V30 9 C 0.094691 0.346020 -0.658611 0
M  V30 10 C 0.014993 0.699948 -2.074485 0
M  V30 11 N -0.052678 0.965235 -3.222368 0
M  V30 12 C 0.730898 1.294178 -0.021945 0
M  V30 13 C 1.309153 2.564325 -0.419204 0
M  V30 14 C 2.560097 2.970133 0.049520 0
M  V30 15 C 3.155171 4.167600 -0.286598 0
M  V30 16 C 2.438660 4.981109 -1.137306 0
M  V30 17 N 1.230682 4.631613 -1.613158 0
M  V30 18 C 0.665036 3.442624 -1.265103 0
M  V30 19 C -1.241629 -1.666573 -1.138378 0
M  V30 20 N -1.687046 -2.763758 -0.519067 0
M  V30 21 C -1.287989 -2.836660 0.746981 0
M  V30 22 H -1.324480 -6.152150 2.892272 0
M  V30 23 H -2.677649 -5.142002 3.592432 0
M  V30 24 H -3.094569 -6.484059 2.494119 0
M  V30 25 H -0.948538 -4.118051 3.871381 0
M  V30 26 H 0.412809 -2.030851 4.159382 0
M  V30 27 H 0.637659 -0.558862 2.264640 0
M  V30 28 H 0.870417 1.156106 1.028194 0
M  V30 29 H 3.084175 2.301226 0.713402 0
M  V30 30 H 4.130983 4.447150 0.098749 0
M  V30 31 H 2.864433 5.949252 -1.440092 0
M  V30 32 H -0.309557 3.230780 -1.676889 0
M  V30 33 H -1.518671 -1.514114 -2.194650 0
M  V30 34 H -2.289140 -3.527772 -0.921078 0
M  V30 END ATOM
M  V30 BEGIN BOND
M  V30 1 1 1 2
M  V30 2 1 2 3
M  V30 3 2 3 4
M  V30 4 1 4 5
M  V30 5 2 5 6
M  V30 6 1 6 7
M  V30 7 1 7 8
M  V30 8 1 8 9
M  V30 9 1 9 10
M  V30 10 3 10 11
M  V30 11 2 9 12
M  V30 12 1 12 13
M  V30 13 2 13 14
M  V30 14 1 14 15
M  V30 15 2 15 16
M  V30 16 1 16 17
M  V30 17 2 17 18
M  V30 18 2 8 19
M  V30 19 1 19 20
M  V30 20 1 20 21
M  V30 21 1 21 3
M  V30 22 2 21 7
M  V30 23 1 18 13
M  V30 24 1 1 22
M  V30 25 1 1 23
M  V30 26 1 1 24
M  V30 27 1 4 25
M  V30 28 1 5 26
M  V30 29 1 6 27
M  V30 30 1 12 28
M  V30 31 1 14 29
M  V30 32 1 15 30
M  V30 33 1 16 31
M  V30 34 1 18 32
M  V30 35 1 19 33
M  V30 36 1 20 34
M  V30 END BOND
M  V30 END CTAB
M  END
>  <Dataset>  (818) 
ChEMBL_Kinases

>  <Ligand_Instance>  (818) 
nan

>  <PDB_ID>  (818) 
nan

>  <Standardized_SMILES>  (818) 
COc1cccc2c(/C(C#N)=C/c3cccnc3)c[nH]c12

>  <Name>  (818) 
nan

>  <Pocket>  (818) 
nan

>  <ATP_Site>  (818) 
nan

>  <Peripheral>  (818) 
nan

>  <Num_H_Atoms_ProtBoundConf>  (818) 
nan

>  <Num_Resolved_Atoms>  (818) 
nan

>  <Num_Not_Resolved_Atoms>  (818) 
nan

$$$$
CHEMBL3675475
     RDKit          3D

  0  0  0  0  0  0  0  0  0  0999 V3000
M  V30 BEGIN CTAB
M  V30 COUNTS 56 59 0 0 0
M  V30 BEGIN ATOM
M  V30 1 C -4.059727 -0.577383 5.106498 0
M  V30 2 O -3.082557 -0.764012 4.102883 0
M  V30 3 C -3.440861 0.072920 3.068266 0
M  V30 4 C -2.474207 -0.022093 1.908174 0
M  V30 5 N -1.131234 0.319791 2.201033 0
M  V30 6 C 0.206120 0.658575 2.494224 0
M  V30 7 N 1.056272 0.122646 3.383026 0
M  V30 8 C 2.306592 0.545537 3.557821 0
M  V30 9 N 2.680873 1.557640 2.781702 0
M  V30 10 C 1.949053 2.177847 1.867819 0
M  V30 11 C 2.547603 3.200858 1.183146 0
M  V30 12 C 3.906828 3.672257 1.367290 0
M  V30 13 N 4.626374 2.973091 2.366482 0
M  V30 14 O 4.408516 4.602846 0.715923 0
M  V30 15 C 1.780688 3.843805 0.231203 0
M  V30 16 C 0.480128 3.445053 0.010973 0
M  V30 17 C -0.052082 2.408247 0.738796 0
M  V30 18 C 0.669533 1.714970 1.717264 0
M  V30 19 C -2.557513 -1.377144 1.245999 0
M  V30 20 C -3.438461 -2.356002 1.603024 0
M  V30 21 C -3.406681 -3.548618 0.916744 0
M  V30 22 C -2.485279 -3.694196 -0.097087 0
M  V30 23 C -1.587930 -2.752768 -0.491053 0
M  V30 24 N -0.620200 -2.860453 -1.517739 0
M  V30 25 C -0.313904 -3.947795 -2.357626 0
M  V30 26 O -0.974674 -5.010838 -2.210385 0
M  V30 27 C 0.716784 -3.931717 -3.388034 0
M  V30 28 C 1.509898 -2.851737 -3.712089 0
M  V30 29 C 2.478812 -2.876282 -4.689816 0
M  V30 30 C 2.703672 -4.033817 -5.415336 0
M  V30 31 C 1.931375 -5.137917 -5.122634 0
M  V30 32 C 0.976395 -5.058296 -4.135030 0
M  V30 33 C -1.653723 -1.572676 0.221900 0
M  V30 34 H -4.048871 0.475209 5.419104 0
M  V30 35 H -5.043607 -0.763561 4.626054 0
M  V30 36 H -3.834843 -1.303038 5.899030 0
M  V30 37 H -4.442962 -0.202119 2.715732 0
M  V30 38 H -3.441743 1.149473 3.372511 0
M  V30 39 H -2.836043 0.669320 1.074390 0
M  V30 40 H -1.221303 -0.486208 2.903440 0
M  V30 41 H 2.889117 0.037758 4.300916 0
M  V30 42 H 5.677529 3.137923 2.408507 0
M  V30 43 H 5.444958 2.662741 2.921829 0
M  V30 44 H 2.249982 4.659012 -0.317704 0
M  V30 45 H -0.133795 3.933533 -0.727608 0
M  V30 46 H -1.069299 2.101088 0.562081 0
M  V30 47 H -4.131594 -2.174793 2.407240 0
M  V30 48 H -4.095558 -4.338613 1.181562 0
M  V30 49 H -2.510632 -4.645128 -0.592510 0
M  V30 50 H -0.010395 -2.042401 -1.732542 0
M  V30 51 H 1.376689 -1.923915 -3.177295 0
M  V30 52 H 3.067212 -1.972958 -4.886737 0
M  V30 53 H 3.482594 -3.961530 -6.161318 0
M  V30 54 H 2.119129 -6.023743 -5.693128 0
M  V30 55 H 0.433351 -5.970768 -3.987551 0
M  V30 56 H -0.952894 -0.765487 -0.046521 0
M  V30 END ATOM
M  V30 BEGIN BOND
M  V30 1 1 1 2
M  V30 2 1 2 3
M  V30 3 1 3 4
M  V30 4 1 4 5
M  V30 5 1 5 6
M  V30 6 2 6 7
M  V30 7 1 7 8
M  V30 8 2 8 9
M  V30 9 1 9 10
M  V30 10 2 10 11
M  V30 11 1 11 12
M  V30 12 1 12 13
M  V30 13 2 12 14
M  V30 14 1 11 15
M  V30 15 2 15 16
M  V30 16 1 16 17
M  V30 17 2 17 18
M  V30 18 1 4 19
M  V30 19 2 19 20
M  V30 20 1 20 21
M  V30 21 2 21 22
M  V30 22 1 22 23
M  V30 23 1 23 24
M  V30 24 1 24 25
M  V30 25 2 25 26
M  V30 26 1 25 27
M  V30 27 2 27 28
M  V30 28 1 28 29
M  V30 29 2 29 30
M  V30 30 1 30 31
M  V30 31 2 31 32
M  V30 32 2 23 33
M  V30 33 1 18 6
M  V30 34 1 33 19
M  V30 35 1 18 10
M  V30 36 1 32 27
M  V30 37 1 1 34
M  V30 38 1 1 35
M  V30 39 1 1 36
M  V30 40 1 3 37
M  V30 41 1 3 38
M  V30 42 1 4 39
M  V30 43 1 5 40
M  V30 44 1 8 41
M  V30 45 1 13 42
M  V30 46 1 13 43
M  V30 47 1 15 44
M  V30 48 1 16 45
M  V30 49 1 17 46
M  V30 50 1 20 47
M  V30 51 1 21 48
M  V30 52 1 22 49
M  V30 53 1 24 50
M  V30 54 1 28 51
M  V30 55 1 29 52
M  V30 56 1 30 53
M  V30 57 1 31 54
M  V30 58 1 32 55
M  V30 59 1 33 56
M  V30 END BOND
M  V30 END CTAB
M  END
>  <Dataset>  (819) 
ChEMBL_Kinases

>  <Ligand_Instance>  (819) 
nan

>  <PDB_ID>  (819) 
nan

>  <Standardized_SMILES>  (819) 
COCC(Nc1ncnc2c(C(N)=O)cccc12)c1cccc(NC(=O)c2ccccc2)c1

>  <Name>  (819) 
nan

>  <Pocket>  (819) 
nan

>  <ATP_Site>  (819) 
nan

>  <Peripheral>  (819) 
nan

>  <Num_H_Atoms_ProtBoundConf>  (819) 
nan

>  <Num_Resolved_Atoms>  (819) 
nan

>  <Num_Not_Resolved_Atoms>  (819) 
nan

$$$$
CHEMBL3675474
     RDKit          3D

  0  0  0  0  0  0  0  0  0  0999 V3000
M  V30 BEGIN CTAB
M  V30 COUNTS 52 55 0 0 0
M  V30 BEGIN ATOM
M  V30 1 C 1.712457 -1.587436 1.228503 0
M  V30 2 C 0.676648 -0.765393 1.963074 0
M  V30 3 N 0.793946 0.650477 1.603760 0
M  V30 4 C 2.001711 1.350273 1.873974 0
M  V30 5 N 3.032265 0.728884 2.451635 0
M  V30 6 C 4.209503 1.300716 2.745780 0
M  V30 7 N 4.399248 2.589318 2.451853 0
M  V30 8 C 3.402965 3.295470 1.863425 0
M  V30 9 C 3.666034 4.641496 1.582990 0
M  V30 10 C 4.971663 5.242637 1.918692 0
M  V30 11 N 5.938588 4.417726 2.544296 0
M  V30 12 O 5.017870 6.470986 1.572089 0
M  V30 13 C 2.611281 5.285950 0.990573 0
M  V30 14 C 1.397304 4.723974 0.679253 0
M  V30 15 C 1.211338 3.396574 0.984321 0
M  V30 16 C 2.209500 2.679528 1.575458 0
M  V30 17 C -0.713976 -1.212593 1.700097 0
M  V30 18 C -1.603466 -0.244584 2.186794 0
M  V30 19 C -2.987270 -0.422148 2.064062 0
M  V30 20 C -3.455883 -1.566137 1.456198 0
M  V30 21 C -2.596816 -2.528379 0.972327 0
M  V30 22 N -2.900585 -3.758582 0.325897 0
M  V30 23 C -3.035183 -3.770035 -1.098279 0
M  V30 24 O -2.884363 -2.700356 -1.757569 0
M  V30 25 C -3.345132 -4.973636 -1.863166 0
M  V30 26 C -3.453231 -4.865077 -3.231000 0
M  V30 27 C -3.747277 -6.013309 -3.960433 0
M  V30 28 C -3.933493 -7.246647 -3.373065 0
M  V30 29 Br -4.333955 -8.832812 -4.350198 0
M  V30 30 C -3.824942 -7.362627 -1.984992 0
M  V30 31 F -4.004417 -8.565280 -1.394004 0
M  V30 32 C -3.533969 -6.213469 -1.290568 0
M  V30 33 C -1.237864 -2.337919 1.101030 0
M  V30 34 H 1.452358 -2.666219 1.282611 0
M  V30 35 H 2.672493 -1.508933 1.817113 0
M  V30 36 H 1.865085 -1.245280 0.175198 0
M  V30 37 H 0.876548 -0.910626 3.048947 0
M  V30 38 H -0.038798 1.083944 1.154507 0
M  V30 39 H 5.044693 0.812246 3.209987 0
M  V30 40 H 5.588613 4.819030 3.459913 0
M  V30 41 H 6.282357 4.021244 1.619286 0
M  V30 42 H 2.769095 6.343389 0.751459 0
M  V30 43 H 0.648420 5.360761 0.207543 0
M  V30 44 H 0.263945 2.981500 0.734324 0
M  V30 45 H -1.376600 0.701194 2.685984 0
M  V30 46 H -3.721772 0.281524 2.415943 0
M  V30 47 H -4.504910 -1.835976 1.292811 0
M  V30 48 H -3.027866 -4.647871 0.856531 0
M  V30 49 H -3.321898 -3.936074 -3.765310 0
M  V30 50 H -3.854739 -6.035159 -5.046163 0
M  V30 51 H -3.454538 -6.321756 -0.219719 0
M  V30 52 H -0.458649 -3.001074 0.769921 0
M  V30 END ATOM
M  V30 BEGIN BOND
M  V30 1 1 1 2
M  V30 2 1 2 3
M  V30 3 1 3 4
M  V30 4 2 4 5
M  V30 5 1 5 6
M  V30 6 2 6 7
M  V30 7 1 7 8
M  V30 8 2 8 9
M  V30 9 1 9 10
M  V30 10 1 10 11
M  V30 11 2 10 12
M  V30 12 1 9 13
M  V30 13 2 13 14
M  V30 14 1 14 15
M  V30 15 2 15 16
M  V30 16 1 2 17
M  V30 17 2 17 18
M  V30 18 1 18 19
M  V30 19 2 19 20
M  V30 20 1 20 21
M  V30 21 1 21 22
M  V30 22 1 22 23
M  V30 23 2 23 24
M  V30 24 1 23 25
M  V30 25 2 25 26
M  V30 26 1 26 27
M  V30 27 2 27 28
M  V30 28 1 28 29
M  V30 29 1 28 30
M  V30 30 1 30 31
M  V30 31 2 30 32
M  V30 32 2 21 33
M  V30 33 1 16 4
M  V30 34 1 33 17
M  V30 35 1 16 8
M  V30 36 1 32 25
M  V30 37 1 1 34
M  V30 38 1 1 35
M  V30 39 1 1 36
M  V30 40 1 2 37
M  V30 41 1 3 38
M  V30 42 1 6 39
M  V30 43 1 11 40
M  V30 44 1 11 41
M  V30 45 1 13 42
M  V30 46 1 14 43
M  V30 47 1 15 44
M  V30 48 1 18 45
M  V30 49 1 19 46
M  V30 50 1 20 47
M  V30 51 1 22 48
M  V30 52 1 26 49
M  V30 53 1 27 50
M  V30 54 1 32 51
M  V30 55 1 33 52
M  V30 END BOND
M  V30 END CTAB
M  END
>  <Dataset>  (820) 
ChEMBL_Kinases

>  <Ligand_Instance>  (820) 
nan

>  <PDB_ID>  (820) 
nan

>  <Standardized_SMILES>  (820) 
CC(Nc1ncnc2c(C(N)=O)cccc12)c1cccc(NC(=O)c2ccc(Br)c(F)c2)c1

>  <Name>  (820) 
nan

>  <Pocket>  (820) 
nan

>  <ATP_Site>  (820) 
nan

>  <Peripheral>  (820) 
nan

>  <Num_H_Atoms_ProtBoundConf>  (820) 
nan

>  <Num_Resolved_Atoms>  (820) 
nan

>  <Num_Not_Resolved_Atoms>  (820) 
nan

$$$$
CHEMBL4211744
     RDKit          3D

  0  0  0  0  0  0  0  0  0  0999 V3000
M  V30 BEGIN CTAB
M  V30 COUNTS 83 89 0 0 0
M  V30 BEGIN ATOM
M  V30 1 C 0.269751 -3.079325 -3.643319 0
M  V30 2 S 0.630235 -3.096479 -1.890646 0
M  V30 3 C 1.533726 -1.676874 -1.286614 0 CFG=1
M  V30 4 C 1.766903 -1.804764 0.167955 0
M  V30 5 O 2.965493 -1.809210 0.609913 0
M  V30 6 N 0.631787 -1.918218 1.016756 0
M  V30 7 C 0.908444 -2.040173 2.425636 0
M  V30 8 C 1.017236 -0.917728 3.256042 0
M  V30 9 C 1.286534 -1.135821 4.595853 0
M  V30 10 C 1.439695 -2.409911 5.080963 0
M  V30 11 N 1.703211 -2.836948 6.335141 0
M  V30 12 N 1.762352 -4.170799 6.319655 0
M  V30 13 C 1.539572 -4.620496 5.067046 0
M  V30 14 C 1.527434 -6.023546 4.664896 0
M  V30 15 C 2.447545 -7.022677 5.002372 0
M  V30 16 C 2.283372 -8.293759 4.543654 0
M  V30 17 C 1.237351 -8.671910 3.743365 0
M  V30 18 F 1.127566 -9.959530 3.315442 0
M  V30 19 C 0.315167 -7.700071 3.396816 0
M  V30 20 C 0.463614 -6.401996 3.852821 0
M  V30 21 C 1.335222 -3.517126 4.276382 0
M  V30 22 C 1.068869 -3.330715 2.943878 0
M  V30 23 C 2.845135 -1.558568 -2.054071 0
M  V30 24 C 2.922562 -0.111785 -2.497900 0
M  V30 25 N 2.013245 0.533215 -1.571143 0
M  V30 26 C 1.682227 1.877747 -1.976920 0
M  V30 27 C 0.785051 2.447964 -0.940912 0
M  V30 28 O 0.376926 1.880174 0.132291 0
M  V30 29 N 0.463905 3.771024 -1.387867 0
M  V30 30 C 0.843530 4.566163 -2.543716 0
M  V30 31 C -0.333103 4.941406 -3.416563 0
M  V30 32 C -1.546226 5.127892 -2.578673 0
M  V30 33 C -2.482761 4.000996 -2.545483 0
M  V30 34 C -3.819554 4.219917 -2.237925 0
M  V30 35 C -4.759305 3.183409 -2.207127 0
M  V30 36 C -4.398765 1.887906 -2.483070 0
M  V30 37 C -5.327013 0.775551 -2.465184 0
M  V30 38 N -6.653642 0.880587 -2.171938 0
M  V30 39 C -7.488625 -0.172969 -2.163027 0
M  V30 40 C -7.016918 -1.419864 -2.457076 0
M  V30 41 C -5.689522 -1.561413 -2.756434 0
M  V30 42 N -4.918773 -0.462635 -2.744968 0
M  V30 43 C -3.069004 1.639613 -2.794411 0
M  V30 44 C -2.179939 2.686548 -2.813193 0
M  V30 45 C -1.122539 5.559026 -1.174748 0
M  V30 46 C -0.442682 4.420629 -0.488275 0
M  V30 47 C 0.869987 -0.360726 -1.640076 0
M  V30 48 H -0.833267 -2.974700 -3.797374 0
M  V30 49 H 0.520298 -4.106345 -4.033860 0
M  V30 50 H 0.871574 -2.359316 -4.216077 0
M  V30 51 H -0.336986 -1.913455 0.634246 0
M  V30 52 H 0.872321 0.020150 2.741061 0
M  V30 53 H 1.356372 -0.217283 5.179625 0
M  V30 54 H 1.834981 -2.193469 7.159788 0
M  V30 55 H 3.246142 -6.634126 5.639825 0
M  V30 56 H 3.050462 -9.014404 4.856745 0
M  V30 57 H -0.495965 -8.040606 2.763931 0
M  V30 58 H -0.338627 -5.766320 3.496252 0
M  V30 59 H 0.985642 -4.185820 2.289142 0
M  V30 60 H 3.683465 -1.842438 -1.399005 0
M  V30 61 H 2.775080 -2.176863 -2.973849 0
M  V30 62 H 3.925574 0.278434 -2.313005 0
M  V30 63 H 2.627376 0.040903 -3.550853 0
M  V30 64 H 2.617066 2.467128 -1.962642 0
M  V30 65 H 1.238543 1.923533 -2.990463 0
M  V30 66 H 1.362156 5.472742 -2.175187 0
M  V30 67 H 1.613273 4.020565 -3.145956 0
M  V30 68 H -0.069953 5.941140 -3.864042 0
M  V30 69 H -0.479301 4.268729 -4.281537 0
M  V30 70 H -2.168113 6.019892 -2.923129 0
M  V30 71 H -4.151461 5.227053 -2.013234 0
M  V30 72 H -5.793232 3.396881 -1.962697 0
M  V30 73 H -8.536862 -0.081627 -1.929747 0
M  V30 74 H -7.588832 -2.347776 -2.482196 0
M  V30 75 H -5.130502 -2.470892 -3.016567 0
M  V30 76 H -2.777806 0.618664 -3.014326 0
M  V30 77 H -1.180979 2.404734 -3.074393 0
M  V30 78 H -2.067809 5.852429 -0.659894 0
M  V30 79 H -0.427106 6.420193 -1.286854 0
M  V30 80 H 0.162048 4.780079 0.395311 0
M  V30 81 H -1.208171 3.728379 -0.060738 0
M  V30 82 H 0.504872 -0.467442 -2.697845 0
M  V30 83 H 0.047860 -0.107721 -0.967914 0
M  V30 END ATOM
M  V30 BEGIN BOND
M  V30 1 1 1 2
M  V30 2 1 3 2 CFG=3
M  V30 3 1 3 4
M  V30 4 2 4 5
M  V30 5 1 4 6
M  V30 6 1 6 7
M  V30 7 2 7 8
M  V30 8 1 8 9
M  V30 9 2 9 10
M  V30 10 1 10 11
M  V30 11 1 11 12
M  V30 12 2 12 13
M  V30 13 1 13 14
M  V30 14 2 14 15
M  V30 15 1 15 16
M  V30 16 2 16 17
M  V30 17 1 17 18
M  V30 18 1 17 19
M  V30 19 2 19 20
M  V30 20 1 13 21
M  V30 21 2 21 22
M  V30 22 1 3 23
M  V30 23 1 23 24
M  V30 24 1 24 25
M  V30 25 1 25 26
M  V30 26 1 26 27
M  V30 27 2 27 28
M  V30 28 1 27 29
M  V30 29 1 29 30
M  V30 30 1 30 31
M  V30 31 1 31 32
M  V30 32 1 32 33
M  V30 33 2 33 34
M  V30 34 1 34 35
M  V30 35 2 35 36
M  V30 36 1 36 37
M  V30 37 2 37 38
M  V30 38 1 38 39
M  V30 39 2 39 40
M  V30 40 1 40 41
M  V30 41 2 41 42
M  V30 42 1 36 43
M  V30 43 2 43 44
M  V30 44 1 32 45
M  V30 45 1 45 46
M  V30 46 1 25 47
M  V30 47 1 47 3
M  V30 48 1 22 7
M  V30 49 1 46 29
M  V30 50 1 21 10
M  V30 51 1 44 33
M  V30 52 1 20 14
M  V30 53 1 42 37
M  V30 54 1 1 48
M  V30 55 1 1 49
M  V30 56 1 1 50
M  V30 57 1 6 51
M  V30 58 1 8 52
M  V30 59 1 9 53
M  V30 60 1 11 54
M  V30 61 1 15 55
M  V30 62 1 16 56
M  V30 63 1 19 57
M  V30 64 1 20 58
M  V30 65 1 22 59
M  V30 66 1 23 60
M  V30 67 1 23 61
M  V30 68 1 24 62
M  V30 69 1 24 63
M  V30 70 1 26 64
M  V30 71 1 26 65
M  V30 72 1 30 66
M  V30 73 1 30 67
M  V30 74 1 31 68
M  V30 75 1 31 69
M  V30 76 1 32 70
M  V30 77 1 34 71
M  V30 78 1 35 72
M  V30 79 1 39 73
M  V30 80 1 40 74
M  V30 81 1 41 75
M  V30 82 1 43 76
M  V30 83 1 44 77
M  V30 84 1 45 78
M  V30 85 1 45 79
M  V30 86 1 46 80
M  V30 87 1 46 81
M  V30 88 1 47 82
M  V30 89 1 47 83
M  V30 END BOND
M  V30 END CTAB
M  END
>  <Dataset>  (821) 
ChEMBL_Kinases

>  <Ligand_Instance>  (821) 
nan

>  <PDB_ID>  (821) 
nan

>  <Standardized_SMILES>  (821) 
CS[C@@]1(C(=O)Nc2ccc3[nH]nc(-c4ccc(F)cc4)c3c2)CCN(CC(=O)N2CCC(c3ccc(-c4ncccn4)cc3)CC2)C1

>  <Name>  (821) 
nan

>  <Pocket>  (821) 
nan

>  <ATP_Site>  (821) 
nan

>  <Peripheral>  (821) 
nan

>  <Num_H_Atoms_ProtBoundConf>  (821) 
nan

>  <Num_Resolved_Atoms>  (821) 
nan

>  <Num_Not_Resolved_Atoms>  (821) 
nan

$$$$
CHEMBL3675471
     RDKit          3D

  0  0  0  0  0  0  0  0  0  0999 V3000
M  V30 BEGIN CTAB
M  V30 COUNTS 53 55 0 0 0
M  V30 BEGIN ATOM
M  V30 1 C -0.148587 -1.643919 6.114613 0
M  V30 2 C 0.043393 -1.365318 4.633103 0
M  V30 3 O 1.050891 -0.411004 4.506036 0
M  V30 4 C 1.540448 0.123151 3.347370 0
M  V30 5 C 2.546347 1.064832 3.386662 0
M  V30 6 C 3.029729 1.593682 2.208110 0
M  V30 7 C 4.088980 2.593913 2.158281 0
M  V30 8 N 4.646726 3.051705 3.402170 0
M  V30 9 O 4.594393 3.125292 1.137035 0
M  V30 10 C 2.483477 1.156570 1.019884 0
M  V30 11 N 2.943271 1.658613 -0.133847 0
M  V30 12 C 2.420052 1.238492 -1.296491 0
M  V30 13 N 1.424355 0.307466 -1.351478 0
M  V30 14 C 0.927828 -0.227216 -0.224421 0
M  V30 15 N -0.106305 -1.196580 -0.328258 0
M  V30 16 C -0.630869 -1.609953 -1.612939 0
M  V30 17 C -1.310158 -0.512764 -2.353937 0
M  V30 18 N -2.430496 0.090523 -1.723622 0
M  V30 19 C -2.168406 0.871404 -0.559051 0
M  V30 20 C -3.287356 0.731323 -2.700345 0
M  V30 21 C -1.416038 -2.864812 -1.558953 0
M  V30 22 C -0.839907 -3.872939 -0.811899 0
M  V30 23 C -1.431718 -5.111570 -0.655896 0
M  V30 24 C -2.660100 -5.333716 -1.285962 0
M  V30 25 C -3.258063 -4.334859 -2.041860 0
M  V30 26 F -4.447764 -4.515648 -2.666695 0
M  V30 27 C -2.638106 -3.103118 -2.178555 0
M  V30 28 C 1.465043 0.203994 0.967134 0
M  V30 29 C 0.995476 -0.312006 2.148885 0
M  V30 30 H 0.264004 -2.661313 6.347009 0
M  V30 31 H -1.216366 -1.621853 6.393628 0
M  V30 32 H 0.386996 -0.883239 6.739359 0
M  V30 33 H 0.259570 -2.332013 4.117340 0
M  V30 34 H -0.915063 -0.925939 4.266227 0
M  V30 35 H 2.990452 1.422491 4.316045 0
M  V30 36 H 5.409639 2.615301 3.976404 0
M  V30 37 H 4.561708 3.822936 4.104801 0
M  V30 38 H 2.722128 1.582124 -2.277074 0
M  V30 39 H -0.578347 -1.690477 0.457078 0
M  V30 40 H 0.259704 -1.881079 -2.269145 0
M  V30 41 H -1.630305 -0.931085 -3.333937 0
M  V30 42 H -0.570600 0.276752 -2.588087 0
M  V30 43 H -2.031324 0.263286 0.355852 0
M  V30 44 H -1.297370 1.552321 -0.688940 0
M  V30 45 H -3.022414 1.576344 -0.337353 0
M  V30 46 H -4.271420 0.215338 -2.754727 0
M  V30 47 H -3.426054 1.807249 -2.447051 0
M  V30 48 H -2.830484 0.709722 -3.710805 0
M  V30 49 H 0.117137 -3.773860 -0.291226 0
M  V30 50 H -1.025963 -5.936586 -0.082794 0
M  V30 51 H -3.159853 -6.294161 -1.189180 0
M  V30 52 H -3.045838 -2.270536 -2.755250 0
M  V30 53 H 0.209592 -1.051244 2.174356 0
M  V30 END ATOM
M  V30 BEGIN BOND
M  V30 1 1 1 2
M  V30 2 1 2 3
M  V30 3 1 3 4
M  V30 4 2 4 5
M  V30 5 1 5 6
M  V30 6 1 6 7
M  V30 7 1 7 8
M  V30 8 2 7 9
M  V30 9 2 6 10
M  V30 10 1 10 11
M  V30 11 2 11 12
M  V30 12 1 12 13
M  V30 13 2 13 14
M  V30 14 1 14 15
M  V30 15 1 15 16
M  V30 16 1 16 17
M  V30 17 1 17 18
M  V30 18 1 18 19
M  V30 19 1 18 20
M  V30 20 1 16 21
M  V30 21 2 21 22
M  V30 22 1 22 23
M  V30 23 2 23 24
M  V30 24 1 24 25
M  V30 25 1 25 26
M  V30 26 2 25 27
M  V30 27 1 14 28
M  V30 28 2 28 29
M  V30 29 1 29 4
M  V30 30 1 28 10
M  V30 31 1 27 21
M  V30 32 1 1 30
M  V30 33 1 1 31
M  V30 34 1 1 32
M  V30 35 1 2 33
M  V30 36 1 2 34
M  V30 37 1 5 35
M  V30 38 1 8 36
M  V30 39 1 8 37
M  V30 40 1 12 38
M  V30 41 1 15 39
M  V30 42 1 16 40
M  V30 43 1 17 41
M  V30 44 1 17 42
M  V30 45 1 19 43
M  V30 46 1 19 44
M  V30 47 1 19 45
M  V30 48 1 20 46
M  V30 49 1 20 47
M  V30 50 1 20 48
M  V30 51 1 22 49
M  V30 52 1 23 50
M  V30 53 1 24 51
M  V30 54 1 27 52
M  V30 55 1 29 53
M  V30 END BOND
M  V30 END CTAB
M  END
>  <Dataset>  (822) 
ChEMBL_Kinases

>  <Ligand_Instance>  (822) 
nan

>  <PDB_ID>  (822) 
nan

>  <Standardized_SMILES>  (822) 
CCOc1cc(C(N)=O)c2ncnc(NC(CN(C)C)c3cccc(F)c3)c2c1

>  <Name>  (822) 
nan

>  <Pocket>  (822) 
nan

>  <ATP_Site>  (822) 
nan

>  <Peripheral>  (822) 
nan

>  <Num_H_Atoms_ProtBoundConf>  (822) 
nan

>  <Num_Resolved_Atoms>  (822) 
nan

>  <Num_Not_Resolved_Atoms>  (822) 
nan

$$$$
CHEMBL3265229
     RDKit          3D

  0  0  0  0  0  0  0  0  0  0999 V3000
M  V30 BEGIN CTAB
M  V30 COUNTS 37 40 0 0 0
M  V30 BEGIN ATOM
M  V30 1 C 1.157099 -2.848478 4.748974 0
M  V30 2 C 0.939599 -1.709743 3.802379 0
M  V30 3 O 0.889480 -0.555329 4.299833 0
M  V30 4 O 0.811376 -2.020184 2.456755 0
M  V30 5 N 0.614105 -1.121335 1.490810 0
M  V30 6 C 0.090815 -1.281528 0.382470 0
M  V30 7 C -0.174278 -0.411701 -0.722397 0
M  V30 8 C 0.068722 0.842498 -0.881875 0
M  V30 9 C -0.238972 1.648766 -2.048076 0
M  V30 10 O -0.784307 1.305332 -3.102240 0
M  V30 11 N 0.201484 2.976134 -1.796595 0
M  V30 12 C 0.771361 2.946633 -0.473064 0
M  V30 13 C 1.318549 4.064907 0.142614 0
M  V30 14 Br 1.396757 5.786381 -0.661660 0
M  V30 15 C 1.835930 3.932079 1.404801 0
M  V30 16 C 1.781210 2.665596 2.002979 0
M  V30 17 C 1.219029 1.622455 1.309999 0
M  V30 18 C 0.698460 1.693896 0.075578 0
M  V30 19 N -0.800824 -1.241334 -1.684954 0
M  V30 20 C -0.946430 -2.587921 -1.249351 0
M  V30 21 C -1.498660 -3.682994 -1.889825 0
M  V30 22 C -1.483484 -4.863703 -1.180342 0
M  V30 23 C -0.959490 -4.981925 0.088691 0
M  V30 24 C -0.430122 -3.846050 0.653425 0
M  V30 25 C -0.391258 -2.599118 0.030011 0
M  V30 26 H 0.192826 -3.414735 4.817757 0
M  V30 27 H 1.883519 -3.581080 4.311908 0
M  V30 28 H 1.542203 -2.538638 5.721988 0
M  V30 29 H 0.105042 3.775230 -2.474334 0
M  V30 30 H 2.266368 4.784236 1.904831 0
M  V30 31 H 2.220363 2.660013 3.013093 0
M  V30 32 H 1.276663 0.783025 1.921780 0
M  V30 33 H -1.124925 -0.917321 -2.613237 0
M  V30 34 H -1.911584 -3.597838 -2.885281 0
M  V30 35 H -1.915617 -5.716828 -1.683698 0
M  V30 36 H -0.987519 -5.931759 0.567180 0
M  V30 37 H -0.035842 -3.994063 1.642044 0
M  V30 END ATOM
M  V30 BEGIN BOND
M  V30 1 1 1 2
M  V30 2 2 2 3
M  V30 3 1 2 4
M  V30 4 1 4 5
M  V30 5 2 5 6
M  V30 6 1 6 7
M  V30 7 2 7 8
M  V30 8 1 8 9
M  V30 9 2 9 10
M  V30 10 1 9 11
M  V30 11 1 11 12
M  V30 12 2 12 13
M  V30 13 1 13 14
M  V30 14 1 13 15
M  V30 15 2 15 16
M  V30 16 1 16 17
M  V30 17 2 17 18
M  V30 18 1 7 19
M  V30 19 1 19 20
M  V30 20 2 20 21
M  V30 21 1 21 22
M  V30 22 2 22 23
M  V30 23 1 23 24
M  V30 24 2 24 25
M  V30 25 1 25 6
M  V30 26 1 18 8
M  V30 27 1 25 20
M  V30 28 1 18 12
M  V30 29 1 1 26
M  V30 30 1 1 27
M  V30 31 1 1 28
M  V30 32 1 11 29
M  V30 33 1 15 30
M  V30 34 1 16 31
M  V30 35 1 17 32
M  V30 36 1 19 33
M  V30 37 1 21 34
M  V30 38 1 22 35
M  V30 39 1 23 36
M  V30 40 1 24 37
M  V30 END BOND
M  V30 END CTAB
M  END
>  <Dataset>  (823) 
ChEMBL_Kinases

>  <Ligand_Instance>  (823) 
nan

>  <PDB_ID>  (823) 
nan

>  <Standardized_SMILES>  (823) 
CC(=O)O/N=C1C(=C2/C(=O)Nc3c(Br)cccc32)/Nc2ccccc2/1

>  <Name>  (823) 
nan

>  <Pocket>  (823) 
nan

>  <ATP_Site>  (823) 
nan

>  <Peripheral>  (823) 
nan

>  <Num_H_Atoms_ProtBoundConf>  (823) 
nan

>  <Num_Resolved_Atoms>  (823) 
nan

>  <Num_Not_Resolved_Atoms>  (823) 
nan

$$$$
CHEMBL3675470
     RDKit          3D

  0  0  0  0  0  0  0  0  0  0999 V3000
M  V30 BEGIN CTAB
M  V30 COUNTS 55 58 0 0 0
M  V30 BEGIN ATOM
M  V30 1 C 6.184329 -4.061617 1.235358 0
M  V30 2 C 5.310843 -3.254348 0.340706 0
M  V30 3 C 4.641442 -2.134364 0.839790 0
M  V30 4 C 3.825178 -1.367214 0.033804 0
M  V30 5 C 3.146131 -0.205108 0.601017 0
M  V30 6 O 3.368613 0.009882 1.820115 0
M  V30 7 N 2.304808 0.603231 -0.185541 0
M  V30 8 C 1.571914 1.761541 0.200093 0
M  V30 9 C 2.090456 3.034795 0.119711 0
M  V30 10 C 1.277112 4.069970 0.524295 0
M  V30 11 C 0.007647 3.792638 0.982150 0
M  V30 12 C -0.554997 2.508288 1.078597 0
M  V30 13 C -1.938216 2.559006 1.594671 0 CFG=1
M  V30 14 C -2.603568 3.896376 1.381642 0
M  V30 15 N -2.719278 1.538406 0.927199 0
M  V30 16 C -2.728487 0.153927 1.334221 0
M  V30 17 N -2.030605 -0.235193 2.414618 0
M  V30 18 C -2.099038 -1.523763 2.770409 0
M  V30 19 N -2.818147 -2.494079 2.134315 0
M  V30 20 C -3.526049 -2.104942 1.040249 0
M  V30 21 C -4.267847 -3.043718 0.361826 0
M  V30 22 C -4.258293 -4.417770 0.853016 0
M  V30 23 N -4.983390 -5.465121 0.235167 0
M  V30 24 O -3.586873 -4.728008 1.870598 0
M  V30 25 C -5.000192 -2.708295 -0.747345 0
M  V30 26 C -4.958434 -1.380443 -1.153004 0
M  V30 27 C -4.206116 -0.480550 -0.446777 0
M  V30 28 C -3.465005 -0.787009 0.664250 0
M  V30 29 C 0.299609 1.535915 0.663587 0
M  V30 30 C 3.724587 -1.785324 -1.277077 0
M  V30 31 C 4.363123 -2.871033 -1.794163 0
M  V30 32 C 5.178867 -3.633591 -0.978982 0
M  V30 33 Cl 5.990223 -5.024398 -1.662808 0
M  V30 34 H 6.481009 -3.485933 2.125594 0
M  V30 35 H 7.096830 -4.312419 0.655814 0
M  V30 36 H 5.719235 -5.039581 1.481245 0
M  V30 37 H 4.796828 -1.909025 1.870951 0
M  V30 38 H 2.122423 0.421726 -1.197144 0
M  V30 39 H 3.099841 3.072435 -0.260949 0
M  V30 40 H 1.709746 5.055516 0.449945 0
M  V30 41 H -0.511022 4.723944 1.265231 0
M  V30 42 H -1.968637 2.389226 2.701219 0
M  V30 43 H -2.417292 4.639143 2.154027 0
M  V30 44 H -2.317602 4.347302 0.398952 0
M  V30 45 H -3.718945 3.780497 1.300204 0
M  V30 46 H -3.273701 1.893021 0.122967 0
M  V30 47 H -1.521807 -1.807489 3.650847 0
M  V30 48 H -4.450794 -6.280433 -0.137847 0
M  V30 49 H -4.330313 -6.222355 -0.095710 0
M  V30 50 H -5.554116 -3.507090 -1.219978 0
M  V30 51 H -5.544422 -1.140476 -2.030737 0
M  V30 52 H -4.250544 0.509990 -0.852706 0
M  V30 53 H -0.111617 0.545676 0.718579 0
M  V30 54 H 3.093442 -1.208489 -1.938970 0
M  V30 55 H 4.256193 -3.164208 -2.829989 0
M  V30 END ATOM
M  V30 BEGIN BOND
M  V30 1 1 1 2
M  V30 2 2 2 3
M  V30 3 1 3 4
M  V30 4 1 4 5
M  V30 5 2 5 6
M  V30 6 1 5 7
M  V30 7 1 7 8
M  V30 8 2 8 9
M  V30 9 1 9 10
M  V30 10 2 10 11
M  V30 11 1 11 12
M  V30 12 1 12 13
M  V30 13 1 13 14
M  V30 14 1 13 15
M  V30 15 1 15 16
M  V30 16 2 16 17
M  V30 17 1 17 18
M  V30 18 2 18 19
M  V30 19 1 19 20
M  V30 20 2 20 21
M  V30 21 1 21 22
M  V30 22 1 22 23
M  V30 23 2 22 24
M  V30 24 1 21 25
M  V30 25 2 25 26
M  V30 26 1 26 27
M  V30 27 2 27 28
M  V30 28 2 12 29
M  V30 29 2 4 30
M  V30 30 1 30 31
M  V30 31 2 31 32
M  V30 32 1 32 33
M  V30 33 1 32 2
M  V30 34 1 29 8
M  V30 35 1 28 16
M  V30 36 1 28 20
M  V30 37 1 1 34
M  V30 38 1 1 35
M  V30 39 1 1 36
M  V30 40 1 3 37
M  V30 41 1 7 38
M  V30 42 1 9 39
M  V30 43 1 10 40
M  V30 44 1 11 41
M  V30 45 1 13 42 CFG=1
M  V30 46 1 14 43
M  V30 47 1 14 44
M  V30 48 1 14 45
M  V30 49 1 15 46
M  V30 50 1 18 47
M  V30 51 1 23 48
M  V30 52 1 23 49
M  V30 53 1 25 50
M  V30 54 1 26 51
M  V30 55 1 27 52
M  V30 56 1 29 53
M  V30 57 1 30 54
M  V30 58 1 31 55
M  V30 END BOND
M  V30 END CTAB
M  END
>  <Dataset>  (824) 
ChEMBL_Kinases

>  <Ligand_Instance>  (824) 
nan

>  <PDB_ID>  (824) 
nan

>  <Standardized_SMILES>  (824) 
Cc1cc(C(=O)Nc2cccc([C@@H](C)Nc3ncnc4c(C(N)=O)cccc34)c2)ccc1Cl

>  <Name>  (824) 
nan

>  <Pocket>  (824) 
nan

>  <ATP_Site>  (824) 
nan

>  <Peripheral>  (824) 
nan

>  <Num_H_Atoms_ProtBoundConf>  (824) 
nan

>  <Num_Resolved_Atoms>  (824) 
nan

>  <Num_Not_Resolved_Atoms>  (824) 
nan

$$$$
CHEMBL4210085
     RDKit          3D

  0  0  0  0  0  0  0  0  0  0999 V3000
M  V30 BEGIN CTAB
M  V30 COUNTS 61 66 0 0 0
M  V30 BEGIN ATOM
M  V30 1 C 1.653985 -1.431064 5.095045 0
M  V30 2 N 1.301581 -2.024650 3.839392 0
M  V30 3 C 2.360981 -1.990866 2.854128 0
M  V30 4 C 2.830685 -0.630719 2.485228 0
M  V30 5 C 2.367972 -0.082451 1.188509 0
M  V30 6 N 1.813817 -1.013074 0.259283 0
M  V30 7 C 0.768371 -0.783815 -0.673044 0
M  V30 8 N 0.188983 0.426771 -0.758967 0
M  V30 9 C -0.804469 0.706250 -1.621781 0
M  V30 10 N -1.430049 1.972463 -1.733352 0
M  V30 11 C -1.093347 3.120448 -0.946167 0
M  V30 12 C -1.275624 2.945599 0.507432 0
M  V30 13 N -0.518663 2.532138 1.516893 0
M  V30 14 C -1.182210 2.564112 2.675812 0
M  V30 15 C -0.779607 2.227197 3.937960 0
M  V30 16 F 0.481787 1.779471 4.132972 0
M  V30 17 C -1.686771 2.359175 4.977263 0
M  V30 18 F -1.329240 2.036463 6.242848 0
M  V30 19 C -2.964827 2.823528 4.718019 0
M  V30 20 C -3.367326 3.165189 3.426551 0
M  V30 21 C -2.445051 3.025267 2.405376 0
M  V30 22 N -2.472384 3.248398 1.081204 0
M  V30 23 C -1.183371 -0.376020 -2.424292 0
M  V30 24 N -2.134839 -0.418124 -3.374073 0
M  V30 25 C -2.131029 -1.669187 -3.868683 0
M  V30 26 N -1.194858 -2.412485 -3.246744 0
M  V30 27 C -0.869041 -3.794619 -3.478176 0
M  V30 28 C 0.383597 -4.127586 -3.975025 0
M  V30 29 C 0.670973 -5.471470 -4.188916 0
M  V30 30 C -0.252849 -6.469716 -3.920558 0
M  V30 31 C -1.510357 -6.135731 -3.421796 0
M  V30 32 F -2.434263 -7.103543 -3.150961 0
M  V30 33 C -1.816035 -4.787470 -3.200680 0
M  V30 34 C -0.594096 -1.619918 -2.341947 0
M  V30 35 N 0.393886 -1.815028 -1.450958 0
M  V30 36 C 2.472243 -2.298409 0.373101 0
M  V30 37 C 1.965111 -2.873532 1.700618 0
M  V30 38 H 2.741381 -1.214038 5.186104 0
M  V30 39 H 1.446505 -2.204759 5.891843 0
M  V30 40 H 1.002895 -0.573585 5.345640 0
M  V30 41 H 0.407309 -1.637234 3.521214 0
M  V30 42 H 3.225004 -2.525832 3.349115 0
M  V30 43 H 2.455232 0.058103 3.299952 0
M  V30 44 H 3.950333 -0.538852 2.587180 0
M  V30 45 H 1.638919 0.765648 1.326030 0
M  V30 46 H 3.242839 0.424004 0.683111 0
M  V30 47 H -2.195740 2.054566 -2.453210 0
M  V30 48 H -1.635671 4.010803 -1.306748 0
M  V30 49 H 0.013625 3.308341 -1.081528 0
M  V30 50 H -3.711674 2.942555 5.509398 0
M  V30 51 H -4.371577 3.534487 3.195098 0
M  V30 52 H -3.345980 3.609622 0.633434 0
M  V30 53 H -2.799609 -2.012154 -4.661011 0
M  V30 54 H 1.133004 -3.389535 -4.198311 0
M  V30 55 H 1.617196 -5.832612 -4.572963 0
M  V30 56 H -0.068684 -7.526198 -4.073137 0
M  V30 57 H -2.791604 -4.495181 -2.811087 0
M  V30 58 H 2.130002 -3.008775 -0.406317 0
M  V30 59 H 3.580761 -2.226592 0.351585 0
M  V30 60 H 2.267041 -3.913078 1.856847 0
M  V30 61 H 0.857013 -2.873311 1.621676 0
M  V30 END ATOM
M  V30 BEGIN BOND
M  V30 1 1 1 2
M  V30 2 1 2 3
M  V30 3 1 3 4
M  V30 4 1 4 5
M  V30 5 1 5 6
M  V30 6 1 6 7
M  V30 7 2 7 8
M  V30 8 1 8 9
M  V30 9 1 9 10
M  V30 10 1 10 11
M  V30 11 1 11 12
M  V30 12 2 12 13
M  V30 13 1 13 14
M  V30 14 2 14 15
M  V30 15 1 15 16
M  V30 16 1 15 17
M  V30 17 1 17 18
M  V30 18 2 17 19
M  V30 19 1 19 20
M  V30 20 2 20 21
M  V30 21 1 21 22
M  V30 22 2 9 23
M  V30 23 1 23 24
M  V30 24 2 24 25
M  V30 25 1 25 26
M  V30 26 1 26 27
M  V30 27 2 27 28
M  V30 28 1 28 29
M  V30 29 2 29 30
M  V30 30 1 30 31
M  V30 31 1 31 32
M  V30 32 2 31 33
M  V30 33 1 26 34
M  V30 34 2 34 35
M  V30 35 1 6 36
M  V30 36 1 36 37
M  V30 37 1 37 3
M  V30 38 1 35 7
M  V30 39 1 22 12
M  V30 40 1 34 23
M  V30 41 1 21 14
M  V30 42 1 33 27
M  V30 43 1 1 38
M  V30 44 1 1 39
M  V30 45 1 1 40
M  V30 46 1 2 41
M  V30 47 1 3 42
M  V30 48 1 4 43
M  V30 49 1 4 44
M  V30 50 1 5 45
M  V30 51 1 5 46
M  V30 52 1 10 47
M  V30 53 1 11 48
M  V30 54 1 11 49
M  V30 55 1 19 50
M  V30 56 1 20 51
M  V30 57 1 22 52
M  V30 58 1 25 53
M  V30 59 1 28 54
M  V30 60 1 29 55
M  V30 61 1 30 56
M  V30 62 1 33 57
M  V30 63 1 36 58
M  V30 64 1 36 59
M  V30 65 1 37 60
M  V30 66 1 37 61
M  V30 END BOND
M  V30 END CTAB
M  END
>  <Dataset>  (825) 
ChEMBL_Kinases

>  <Ligand_Instance>  (825) 
nan

>  <PDB_ID>  (825) 
nan

>  <Standardized_SMILES>  (825) 
CNC1CCN(c2nc(NCc3nc4c(F)c(F)ccc4[nH]3)c3ncn(-c4cccc(F)c4)c3n2)CC1

>  <Name>  (825) 
nan

>  <Pocket>  (825) 
nan

>  <ATP_Site>  (825) 
nan

>  <Peripheral>  (825) 
nan

>  <Num_H_Atoms_ProtBoundConf>  (825) 
nan

>  <Num_Resolved_Atoms>  (825) 
nan

>  <Num_Not_Resolved_Atoms>  (825) 
nan

$$$$
CHEMBL4210028
     RDKit          3D

  0  0  0  0  0  0  0  0  0  0999 V3000
M  V30 BEGIN CTAB
M  V30 COUNTS 70 75 0 0 0
M  V30 BEGIN ATOM
M  V30 1 C 4.149017 -1.032182 5.096591 0
M  V30 2 C 4.713542 -2.174964 4.292827 0
M  V30 3 N 4.456673 -2.030542 2.872011 0
M  V30 4 C 3.006675 -2.188808 2.691244 0
M  V30 5 C 2.604202 -2.109896 1.239243 0
M  V30 6 N 3.762799 -2.295361 0.424975 0
M  V30 7 C 3.480880 -2.343558 -0.986359 0
M  V30 8 C 2.848527 -1.067715 -1.389424 0
M  V30 9 C 1.487652 -0.876362 -1.375607 0
M  V30 10 C 0.974793 0.340488 -1.763651 0
M  V30 11 C 1.731740 1.408503 -2.174846 0
M  V30 12 N 1.236041 2.668173 -2.579550 0
M  V30 13 C -0.113817 3.096918 -2.652956 0
M  V30 14 N -0.399719 4.347570 -3.054037 0
M  V30 15 C -1.636628 4.846566 -3.157715 0
M  V30 16 C -2.710905 4.076879 -2.848225 0
M  V30 17 F -4.005728 4.453347 -2.908460 0
M  V30 18 C -2.430703 2.794447 -2.436450 0
M  V30 19 C -3.423488 1.795442 -2.058689 0
M  V30 20 C -4.524234 1.699656 -2.914614 0
M  V30 21 C -5.485452 0.763441 -2.589895 0
M  V30 22 C -5.409174 -0.059393 -1.487198 0
M  V30 23 N -6.176408 -1.026688 -0.951866 0
M  V30 24 C -5.606100 -1.514482 0.166928 0
M  V30 25 N -4.447298 -0.849682 0.359388 0
M  V30 26 C -4.316478 0.044395 -0.648395 0
M  V30 27 C -3.341261 0.974061 -0.952577 0
M  V30 28 C -3.772628 -1.301013 1.525243 0
M  V30 29 C -2.881515 -0.344922 2.203489 0
M  V30 30 C -2.927688 -2.524565 1.189642 0
M  V30 31 C -4.927027 -1.800316 2.374124 0
M  V30 32 C -5.738110 -2.501991 1.288911 0
M  V30 33 N -1.190860 2.358769 -2.353773 0
M  V30 34 N 3.049841 1.177025 -2.172229 0
M  V30 35 C 3.578559 0.002941 -1.799891 0
M  V30 36 C 4.496323 -3.462231 0.881161 0
M  V30 37 C 5.162194 -3.088816 2.188525 0
M  V30 38 H 3.684621 -0.253135 4.455652 0
M  V30 39 H 3.375641 -1.402291 5.794154 0
M  V30 40 H 4.964223 -0.487703 5.652071 0
M  V30 41 H 4.212573 -3.125103 4.595079 0
M  V30 42 H 5.799137 -2.270071 4.512446 0
M  V30 43 H 2.738702 -3.207070 3.098045 0
M  V30 44 H 2.488024 -1.379761 3.242964 0
M  V30 45 H 2.103739 -1.138835 1.032373 0
M  V30 46 H 1.855556 -2.915559 1.014931 0
M  V30 47 H 2.786689 -3.201883 -1.225913 0
M  V30 48 H 4.405801 -2.510404 -1.565337 0
M  V30 49 H 0.838751 -1.694094 -1.056125 0
M  V30 50 H -0.089813 0.416890 -1.727052 0
M  V30 51 H 1.962178 3.383003 -2.864195 0
M  V30 52 H -1.808767 5.862759 -3.487388 0
M  V30 53 H -4.620106 2.323772 -3.786361 0
M  V30 54 H -6.335441 0.678818 -3.239292 0
M  V30 55 H -2.464824 1.101642 -0.335267 0
M  V30 56 H -1.883159 -0.365606 1.675672 0
M  V30 57 H -2.674716 -0.695780 3.235519 0
M  V30 58 H -3.182609 0.690751 2.248790 0
M  V30 59 H -3.318102 -3.000125 0.265383 0
M  V30 60 H -1.872574 -2.242122 0.995154 0
M  V30 61 H -2.970395 -3.281918 1.987141 0
M  V30 62 H -4.625248 -2.471112 3.183366 0
M  V30 63 H -5.503054 -0.918436 2.721017 0
M  V30 64 H -6.775592 -2.656466 1.582423 0
M  V30 65 H -5.211972 -3.405838 0.962063 0
M  V30 66 H 4.674166 -0.028038 -1.853440 0
M  V30 67 H 3.826926 -4.337420 1.085948 0
M  V30 68 H 5.225034 -3.733771 0.090036 0
M  V30 69 H 5.233025 -3.947505 2.881815 0
M  V30 70 H 6.169117 -2.677044 1.908940 0
M  V30 END ATOM
M  V30 BEGIN BOND
M  V30 1 1 1 2
M  V30 2 1 2 3
M  V30 3 1 3 4
M  V30 4 1 4 5
M  V30 5 1 5 6
M  V30 6 1 6 7
M  V30 7 1 7 8
M  V30 8 2 8 9
M  V30 9 1 9 10
M  V30 10 2 10 11
M  V30 11 1 11 12
M  V30 12 1 12 13
M  V30 13 2 13 14
M  V30 14 1 14 15
M  V30 15 2 15 16
M  V30 16 1 16 17
M  V30 17 1 16 18
M  V30 18 1 18 19
M  V30 19 2 19 20
M  V30 20 1 20 21
M  V30 21 2 21 22
M  V30 22 1 22 23
M  V30 23 2 23 24
M  V30 24 1 24 25
M  V30 25 1 25 26
M  V30 26 2 26 27
M  V30 27 1 25 28
M  V30 28 1 28 29
M  V30 29 1 28 30
M  V30 30 1 28 31
M  V30 31 1 31 32
M  V30 32 2 18 33
M  V30 33 1 11 34
M  V30 34 2 34 35
M  V30 35 1 6 36
M  V30 36 1 36 37
M  V30 37 1 37 3
M  V30 38 1 35 8
M  V30 39 1 33 13
M  V30 40 1 27 19
M  V30 41 1 26 22
M  V30 42 1 32 24
M  V30 43 1 1 38
M  V30 44 1 1 39
M  V30 45 1 1 40
M  V30 46 1 2 41
M  V30 47 1 2 42
M  V30 48 1 4 43
M  V30 49 1 4 44
M  V30 50 1 5 45
M  V30 51 1 5 46
M  V30 52 1 7 47
M  V30 53 1 7 48
M  V30 54 1 9 49
M  V30 55 1 10 50
M  V30 56 1 12 51
M  V30 57 1 15 52
M  V30 58 1 20 53
M  V30 59 1 21 54
M  V30 60 1 27 55
M  V30 61 1 29 56
M  V30 62 1 29 57
M  V30 63 1 29 58
M  V30 64 1 30 59
M  V30 65 1 30 60
M  V30 66 1 30 61
M  V30 67 1 31 62
M  V30 68 1 31 63
M  V30 69 1 32 64
M  V30 70 1 32 65
M  V30 71 1 35 66
M  V30 72 1 36 67
M  V30 73 1 36 68
M  V30 74 1 37 69
M  V30 75 1 37 70
M  V30 END BOND
M  V30 END CTAB
M  END
>  <Dataset>  (826) 
ChEMBL_Kinases

>  <Ligand_Instance>  (826) 
nan

>  <PDB_ID>  (826) 
nan

>  <Standardized_SMILES>  (826) 
CCN1CCN(Cc2ccc(Nc3ncc(F)c(-c4ccc5nc6n(c5c4)C(C)(C)CC6)n3)nc2)CC1

>  <Name>  (826) 
nan

>  <Pocket>  (826) 
nan

>  <ATP_Site>  (826) 
nan

>  <Peripheral>  (826) 
nan

>  <Num_H_Atoms_ProtBoundConf>  (826) 
nan

>  <Num_Resolved_Atoms>  (826) 
nan

>  <Num_Not_Resolved_Atoms>  (826) 
nan

$$$$
CHEMBL4209917
     RDKit          3D

  0  0  0  0  0  0  0  0  0  0999 V3000
M  V30 BEGIN CTAB
M  V30 COUNTS 60 65 0 0 0
M  V30 BEGIN ATOM
M  V30 1 O 2.778179 -2.340456 5.811556 0
M  V30 2 C 2.432172 -3.293271 4.884824 0
M  V30 3 C 2.939476 -2.925120 3.487684 0
M  V30 4 C 2.319792 -1.597206 3.097892 0
M  V30 5 C 2.758358 -1.347922 1.644253 0
M  V30 6 N 1.975066 -2.265723 0.855327 0
M  V30 7 C 0.968473 -1.880288 -0.055074 0
M  V30 8 N 0.987819 -0.568428 -0.315399 0
M  V30 9 C 0.101613 -0.009111 -1.153627 0
M  V30 10 N -0.109657 1.307352 -1.612625 0
M  V30 11 C -0.319998 2.619451 -2.069916 0
M  V30 12 C -0.605159 3.654938 -1.018831 0
M  V30 13 N 0.330837 4.408499 -0.399404 0
M  V30 14 C -0.221198 5.249037 0.489765 0
M  V30 15 C 0.170371 6.219653 1.387268 0
M  V30 16 F 1.496404 6.475170 1.472745 0
M  V30 17 C -0.724838 6.907853 2.169184 0
M  V30 18 F -0.262123 7.859349 3.038931 0
M  V30 19 C -2.088888 6.635357 2.072657 0
M  V30 20 C -2.519715 5.674069 1.189128 0
M  V30 21 C -1.580989 5.012446 0.427908 0
M  V30 22 N -1.801310 4.042126 -0.492139 0
M  V30 23 C -0.881935 -0.803117 -1.784799 0
M  V30 24 N -1.914090 -0.702535 -2.645479 0
M  V30 25 C -2.466937 -1.909764 -2.841453 0
M  V30 26 N -1.831788 -2.854117 -2.126343 0
M  V30 27 C -2.140430 -4.241709 -2.083155 0
M  V30 28 C -1.894094 -4.967679 -0.935853 0
M  V30 29 C -2.229230 -6.304219 -0.995599 0
M  V30 30 C -2.779868 -6.985864 -2.071841 0
M  V30 31 C -3.003530 -6.189743 -3.202739 0
M  V30 32 F -3.540348 -6.824255 -4.272335 0
M  V30 33 C -2.686594 -4.847158 -3.196702 0
M  V30 34 C -0.867365 -2.171938 -1.485505 0
M  V30 35 N 0.052608 -2.640741 -0.639625 0
M  V30 36 C 2.371906 -3.606368 1.121751 0
M  V30 37 C 2.429397 -3.999606 2.555749 0
M  V30 38 H 2.072470 -1.653390 5.926895 0
M  V30 39 H 2.904441 -4.262187 5.185490 0
M  V30 40 H 1.348078 -3.494030 4.854122 0
M  V30 41 H 4.027629 -2.799776 3.490116 0
M  V30 42 H 2.598303 -0.785187 3.773166 0
M  V30 43 H 1.210424 -1.752028 3.059602 0
M  V30 44 H 2.573409 -0.297731 1.360133 0
M  V30 45 H 3.829502 -1.560874 1.602648 0
M  V30 46 H 0.705325 1.729799 -1.057826 0
M  V30 47 H 0.451751 2.992263 -2.781516 0
M  V30 48 H -1.289648 2.588165 -2.703933 0
M  V30 49 H -2.753502 7.204107 2.709411 0
M  V30 50 H -3.577594 5.447018 1.099796 0
M  V30 51 H -2.732584 3.636927 -0.771735 0
M  V30 52 H -3.313070 -2.016479 -3.507156 0
M  V30 53 H -1.469694 -4.550959 -0.038793 0
M  V30 54 H -2.036030 -6.885849 -0.086517 0
M  V30 55 H -2.997108 -8.041685 -1.986191 0
M  V30 56 H -2.867097 -4.250059 -4.080186 0
M  V30 57 H 3.380688 -3.850653 0.672588 0
M  V30 58 H 1.647437 -4.305892 0.609727 0
M  V30 59 H 3.145015 -4.860880 2.670316 0
M  V30 60 H 1.456144 -4.364547 2.956532 0
M  V30 END ATOM
M  V30 BEGIN BOND
M  V30 1 1 1 2
M  V30 2 1 2 3
M  V30 3 1 3 4
M  V30 4 1 4 5
M  V30 5 1 5 6
M  V30 6 1 6 7
M  V30 7 2 7 8
M  V30 8 1 8 9
M  V30 9 1 9 10
M  V30 10 1 10 11
M  V30 11 1 11 12
M  V30 12 2 12 13
M  V30 13 1 13 14
M  V30 14 2 14 15
M  V30 15 1 15 16
M  V30 16 1 15 17
M  V30 17 1 17 18
M  V30 18 2 17 19
M  V30 19 1 19 20
M  V30 20 2 20 21
M  V30 21 1 21 22
M  V30 22 2 9 23
M  V30 23 1 23 24
M  V30 24 2 24 25
M  V30 25 1 25 26
M  V30 26 1 26 27
M  V30 27 2 27 28
M  V30 28 1 28 29
M  V30 29 2 29 30
M  V30 30 1 30 31
M  V30 31 1 31 32
M  V30 32 2 31 33
M  V30 33 1 26 34
M  V30 34 2 34 35
M  V30 35 1 6 36
M  V30 36 1 36 37
M  V30 37 1 37 3
M  V30 38 1 35 7
M  V30 39 1 22 12
M  V30 40 1 34 23
M  V30 41 1 21 14
M  V30 42 1 33 27
M  V30 43 1 1 38
M  V30 44 1 2 39
M  V30 45 1 2 40
M  V30 46 1 3 41
M  V30 47 1 4 42
M  V30 48 1 4 43
M  V30 49 1 5 44
M  V30 50 1 5 45
M  V30 51 1 10 46
M  V30 52 1 11 47
M  V30 53 1 11 48
M  V30 54 1 19 49
M  V30 55 1 20 50
M  V30 56 1 22 51
M  V30 57 1 25 52
M  V30 58 1 28 53
M  V30 59 1 29 54
M  V30 60 1 30 55
M  V30 61 1 33 56
M  V30 62 1 36 57
M  V30 63 1 36 58
M  V30 64 1 37 59
M  V30 65 1 37 60
M  V30 END BOND
M  V30 END CTAB
M  END
>  <Dataset>  (827) 
ChEMBL_Kinases

>  <Ligand_Instance>  (827) 
nan

>  <PDB_ID>  (827) 
nan

>  <Standardized_SMILES>  (827) 
OCC1CCN(c2nc(NCc3nc4c(F)c(F)ccc4[nH]3)c3ncn(-c4cccc(F)c4)c3n2)CC1

>  <Name>  (827) 
nan

>  <Pocket>  (827) 
nan

>  <ATP_Site>  (827) 
nan

>  <Peripheral>  (827) 
nan

>  <Num_H_Atoms_ProtBoundConf>  (827) 
nan

>  <Num_Resolved_Atoms>  (827) 
nan

>  <Num_Not_Resolved_Atoms>  (827) 
nan

$$$$
CHEMBL4209905
     RDKit          3D

  0  0  0  0  0  0  0  0  0  0999 V3000
M  V30 BEGIN CTAB
M  V30 COUNTS 50 54 0 0 0
M  V30 BEGIN ATOM
M  V30 1 O 0.795358 -5.818513 1.519539 0
M  V30 2 C 0.028198 -4.855995 1.225918 0
M  V30 3 C 0.283390 -3.744744 0.315658 0
M  V30 4 C 0.395617 -3.636025 -1.053988 0
M  V30 5 C 0.642012 -2.409386 -1.630919 0
M  V30 6 C 0.786618 -1.253193 -0.895631 0
M  V30 7 C 1.057342 -0.015282 -1.608538 0
M  V30 8 C 1.229738 1.204150 -0.999205 0
M  V30 9 N 1.488005 2.370571 -1.598197 0
M  V30 10 C 1.695869 3.650294 -1.172355 0
M  V30 11 C 1.667525 4.017100 0.250129 0
M  V30 12 C 2.610643 4.735089 0.965710 0
M  V30 13 C 2.363875 4.978495 2.304448 0
M  V30 14 C 1.242471 4.555591 2.979175 0
M  V30 15 O 1.075865 4.844785 4.328449 0
M  V30 16 C 0.292834 3.829896 2.247596 0
M  V30 17 C 0.512319 3.569041 0.897059 0
M  V30 18 C 1.926921 4.400803 -2.291368 0
M  V30 19 N 1.860824 3.604129 -3.366676 0
M  V30 20 C 1.594993 2.369502 -2.950916 0
M  V30 21 C 1.426427 1.152907 -3.609534 0
M  V30 22 N 1.164908 -0.001591 -2.943619 0
M  V30 23 C 0.677731 -1.344155 0.475216 0
M  V30 24 C 0.427355 -2.579464 1.087835 0
M  V30 25 N -1.241476 -4.869667 1.873149 0
M  V30 26 C -1.707721 -5.842674 2.812772 0
M  V30 27 C -2.926778 -6.514799 2.228642 0
M  V30 28 O -3.874621 -5.611732 1.770809 0
M  V30 29 C -3.566827 -4.299013 2.077803 0
M  V30 30 C -2.237533 -3.822197 1.602616 0
M  V30 31 H 0.262894 -4.599302 -1.507437 0
M  V30 32 H 0.708580 -2.468957 -2.723686 0
M  V30 33 H 1.163357 1.262049 0.075762 0
M  V30 34 H 3.454009 5.034310 0.391542 0
M  V30 35 H 3.129790 5.535825 2.801635 0
M  V30 36 H 1.677681 4.332748 4.989543 0
M  V30 37 H -0.554589 3.537720 2.848992 0
M  V30 38 H -0.337654 3.012936 0.531112 0
M  V30 39 H 2.118159 5.452601 -2.188948 0
M  V30 40 H 1.502415 1.112609 -4.700350 0
M  V30 41 H 0.791665 -0.433329 1.055599 0
M  V30 42 H 0.371809 -2.477590 2.180921 0
M  V30 43 H -0.959942 -6.622808 3.043783 0
M  V30 44 H -1.992941 -5.351745 3.794721 0
M  V30 45 H -3.383830 -7.265704 2.935067 0
M  V30 46 H -2.582896 -7.105537 1.354502 0
M  V30 47 H -4.331355 -3.654944 1.584171 0
M  V30 48 H -3.657417 -4.064572 3.163622 0
M  V30 49 H -2.191091 -3.621189 0.510590 0
M  V30 50 H -1.979004 -2.920482 2.186548 0
M  V30 END ATOM
M  V30 BEGIN BOND
M  V30 1 2 1 2
M  V30 2 1 2 3
M  V30 3 2 3 4
M  V30 4 1 4 5
M  V30 5 2 5 6
M  V30 6 1 6 7
M  V30 7 2 7 8
M  V30 8 1 8 9
M  V30 9 1 9 10
M  V30 10 1 10 11
M  V30 11 2 11 12
M  V30 12 1 12 13
M  V30 13 2 13 14
M  V30 14 1 14 15
M  V30 15 1 14 16
M  V30 16 2 16 17
M  V30 17 2 10 18
M  V30 18 1 18 19
M  V30 19 2 19 20
M  V30 20 1 20 21
M  V30 21 2 21 22
M  V30 22 1 6 23
M  V30 23 2 23 24
M  V30 24 1 2 25
M  V30 25 1 25 26
M  V30 26 1 26 27
M  V30 27 1 27 28
M  V30 28 1 28 29
M  V30 29 1 29 30
M  V30 30 1 24 3
M  V30 31 1 30 25
M  V30 32 1 22 7
M  V30 33 1 20 9
M  V30 34 1 17 11
M  V30 35 1 4 31
M  V30 36 1 5 32
M  V30 37 1 8 33
M  V30 38 1 12 34
M  V30 39 1 13 35
M  V30 40 1 15 36
M  V30 41 1 16 37
M  V30 42 1 17 38
M  V30 43 1 18 39
M  V30 44 1 21 40
M  V30 45 1 23 41
M  V30 46 1 24 42
M  V30 47 1 26 43
M  V30 48 1 26 44
M  V30 49 1 27 45
M  V30 50 1 27 46
M  V30 51 1 29 47
M  V30 52 1 29 48
M  V30 53 1 30 49
M  V30 54 1 30 50
M  V30 END BOND
M  V30 END CTAB
M  END
>  <Dataset>  (828) 
ChEMBL_Kinases

>  <Ligand_Instance>  (828) 
nan

>  <PDB_ID>  (828) 
nan

>  <Standardized_SMILES>  (828) 
O=C(c1ccc(-c2cn3c(-c4ccc(O)cc4)cnc3cn2)cc1)N1CCOCC1

>  <Name>  (828) 
nan

>  <Pocket>  (828) 
nan

>  <ATP_Site>  (828) 
nan

>  <Peripheral>  (828) 
nan

>  <Num_H_Atoms_ProtBoundConf>  (828) 
nan

>  <Num_Resolved_Atoms>  (828) 
nan

>  <Num_Not_Resolved_Atoms>  (828) 
nan

$$$$
CHEMBL3675469
     RDKit          3D

  0  0  0  0  0  0  0  0  0  0999 V3000
M  V30 BEGIN CTAB
M  V30 COUNTS 59 62 0 0 0
M  V30 BEGIN ATOM
M  V30 1 C 1.374188 -2.322632 6.295437 0
M  V30 2 O 2.340770 -1.980869 5.369712 0
M  V30 3 C 2.390601 -2.865416 4.328395 0
M  V30 4 C 1.107083 -2.930186 3.583955 0
M  V30 5 C 0.671791 -1.616275 2.998397 0
M  V30 6 N 1.605166 -1.046354 2.054651 0
M  V30 7 C 1.301069 0.191968 1.425754 0
M  V30 8 N 0.141743 0.805195 1.722956 0
M  V30 9 C -0.219127 1.961793 1.177930 0
M  V30 10 N 0.628820 2.534260 0.286606 0
M  V30 11 C 1.797372 1.966883 -0.046238 0
M  V30 12 C 2.615923 2.587134 -0.949671 0
M  V30 13 C 2.292486 3.866189 -1.598675 0
M  V30 14 N 1.052309 4.444042 -1.230799 0
M  V30 15 O 2.961315 4.515304 -2.430770 0
M  V30 16 C 3.813939 1.968792 -1.265164 0
M  V30 17 C 4.243091 0.756074 -0.724532 0
M  V30 18 C 3.377832 0.176660 0.180084 0
M  V30 19 C 2.178512 0.767304 0.514877 0
M  V30 20 C -0.682360 -1.768847 2.457869 0
M  V30 21 C -1.825371 -1.402257 3.169098 0
M  V30 22 C -3.125789 -1.515667 2.721009 0
M  V30 23 C -3.240855 -2.044493 1.451677 0
M  V30 24 C -2.150072 -2.428200 0.692760 0
M  V30 25 N -2.370346 -2.957486 -0.601974 0
M  V30 26 C -2.351009 -1.871154 -1.533659 0
M  V30 27 O -2.142365 -0.808374 -0.876558 0
M  V30 28 C -2.534192 -1.944512 -2.976374 0
M  V30 29 C -2.773277 -3.002983 -3.783119 0
M  V30 30 F -2.862716 -4.185175 -3.178078 0
M  V30 31 C -2.920490 -2.898698 -5.148493 0
M  V30 32 C -2.829218 -1.675524 -5.782457 0
M  V30 33 C -2.585773 -0.591577 -4.967620 0
M  V30 34 C -2.439014 -0.698279 -3.602134 0
M  V30 35 F -2.198626 0.469737 -2.917374 0
M  V30 36 C -0.886364 -2.281384 1.215064 0
M  V30 37 H 1.417365 -1.563195 7.133492 0
M  V30 38 H 0.351640 -2.182072 5.870410 0
M  V30 39 H 1.513430 -3.355300 6.674389 0
M  V30 40 H 2.531478 -3.887569 4.797529 0
M  V30 41 H 3.274196 -2.721181 3.667270 0
M  V30 42 H 1.142972 -3.689653 2.747931 0
M  V30 43 H 0.307591 -3.294187 4.252558 0
M  V30 44 H 0.607987 -0.882410 3.851991 0
M  V30 45 H 2.450071 -1.634389 1.925655 0
M  V30 46 H -1.162426 2.429822 1.440079 0
M  V30 47 H 0.016861 4.409565 -1.228119 0
M  V30 48 H 0.196774 4.916814 -0.933271 0
M  V30 49 H 4.417546 2.505107 -1.982309 0
M  V30 50 H 5.187998 0.345828 -1.024599 0
M  V30 51 H 3.667240 -0.746999 0.615318 0
M  V30 52 H -1.672098 -0.988244 4.170668 0
M  V30 53 H -3.939750 -1.204845 3.344712 0
M  V30 54 H -4.251993 -2.161531 1.035173 0
M  V30 55 H -2.532719 -3.918795 -0.980183 0
M  V30 56 H -3.109190 -3.792234 -5.720972 0
M  V30 57 H -2.940929 -1.566613 -6.852605 0
M  V30 58 H -2.510213 0.375326 -5.444017 0
M  V30 59 H -0.052006 -2.583177 0.615908 0
M  V30 END ATOM
M  V30 BEGIN BOND
M  V30 1 1 1 2
M  V30 2 1 2 3
M  V30 3 1 3 4
M  V30 4 1 4 5
M  V30 5 1 5 6
M  V30 6 1 6 7
M  V30 7 2 7 8
M  V30 8 1 8 9
M  V30 9 2 9 10
M  V30 10 1 10 11
M  V30 11 2 11 12
M  V30 12 1 12 13
M  V30 13 1 13 14
M  V30 14 2 13 15
M  V30 15 1 12 16
M  V30 16 2 16 17
M  V30 17 1 17 18
M  V30 18 2 18 19
M  V30 19 1 5 20
M  V30 20 2 20 21
M  V30 21 1 21 22
M  V30 22 2 22 23
M  V30 23 1 23 24
M  V30 24 1 24 25
M  V30 25 1 25 26
M  V30 26 2 26 27
M  V30 27 1 26 28
M  V30 28 2 28 29
M  V30 29 1 29 30
M  V30 30 1 29 31
M  V30 31 2 31 32
M  V30 32 1 32 33
M  V30 33 2 33 34
M  V30 34 1 34 35
M  V30 35 2 24 36
M  V30 36 1 19 7
M  V30 37 1 36 20
M  V30 38 1 19 11
M  V30 39 1 34 28
M  V30 40 1 1 37
M  V30 41 1 1 38
M  V30 42 1 1 39
M  V30 43 1 3 40
M  V30 44 1 3 41
M  V30 45 1 4 42
M  V30 46 1 4 43
M  V30 47 1 5 44
M  V30 48 1 6 45
M  V30 49 1 9 46
M  V30 50 1 14 47
M  V30 51 1 14 48
M  V30 52 1 16 49
M  V30 53 1 17 50
M  V30 54 1 18 51
M  V30 55 1 21 52
M  V30 56 1 22 53
M  V30 57 1 23 54
M  V30 58 1 25 55
M  V30 59 1 31 56
M  V30 60 1 32 57
M  V30 61 1 33 58
M  V30 62 1 36 59
M  V30 END BOND
M  V30 END CTAB
M  END
>  <Dataset>  (829) 
ChEMBL_Kinases

>  <Ligand_Instance>  (829) 
nan

>  <PDB_ID>  (829) 
nan

>  <Standardized_SMILES>  (829) 
COCCC(Nc1ncnc2c(C(N)=O)cccc12)c1cccc(NC(=O)c2c(F)cccc2F)c1

>  <Name>  (829) 
nan

>  <Pocket>  (829) 
nan

>  <ATP_Site>  (829) 
nan

>  <Peripheral>  (829) 
nan

>  <Num_H_Atoms_ProtBoundConf>  (829) 
nan

>  <Num_Resolved_Atoms>  (829) 
nan

>  <Num_Not_Resolved_Atoms>  (829) 
nan

$$$$
CHEMBL4209759
     RDKit          3D

  0  0  0  0  0  0  0  0  0  0999 V3000
M  V30 BEGIN CTAB
M  V30 COUNTS 57 62 0 0 0
M  V30 BEGIN ATOM
M  V30 1 C 2.350341 -0.223455 3.000289 0
M  V30 2 N 3.342933 -0.474113 1.977992 0
M  V30 3 C 3.471217 0.655724 1.108698 0
M  V30 4 C 2.338422 0.817829 0.129331 0
M  V30 5 N 1.875692 -0.488220 -0.292240 0
M  V30 6 C 0.580082 -0.798148 -0.785243 0
M  V30 7 N -0.375807 0.139712 -0.906074 0
M  V30 8 C -1.604830 -0.145782 -1.373344 0
M  V30 9 N -2.641392 0.809935 -1.519318 0
M  V30 10 C -2.485686 2.207750 -1.174728 0
M  V30 11 C -2.164676 2.363312 0.269195 0
M  V30 12 N -1.036356 2.413739 0.987220 0
M  V30 13 C -1.309359 2.570386 2.294861 0
M  V30 14 C -0.459863 2.670175 3.376804 0
M  V30 15 F 0.888793 2.614701 3.218860 0
M  V30 16 C -1.026810 2.828165 4.623510 0
M  V30 17 F -0.214955 2.929248 5.706543 0
M  V30 18 C -2.412165 2.884506 4.779708 0
M  V30 19 C -3.240823 2.780166 3.662983 0
M  V30 20 C -2.690453 2.621572 2.406865 0
M  V30 21 N -3.195305 2.492724 1.153227 0
M  V30 22 C -1.820934 -1.479972 -1.723961 0
M  V30 23 N -2.935927 -2.048299 -2.212650 0
M  V30 24 C -2.689895 -3.363733 -2.406241 0
M  V30 25 N -1.401548 -3.617454 -2.031989 0
M  V30 26 C -0.716701 -4.870614 -2.066985 0
M  V30 27 C -1.151685 -6.018495 -1.408662 0
M  V30 28 C -0.394717 -7.172635 -1.523008 0
M  V30 29 C 0.769356 -7.168415 -2.281016 0
M  V30 30 N 1.161113 -6.055926 -2.899656 0
M  V30 31 C 0.455350 -4.927071 -2.810284 0
M  V30 32 C -0.856356 -2.458951 -1.608815 0
M  V30 33 N 0.330535 -2.071694 -1.134288 0
M  V30 34 C 2.901840 -1.501961 -0.160543 0
M  V30 35 C 3.156551 -1.722202 1.295099 0
M  V30 36 H 1.373932 0.039950 2.525502 0
M  V30 37 H 2.173534 -1.141177 3.605057 0
M  V30 38 H 2.735219 0.569904 3.666073 0
M  V30 39 H 3.498552 1.568144 1.739629 0
M  V30 40 H 4.462332 0.666550 0.571205 0
M  V30 41 H 2.775335 1.368104 -0.749817 0
M  V30 42 H 1.553708 1.432729 0.611568 0
M  V30 43 H -3.562606 0.498843 -1.891944 0
M  V30 44 H -1.651001 2.625737 -1.812577 0
M  V30 45 H -3.370113 2.806045 -1.467446 0
M  V30 46 H -2.820423 3.011235 5.790915 0
M  V30 47 H -4.309768 2.821889 3.768175 0
M  V30 48 H -4.239832 2.507131 1.026469 0
M  V30 49 H -3.401536 -4.103276 -2.796989 0
M  V30 50 H -2.075886 -5.940255 -0.833661 0
M  V30 51 H -0.802226 -8.014818 -0.982522 0
M  V30 52 H 1.271415 -8.123157 -2.295019 0
M  V30 53 H 0.869900 -4.082049 -3.356303 0
M  V30 54 H 3.844793 -1.104361 -0.619582 0
M  V30 55 H 2.572313 -2.435990 -0.656308 0
M  V30 56 H 2.314516 -2.294398 1.721428 0
M  V30 57 H 4.053873 -2.383036 1.455097 0
M  V30 END ATOM
M  V30 BEGIN BOND
M  V30 1 1 1 2
M  V30 2 1 2 3
M  V30 3 1 3 4
M  V30 4 1 4 5
M  V30 5 1 5 6
M  V30 6 2 6 7
M  V30 7 1 7 8
M  V30 8 1 8 9
M  V30 9 1 9 10
M  V30 10 1 10 11
M  V30 11 2 11 12
M  V30 12 1 12 13
M  V30 13 2 13 14
M  V30 14 1 14 15
M  V30 15 1 14 16
M  V30 16 1 16 17
M  V30 17 2 16 18
M  V30 18 1 18 19
M  V30 19 2 19 20
M  V30 20 1 20 21
M  V30 21 2 8 22
M  V30 22 1 22 23
M  V30 23 2 23 24
M  V30 24 1 24 25
M  V30 25 1 25 26
M  V30 26 2 26 27
M  V30 27 1 27 28
M  V30 28 2 28 29
M  V30 29 1 29 30
M  V30 30 2 30 31
M  V30 31 1 25 32
M  V30 32 2 32 33
M  V30 33 1 5 34
M  V30 34 1 34 35
M  V30 35 1 35 2
M  V30 36 1 33 6
M  V30 37 1 21 11
M  V30 38 1 32 22
M  V30 39 1 20 13
M  V30 40 1 31 26
M  V30 41 1 1 36
M  V30 42 1 1 37
M  V30 43 1 1 38
M  V30 44 1 3 39
M  V30 45 1 3 40
M  V30 46 1 4 41
M  V30 47 1 4 42
M  V30 48 1 9 43
M  V30 49 1 10 44
M  V30 50 1 10 45
M  V30 51 1 18 46
M  V30 52 1 19 47
M  V30 53 1 21 48
M  V30 54 1 24 49
M  V30 55 1 27 50
M  V30 56 1 28 51
M  V30 57 1 29 52
M  V30 58 1 31 53
M  V30 59 1 34 54
M  V30 60 1 34 55
M  V30 61 1 35 56
M  V30 62 1 35 57
M  V30 END BOND
M  V30 END CTAB
M  END
>  <Dataset>  (830) 
ChEMBL_Kinases

>  <Ligand_Instance>  (830) 
nan

>  <PDB_ID>  (830) 
nan

>  <Standardized_SMILES>  (830) 
CN1CCN(c2nc(NCc3nc4c(F)c(F)ccc4[nH]3)c3ncn(-c4cccnc4)c3n2)CC1

>  <Name>  (830) 
nan

>  <Pocket>  (830) 
nan

>  <ATP_Site>  (830) 
nan

>  <Peripheral>  (830) 
nan

>  <Num_H_Atoms_ProtBoundConf>  (830) 
nan

>  <Num_Resolved_Atoms>  (830) 
nan

>  <Num_Not_Resolved_Atoms>  (830) 
nan

$$$$
CHEMBL3675473
     RDKit          3D

  0  0  0  0  0  0  0  0  0  0999 V3000
M  V30 BEGIN CTAB
M  V30 COUNTS 46 48 0 0 0
M  V30 BEGIN ATOM
M  V30 1 C -0.250157 -5.932430 1.849789 0
M  V30 2 C 0.155088 -4.572752 1.266249 0
M  V30 3 N -0.771902 -4.132643 0.263613 0
M  V30 4 C -0.422944 -2.868161 -0.321297 0
M  V30 5 C -0.535831 -1.687651 0.600455 0 CFG=1
M  V30 6 N -0.162647 -0.496536 -0.032749 0
M  V30 7 C 0.187431 0.707996 -0.698270 0
M  V30 8 N -0.356020 1.339582 -1.748020 0
M  V30 9 C 0.128999 2.480784 -2.247857 0
M  V30 10 N 1.206072 3.004012 -1.663434 0
M  V30 11 C 1.811148 2.446796 -0.617021 0
M  V30 12 C 2.918039 3.055176 -0.069853 0
M  V30 13 C 3.390036 4.286465 -0.663787 0
M  V30 14 N 4.502672 5.056032 -0.238529 0
M  V30 15 O 3.437421 5.241958 -1.435486 0
M  V30 16 C 3.605004 2.559440 1.008319 0
M  V30 17 C 3.108474 1.384990 1.525352 0
M  V30 18 C 2.002627 0.787464 0.969719 0
M  V30 19 C 1.311794 1.271670 -0.102167 0
M  V30 20 C -1.849247 -1.638867 1.344242 0
M  V30 21 C -1.819646 -0.497023 2.159431 0
M  V30 22 C -2.908734 -0.186442 2.967054 0
M  V30 23 C -4.039540 -0.976113 2.996993 0
M  V30 24 C -4.035823 -2.087130 2.186219 0
M  V30 25 C -2.978425 -2.422420 1.376721 0
M  V30 26 H -1.301737 -6.153352 1.535206 0
M  V30 27 H 0.449480 -6.714019 1.503622 0
M  V30 28 H -0.200824 -5.941959 2.954665 0
M  V30 29 H 0.083878 -3.860608 2.129413 0
M  V30 30 H 1.208364 -4.565215 0.945246 0
M  V30 31 H -0.720632 -4.830319 -0.522852 0
M  V30 32 H -0.907912 -2.713099 -1.303234 0
M  V30 33 H 0.678490 -2.947155 -0.563505 0
M  V30 34 H 0.185736 -1.952656 1.454303 0
M  V30 35 H -1.032828 -0.692216 -0.630188 0
M  V30 36 H -0.429147 2.860211 -3.099109 0
M  V30 37 H 5.040656 5.191030 0.659017 0
M  V30 38 H 5.095038 5.250415 0.619687 0
M  V30 39 H 4.466739 3.030826 1.437320 0
M  V30 40 H 3.594973 0.927752 2.377880 0
M  V30 41 H 1.663909 -0.125694 1.419807 0
M  V30 42 H -1.023615 0.256175 2.283479 0
M  V30 43 H -2.958793 0.682381 3.625964 0
M  V30 44 H -4.923603 -0.804523 3.596578 0
M  V30 45 H -4.846688 -2.815399 2.088621 0
M  V30 46 H -2.867076 -3.253241 0.700296 0
M  V30 END ATOM
M  V30 BEGIN BOND
M  V30 1 1 1 2
M  V30 2 1 2 3
M  V30 3 1 3 4
M  V30 4 1 4 5
M  V30 5 1 5 6
M  V30 6 1 6 7
M  V30 7 2 7 8
M  V30 8 1 8 9
M  V30 9 2 9 10
M  V30 10 1 10 11
M  V30 11 2 11 12
M  V30 12 1 12 13
M  V30 13 1 13 14
M  V30 14 2 13 15
M  V30 15 1 12 16
M  V30 16 2 16 17
M  V30 17 1 17 18
M  V30 18 2 18 19
M  V30 19 1 5 20
M  V30 20 2 20 21
M  V30 21 1 21 22
M  V30 22 2 22 23
M  V30 23 1 23 24
M  V30 24 2 24 25
M  V30 25 1 19 7
M  V30 26 1 25 20
M  V30 27 1 19 11
M  V30 28 1 1 26
M  V30 29 1 1 27
M  V30 30 1 1 28
M  V30 31 1 2 29
M  V30 32 1 2 30
M  V30 33 1 3 31
M  V30 34 1 4 32
M  V30 35 1 4 33
M  V30 36 1 5 34 CFG=1
M  V30 37 1 6 35
M  V30 38 1 9 36
M  V30 39 1 14 37
M  V30 40 1 14 38
M  V30 41 1 16 39
M  V30 42 1 17 40
M  V30 43 1 18 41
M  V30 44 1 21 42
M  V30 45 1 22 43
M  V30 46 1 23 44
M  V30 47 1 24 45
M  V30 48 1 25 46
M  V30 END BOND
M  V30 END CTAB
M  END
>  <Dataset>  (831) 
ChEMBL_Kinases

>  <Ligand_Instance>  (831) 
nan

>  <PDB_ID>  (831) 
nan

>  <Standardized_SMILES>  (831) 
CCNC[C@@H](Nc1ncnc2c(C(N)=O)cccc12)c1ccccc1

>  <Name>  (831) 
nan

>  <Pocket>  (831) 
nan

>  <ATP_Site>  (831) 
nan

>  <Peripheral>  (831) 
nan

>  <Num_H_Atoms_ProtBoundConf>  (831) 
nan

>  <Num_Resolved_Atoms>  (831) 
nan

>  <Num_Not_Resolved_Atoms>  (831) 
nan

$$$$
CHEMBL3675489
     RDKit          3D

  0  0  0  0  0  0  0  0  0  0999 V3000
M  V30 BEGIN CTAB
M  V30 COUNTS 50 52 0 0 0
M  V30 BEGIN ATOM
M  V30 1 C -0.854862 -3.056476 -3.021662 0
M  V30 2 C 0.510525 -3.152393 -2.327824 0
M  V30 3 N 0.333379 -2.783500 -0.971790 0
M  V30 4 C 1.473969 -2.799353 -0.127178 0
M  V30 5 C 1.039728 -2.389201 1.264350 0 CFG=1
M  V30 6 N 0.459354 -1.054203 1.242200 0
M  V30 7 C 1.226877 0.081925 0.872959 0
M  V30 8 N 2.515024 -0.012169 0.538061 0
M  V30 9 C 3.282133 1.028668 0.188284 0
M  V30 10 N 2.746298 2.274110 0.162258 0
M  V30 11 C 1.466793 2.466188 0.481271 0
M  V30 12 C 0.946198 3.743121 0.446868 0
M  V30 13 C 1.797820 4.879993 0.060701 0
M  V30 14 N 3.152311 4.653730 -0.276042 0
M  V30 15 O 1.322563 6.041892 0.031159 0
M  V30 16 C -0.374253 3.940289 0.776429 0
M  V30 17 C -1.153979 2.854585 1.135803 0
M  V30 18 O -2.464768 3.194612 1.443267 0
M  V30 19 C -3.478691 2.331463 1.835695 0
M  V30 20 C -0.596150 1.591597 1.158255 0
M  V30 21 C 0.722579 1.365322 0.833144 0
M  V30 22 C 0.111792 -3.413576 1.780587 0
M  V30 23 C -0.555046 -2.928398 2.911776 0
M  V30 24 C -1.486919 -3.683210 3.605368 0
M  V30 25 C -1.779895 -4.965639 3.176250 0
M  V30 26 C -1.118518 -5.436571 2.060731 0
M  V30 27 F -1.356220 -6.681985 1.585415 0
M  V30 28 C -0.192081 -4.678520 1.375998 0
M  V30 29 H -1.523328 -2.357353 -2.464229 0
M  V30 30 H -1.336358 -4.057434 -3.045933 0
M  V30 31 H -0.760124 -2.651368 -4.051113 0
M  V30 32 H 1.176817 -2.413608 -2.853256 0
M  V30 33 H 0.901259 -4.178740 -2.459828 0
M  V30 34 H -0.567916 -3.059306 -0.559289 0
M  V30 35 H 2.284657 -2.128900 -0.439050 0
M  V30 36 H 1.912051 -3.819185 -0.096805 0
M  V30 37 H 1.940143 -2.352057 1.938981 0
M  V30 38 H -0.533085 -1.041540 1.515849 0
M  V30 39 H 4.295616 0.741422 -0.045796 0
M  V30 40 H 3.494310 4.733109 0.718312 0
M  V30 41 H 3.796502 4.462533 -1.097008 0
M  V30 42 H -0.724008 4.972007 0.729394 0
M  V30 43 H -3.474662 2.052886 2.904414 0
M  V30 44 H -3.357361 1.378728 1.262242 0
M  V30 45 H -4.453474 2.745665 1.489403 0
M  V30 46 H -1.269290 0.799420 1.448695 0
M  V30 47 H -0.439735 -1.938313 3.380994 0
M  V30 48 H -2.024982 -3.366161 4.472432 0
M  V30 49 H -2.497540 -5.599039 3.678124 0
M  V30 50 H 0.366075 -4.976506 0.500400 0
M  V30 END ATOM
M  V30 BEGIN BOND
M  V30 1 1 1 2
M  V30 2 1 2 3
M  V30 3 1 3 4
M  V30 4 1 4 5
M  V30 5 1 5 6
M  V30 6 1 6 7
M  V30 7 2 7 8
M  V30 8 1 8 9
M  V30 9 2 9 10
M  V30 10 1 10 11
M  V30 11 2 11 12
M  V30 12 1 12 13
M  V30 13 1 13 14
M  V30 14 2 13 15
M  V30 15 1 12 16
M  V30 16 2 16 17
M  V30 17 1 17 18
M  V30 18 1 18 19
M  V30 19 1 17 20
M  V30 20 2 20 21
M  V30 21 1 5 22
M  V30 22 2 22 23
M  V30 23 1 23 24
M  V30 24 2 24 25
M  V30 25 1 25 26
M  V30 26 1 26 27
M  V30 27 2 26 28
M  V30 28 1 21 7
M  V30 29 1 28 22
M  V30 30 1 21 11
M  V30 31 1 1 29
M  V30 32 1 1 30
M  V30 33 1 1 31
M  V30 34 1 2 32
M  V30 35 1 2 33
M  V30 36 1 3 34
M  V30 37 1 4 35
M  V30 38 1 4 36
M  V30 39 1 5 37 CFG=1
M  V30 40 1 6 38
M  V30 41 1 9 39
M  V30 42 1 14 40
M  V30 43 1 14 41
M  V30 44 1 16 42
M  V30 45 1 19 43
M  V30 46 1 19 44
M  V30 47 1 19 45
M  V30 48 1 20 46
M  V30 49 1 23 47
M  V30 50 1 24 48
M  V30 51 1 25 49
M  V30 52 1 28 50
M  V30 END BOND
M  V30 END CTAB
M  END
>  <Dataset>  (832) 
ChEMBL_Kinases

>  <Ligand_Instance>  (832) 
nan

>  <PDB_ID>  (832) 
nan

>  <Standardized_SMILES>  (832) 
CCNC[C@@H](Nc1ncnc2c(C(N)=O)cc(OC)cc12)c1cccc(F)c1

>  <Name>  (832) 
nan

>  <Pocket>  (832) 
nan

>  <ATP_Site>  (832) 
nan

>  <Peripheral>  (832) 
nan

>  <Num_H_Atoms_ProtBoundConf>  (832) 
nan

>  <Num_Resolved_Atoms>  (832) 
nan

>  <Num_Not_Resolved_Atoms>  (832) 
nan

$$$$
CHEMBL4211678
     RDKit          3D

  0  0  0  0  0  0  0  0  0  0999 V3000
M  V30 BEGIN CTAB
M  V30 COUNTS 57 62 0 0 0
M  V30 BEGIN ATOM
M  V30 1 C 2.785760 -1.585207 3.183822 0
M  V30 2 N 2.588465 -1.371826 1.766798 0
M  V30 3 C 3.156169 -0.163472 1.259062 0
M  V30 4 C 2.578154 0.101844 -0.114445 0
M  V30 5 N 1.724275 -0.993023 -0.525569 0
M  V30 6 C 0.371239 -0.935167 -0.953785 0
M  V30 7 N -0.290511 0.233564 -1.006344 0
M  V30 8 C -1.569647 0.327880 -1.408149 0
M  V30 9 N -2.296989 1.539261 -1.478952 0
M  V30 10 C -1.722903 2.823932 -1.112738 0
M  V30 11 C -1.302955 2.829977 0.319219 0
M  V30 12 N -0.154539 2.512963 0.943633 0
M  V30 13 C -0.279997 2.688544 2.270562 0
M  V30 14 C 0.556108 2.521343 3.354624 0
M  V30 15 C 0.091290 2.804506 4.634740 0
M  V30 16 Cl 1.244467 2.556186 5.954934 0
M  V30 17 C -1.193556 3.254333 4.878095 0
M  V30 18 Cl -1.680524 3.582264 6.528727 0
M  V30 19 C -2.045554 3.426568 3.791753 0
M  V30 20 C -1.555537 3.137454 2.535299 0
M  V30 21 N -2.142629 3.209720 1.327222 0
M  V30 22 C -2.159137 -0.889808 -1.768143 0
M  V30 23 N -3.416196 -1.123126 -2.208140 0
M  V30 24 C -3.518509 -2.448759 -2.425018 0
M  V30 25 N -2.345350 -3.044466 -2.127118 0
M  V30 26 C -1.944032 -4.420157 -2.187541 0
M  V30 27 C -1.128335 -4.959332 -1.225763 0
M  V30 28 C -0.706571 -6.266212 -1.222460 0
M  V30 29 C -1.166966 -7.038121 -2.282429 0
M  V30 30 N -1.969554 -6.563276 -3.255502 0
M  V30 31 C -2.343392 -5.279473 -3.198162 0
M  V30 32 C -1.484122 -2.092075 -1.715848 0
M  V30 33 N -0.209169 -2.095007 -1.302772 0
M  V30 34 C 2.461050 -2.235932 -0.443065 0
M  V30 35 C 2.912319 -2.536329 0.972892 0
M  V30 36 H 2.139993 -0.844948 3.727320 0
M  V30 37 H 2.358613 -2.582618 3.414379 0
M  V30 38 H 3.840463 -1.558928 3.496838 0
M  V30 39 H 2.943526 0.645895 1.982303 0
M  V30 40 H 4.258989 -0.202417 1.151970 0
M  V30 41 H 3.380413 0.260815 -0.870438 0
M  V30 42 H 2.022837 1.057443 -0.033743 0
M  V30 43 H -3.284647 1.501796 -1.808092 0
M  V30 44 H -2.411823 3.653310 -1.263116 0
M  V30 45 H -0.832420 3.029222 -1.746134 0
M  V30 46 H 1.547489 2.176836 3.191778 0
M  V30 47 H -3.044882 3.774861 3.965857 0
M  V30 48 H -3.141870 3.526476 1.188796 0
M  V30 49 H -4.379098 -3.029550 -2.784577 0
M  V30 50 H -0.814604 -4.276655 -0.428200 0
M  V30 51 H -0.061063 -6.680689 -0.455474 0
M  V30 52 H -0.866788 -8.082345 -2.334890 0
M  V30 53 H -2.994971 -4.849658 -3.966852 0
M  V30 54 H 1.861867 -3.101777 -0.805253 0
M  V30 55 H 3.366459 -2.227258 -1.087779 0
M  V30 56 H 2.348016 -3.397748 1.381557 0
M  V30 57 H 3.982892 -2.815384 1.015403 0
M  V30 END ATOM
M  V30 BEGIN BOND
M  V30 1 1 1 2
M  V30 2 1 2 3
M  V30 3 1 3 4
M  V30 4 1 4 5
M  V30 5 1 5 6
M  V30 6 2 6 7
M  V30 7 1 7 8
M  V30 8 1 8 9
M  V30 9 1 9 10
M  V30 10 1 10 11
M  V30 11 2 11 12
M  V30 12 1 12 13
M  V30 13 2 13 14
M  V30 14 1 14 15
M  V30 15 1 15 16
M  V30 16 2 15 17
M  V30 17 1 17 18
M  V30 18 1 17 19
M  V30 19 2 19 20
M  V30 20 1 20 21
M  V30 21 2 8 22
M  V30 22 1 22 23
M  V30 23 2 23 24
M  V30 24 1 24 25
M  V30 25 1 25 26
M  V30 26 2 26 27
M  V30 27 1 27 28
M  V30 28 2 28 29
M  V30 29 1 29 30
M  V30 30 2 30 31
M  V30 31 1 25 32
M  V30 32 2 32 33
M  V30 33 1 5 34
M  V30 34 1 34 35
M  V30 35 1 35 2
M  V30 36 1 33 6
M  V30 37 1 21 11
M  V30 38 1 32 22
M  V30 39 1 20 13
M  V30 40 1 31 26
M  V30 41 1 1 36
M  V30 42 1 1 37
M  V30 43 1 1 38
M  V30 44 1 3 39
M  V30 45 1 3 40
M  V30 46 1 4 41
M  V30 47 1 4 42
M  V30 48 1 9 43
M  V30 49 1 10 44
M  V30 50 1 10 45
M  V30 51 1 14 46
M  V30 52 1 19 47
M  V30 53 1 21 48
M  V30 54 1 24 49
M  V30 55 1 27 50
M  V30 56 1 28 51
M  V30 57 1 29 52
M  V30 58 1 31 53
M  V30 59 1 34 54
M  V30 60 1 34 55
M  V30 61 1 35 56
M  V30 62 1 35 57
M  V30 END BOND
M  V30 END CTAB
M  END
>  <Dataset>  (833) 
ChEMBL_Kinases

>  <Ligand_Instance>  (833) 
nan

>  <PDB_ID>  (833) 
nan

>  <Standardized_SMILES>  (833) 
CN1CCN(c2nc(NCc3nc4cc(Cl)c(Cl)cc4[nH]3)c3ncn(-c4cccnc4)c3n2)CC1

>  <Name>  (833) 
nan

>  <Pocket>  (833) 
nan

>  <ATP_Site>  (833) 
nan

>  <Peripheral>  (833) 
nan

>  <Num_H_Atoms_ProtBoundConf>  (833) 
nan

>  <Num_Resolved_Atoms>  (833) 
nan

>  <Num_Not_Resolved_Atoms>  (833) 
nan

$$$$
CHEMBL4211649
     RDKit          3D

  0  0  0  0  0  0  0  0  0  0999 V3000
M  V30 BEGIN CTAB
M  V30 COUNTS 51 55 0 0 0
M  V30 BEGIN ATOM
M  V30 1 N -4.483931 -2.419170 5.069355 0
M  V30 2 C -4.607703 -2.061946 3.962905 0
M  V30 3 C -4.740986 -1.611401 2.586040 0
M  V30 4 C -3.955003 -0.558695 2.169750 0
M  V30 5 C -4.022425 -0.065513 0.863416 0
M  V30 6 C -4.915331 -0.679351 -0.001292 0
M  V30 7 C -4.948702 -0.132218 -1.356030 0
M  V30 8 C -6.120619 0.155362 -2.027792 0
M  V30 9 N -5.785169 0.633681 -3.226891 0
M  V30 10 C -4.445921 0.671604 -3.368941 0
M  V30 11 C -3.553775 1.055579 -4.353713 0
M  V30 12 C -2.178968 0.980487 -4.217773 0
M  V30 13 C -1.725373 0.480016 -2.994053 0
M  V30 14 C -0.266258 0.401630 -2.856681 0
M  V30 15 C 0.270747 -0.600510 -2.071119 0
M  V30 16 C 1.652007 -0.655679 -1.956908 0
M  V30 17 C 2.478723 0.246305 -2.595112 0
M  V30 18 C 3.916580 0.053820 -2.376289 0
M  V30 19 O 4.561111 -0.034106 -3.450596 0
M  V30 20 N 4.396641 -0.008781 -1.016783 0
M  V30 21 C 3.755458 0.080099 0.300579 0
M  V30 22 C 3.990771 -1.236020 1.014640 0
M  V30 23 O 5.364525 -1.345987 1.223836 0
M  V30 24 C 5.961452 -1.487055 -0.023023 0
M  V30 25 C 5.833298 -0.199988 -0.830341 0
M  V30 26 C 1.935637 1.260634 -3.390118 0
M  V30 27 C 0.544132 1.320046 -3.508117 0
M  V30 28 C -2.629984 0.101365 -2.022306 0
M  V30 29 N -3.958100 0.197697 -2.210809 0
M  V30 30 C -5.697365 -1.729901 0.420590 0
M  V30 31 C -5.627132 -2.218338 1.722141 0
M  V30 32 H -3.265386 -0.114676 2.904888 0
M  V30 33 H -3.351308 0.761445 0.679311 0
M  V30 34 H -7.123064 0.010494 -1.631911 0
M  V30 35 H -4.042066 1.423154 -5.247762 0
M  V30 36 H -1.533465 1.301487 -5.034621 0
M  V30 37 H -0.383990 -1.295679 -1.579506 0
M  V30 38 H 1.998321 -1.462132 -1.327805 0
M  V30 39 H 2.664568 0.252217 0.214253 0
M  V30 40 H 4.262174 0.865215 0.873891 0
M  V30 41 H 3.596530 -2.036950 0.364897 0
M  V30 42 H 3.452093 -1.164115 1.982178 0
M  V30 43 H 7.065941 -1.639929 0.139483 0
M  V30 44 H 5.630724 -2.379498 -0.583486 0
M  V30 45 H 6.239489 0.605985 -0.162377 0
M  V30 46 H 6.383261 -0.301336 -1.768299 0
M  V30 47 H 2.621870 1.938271 -3.866370 0
M  V30 48 H 0.116792 2.097873 -4.118118 0
M  V30 49 H -2.173592 -0.273729 -1.117446 0
M  V30 50 H -6.372971 -2.163371 -0.300222 0
M  V30 51 H -6.236849 -3.045986 2.066217 0
M  V30 END ATOM
M  V30 BEGIN BOND
M  V30 1 3 1 2
M  V30 2 1 2 3
M  V30 3 2 3 4
M  V30 4 1 4 5
M  V30 5 2 5 6
M  V30 6 1 6 7
M  V30 7 2 7 8
M  V30 8 1 8 9
M  V30 9 2 9 10
M  V30 10 1 10 11
M  V30 11 2 11 12
M  V30 12 1 12 13
M  V30 13 1 13 14
M  V30 14 2 14 15
M  V30 15 1 15 16
M  V30 16 2 16 17
M  V30 17 1 17 18
M  V30 18 2 18 19
M  V30 19 1 18 20
M  V30 20 1 20 21
M  V30 21 1 21 22
M  V30 22 1 22 23
M  V30 23 1 23 24
M  V30 24 1 24 25
M  V30 25 1 17 26
M  V30 26 2 26 27
M  V30 27 2 13 28
M  V30 28 1 28 29
M  V30 29 1 6 30
M  V30 30 2 30 31
M  V30 31 1 31 3
M  V30 32 1 29 7
M  V30 33 1 29 10
M  V30 34 1 27 14
M  V30 35 1 25 20
M  V30 36 1 4 32
M  V30 37 1 5 33
M  V30 38 1 8 34
M  V30 39 1 11 35
M  V30 40 1 12 36
M  V30 41 1 15 37
M  V30 42 1 16 38
M  V30 43 1 21 39
M  V30 44 1 21 40
M  V30 45 1 22 41
M  V30 46 1 22 42
M  V30 47 1 24 43
M  V30 48 1 24 44
M  V30 49 1 25 45
M  V30 50 1 25 46
M  V30 51 1 26 47
M  V30 52 1 27 48
M  V30 53 1 28 49
M  V30 54 1 30 50
M  V30 55 1 31 51
M  V30 END BOND
M  V30 END CTAB
M  END
>  <Dataset>  (834) 
ChEMBL_Kinases

>  <Ligand_Instance>  (834) 
nan

>  <PDB_ID>  (834) 
nan

>  <Standardized_SMILES>  (834) 
N#Cc1ccc(-c2cnc3ccc(-c4ccc(C(=O)N5CCOCC5)cc4)cn23)cc1

>  <Name>  (834) 
TINODASERTIB

>  <Pocket>  (834) 
nan

>  <ATP_Site>  (834) 
nan

>  <Peripheral>  (834) 
nan

>  <Num_H_Atoms_ProtBoundConf>  (834) 
nan

>  <Num_Resolved_Atoms>  (834) 
nan

>  <Num_Not_Resolved_Atoms>  (834) 
nan

$$$$
CHEMBL4211479
     RDKit          3D

  0  0  0  0  0  0  0  0  0  0999 V3000
M  V30 BEGIN CTAB
M  V30 COUNTS 73 78 0 0 0
M  V30 BEGIN ATOM
M  V30 1 C 3.497704 -3.171004 4.824093 0
M  V30 2 C 3.359834 -4.603654 4.401667 0
M  V30 3 N 3.476341 -4.828770 2.988983 0
M  V30 4 C 2.408796 -4.309006 2.193182 0
M  V30 5 C 2.702905 -2.971590 1.592453 0
M  V30 6 N 3.967643 -2.868281 0.948947 0
M  V30 7 C 4.525481 -1.544564 1.131634 0
M  V30 8 C 3.629270 -0.502357 0.546179 0
M  V30 9 C 2.815552 0.302960 1.311337 0
M  V30 10 C 2.030108 1.211207 0.635306 0
M  V30 11 C 2.083381 1.280926 -0.734169 0
M  V30 12 N 1.263675 2.205800 -1.436711 0
M  V30 13 C 0.381649 3.049304 -0.665058 0
M  V30 14 N 0.546670 4.293028 -0.182704 0
M  V30 15 C -0.497902 4.800285 0.518679 0
M  V30 16 C -1.686665 4.147743 0.766131 0
M  V30 17 F -2.676632 4.720481 1.470861 0
M  V30 18 C -1.810752 2.867480 0.249039 0
M  V30 19 C -3.046243 2.082738 0.463559 0
M  V30 20 C -3.749264 1.943780 1.645180 0
M  V30 21 C -4.878651 1.155886 1.622644 0
M  V30 22 F -5.552079 1.039147 2.810546 0
M  V30 23 C -5.298270 0.526543 0.469366 0
M  V30 24 N -6.365499 -0.267046 0.280425 0
M  V30 25 C -6.362516 -0.645884 -1.015160 0
M  V30 26 N -5.295257 -0.080352 -1.602552 0
M  V30 27 C -4.606737 0.654520 -0.722821 0
M  V30 28 C -3.461822 1.449726 -0.712446 0
M  V30 29 C -5.210527 -0.427870 -2.987532 0
M  V30 30 C -3.934573 -1.189623 -3.272901 0
M  V30 31 C -5.173018 0.810089 -3.886013 0
M  V30 32 C -6.392325 -1.283934 -3.289916 0
M  V30 33 C -7.117301 -1.457298 -1.996983 0
M  V30 34 N -0.777408 2.371811 -0.442437 0
M  V30 35 N 2.902971 0.466398 -1.452786 0
M  V30 36 C 3.691827 -0.439980 -0.837908 0
M  V30 37 C 4.572350 -1.308830 -1.665672 0
M  V30 38 C 4.889459 -3.926012 1.168793 0
M  V30 39 C 4.794577 -4.625535 2.485105 0
M  V30 40 H 2.513153 -2.675746 4.838942 0
M  V30 41 H 4.267301 -2.631010 4.224711 0
M  V30 42 H 3.858111 -3.185114 5.894459 0
M  V30 43 H 4.166433 -5.191949 4.894373 0
M  V30 44 H 2.402816 -5.002429 4.794365 0
M  V30 45 H 2.196103 -5.032583 1.385296 0
M  V30 46 H 1.489403 -4.161663 2.829335 0
M  V30 47 H 2.625130 -2.165026 2.353662 0
M  V30 48 H 1.893350 -2.776275 0.838068 0
M  V30 49 H 5.532272 -1.479706 0.672185 0
M  V30 50 H 4.541035 -1.342073 2.221729 0
M  V30 51 H 2.810663 0.212297 2.385966 0
M  V30 52 H 1.378811 1.859561 1.202619 0
M  V30 53 H 1.292473 2.278375 -2.478652 0
M  V30 54 H -0.331118 5.810264 0.894765 0
M  V30 55 H -3.330612 2.480831 2.486734 0
M  V30 56 H -2.969940 1.511595 -1.658081 0
M  V30 57 H -3.752423 -1.127151 -4.365937 0
M  V30 58 H -3.071274 -0.671092 -2.808092 0
M  V30 59 H -3.991530 -2.259201 -3.035537 0
M  V30 60 H -6.178203 1.002846 -4.319279 0
M  V30 61 H -4.943066 1.666858 -3.218968 0
M  V30 62 H -4.382838 0.752390 -4.649081 0
M  V30 63 H -6.053594 -2.283390 -3.678082 0
M  V30 64 H -7.035185 -0.813432 -4.075062 0
M  V30 65 H -8.181622 -1.143030 -2.058370 0
M  V30 66 H -7.077665 -2.540285 -1.682449 0
M  V30 67 H 4.241407 -1.317433 -2.707634 0
M  V30 68 H 4.623165 -2.344080 -1.300116 0
M  V30 69 H 5.584710 -0.849682 -1.620872 0
M  V30 70 H 5.931473 -3.501220 1.115820 0
M  V30 71 H 4.857248 -4.689520 0.358793 0
M  V30 72 H 5.235779 -5.658379 2.346807 0
M  V30 73 H 5.452218 -4.167436 3.260373 0
M  V30 END ATOM
M  V30 BEGIN BOND
M  V30 1 1 1 2
M  V30 2 1 2 3
M  V30 3 1 3 4
M  V30 4 1 4 5
M  V30 5 1 5 6
M  V30 6 1 6 7
M  V30 7 1 7 8
M  V30 8 2 8 9
M  V30 9 1 9 10
M  V30 10 2 10 11
M  V30 11 1 11 12
M  V30 12 1 12 13
M  V30 13 2 13 14
M  V30 14 1 14 15
M  V30 15 2 15 16
M  V30 16 1 16 17
M  V30 17 1 16 18
M  V30 18 1 18 19
M  V30 19 2 19 20
M  V30 20 1 20 21
M  V30 21 1 21 22
M  V30 22 2 21 23
M  V30 23 1 23 24
M  V30 24 2 24 25
M  V30 25 1 25 26
M  V30 26 1 26 27
M  V30 27 2 27 28
M  V30 28 1 26 29
M  V30 29 1 29 30
M  V30 30 1 29 31
M  V30 31 1 29 32
M  V30 32 1 32 33
M  V30 33 2 18 34
M  V30 34 1 11 35
M  V30 35 2 35 36
M  V30 36 1 36 37
M  V30 37 1 6 38
M  V30 38 1 38 39
M  V30 39 1 39 3
M  V30 40 1 36 8
M  V30 41 1 34 13
M  V30 42 1 28 19
M  V30 43 1 27 23
M  V30 44 1 33 25
M  V30 45 1 1 40
M  V30 46 1 1 41
M  V30 47 1 1 42
M  V30 48 1 2 43
M  V30 49 1 2 44
M  V30 50 1 4 45
M  V30 51 1 4 46
M  V30 52 1 5 47
M  V30 53 1 5 48
M  V30 54 1 7 49
M  V30 55 1 7 50
M  V30 56 1 9 51
M  V30 57 1 10 52
M  V30 58 1 12 53
M  V30 59 1 15 54
M  V30 60 1 20 55
M  V30 61 1 28 56
M  V30 62 1 30 57
M  V30 63 1 30 58
M  V30 64 1 30 59
M  V30 65 1 31 60
M  V30 66 1 31 61
M  V30 67 1 31 62
M  V30 68 1 32 63
M  V30 69 1 32 64
M  V30 70 1 33 65
M  V30 71 1 33 66
M  V30 72 1 37 67
M  V30 73 1 37 68
M  V30 74 1 37 69
M  V30 75 1 38 70
M  V30 76 1 38 71
M  V30 77 1 39 72
M  V30 78 1 39 73
M  V30 END BOND
M  V30 END CTAB
M  END
>  <Dataset>  (835) 
ChEMBL_Kinases

>  <Ligand_Instance>  (835) 
nan

>  <PDB_ID>  (835) 
nan

>  <Standardized_SMILES>  (835) 
CCN1CCN(Cc2ccc(Nc3ncc(F)c(-c4cc(F)c5nc6n(c5c4)C(C)(C)CC6)n3)nc2C)CC1

>  <Name>  (835) 
nan

>  <Pocket>  (835) 
nan

>  <ATP_Site>  (835) 
nan

>  <Peripheral>  (835) 
nan

>  <Num_H_Atoms_ProtBoundConf>  (835) 
nan

>  <Num_Resolved_Atoms>  (835) 
nan

>  <Num_Not_Resolved_Atoms>  (835) 
nan

$$$$
CHEMBL3675488
     RDKit          3D

  0  0  0  0  0  0  0  0  0  0999 V3000
M  V30 BEGIN CTAB
M  V30 COUNTS 72 75 0 0 0
M  V30 BEGIN ATOM
M  V30 1 C -0.181202 -3.020221 2.475141 0
M  V30 2 N 0.878566 -2.193989 1.907867 0
M  V30 3 C 1.788448 -2.780244 0.977173 0
M  V30 4 C 1.389975 -2.716760 -0.455534 0
M  V30 5 N 1.214125 -1.370262 -0.961968 0
M  V30 6 C 2.302262 -0.454754 -1.017816 0
M  V30 7 N 3.522177 -0.837151 -0.601720 0
M  V30 8 C 4.621659 -0.092295 -0.601214 0
M  V30 9 N 4.511477 1.167245 -1.059943 0
M  V30 10 C 3.338733 1.650807 -1.499901 0
M  V30 11 C 3.163166 2.929411 -1.979633 0
M  V30 12 C 4.382639 3.722009 -1.965999 0
M  V30 13 N 4.810627 5.020606 -2.306041 0
M  V30 14 O 5.479313 3.281641 -1.564127 0
M  V30 15 C 1.980042 3.464720 -2.438921 0
M  V30 16 C 0.880573 2.598406 -2.397592 0
M  V30 17 C 1.030588 1.311232 -1.920939 0
M  V30 18 C 2.232634 0.828748 -1.475397 0
M  V30 19 C 0.239981 -3.529041 -0.832670 0
M  V30 20 C 0.355160 -4.807302 -1.345756 0
M  V30 21 C -0.704834 -5.633452 -1.725440 0
M  V30 22 C -1.959937 -5.082183 -1.555260 0
M  V30 23 C -2.158706 -3.809880 -1.048144 0
M  V30 24 N -3.492135 -3.288768 -0.895338 0
M  V30 25 C -4.316187 -3.428052 0.275672 0
M  V30 26 O -3.793596 -4.065011 1.226024 0
M  V30 27 C -5.650986 -2.840251 0.273993 0
M  V30 28 C -6.261960 -2.133801 -0.739709 0
M  V30 29 C -7.529130 -1.628643 -0.619525 0
M  V30 30 C -8.261106 -1.811874 0.549739 0
M  V30 31 F -9.524391 -1.305623 0.663583 0
M  V30 32 C -7.666901 -2.519071 1.582197 0
M  V30 33 F -8.345938 -2.724945 2.748057 0
M  V30 34 C -6.387709 -3.022639 1.445933 0
M  V30 35 C -1.050135 -3.032982 -0.686323 0
M  V30 36 C 0.818862 -0.865922 2.407401 0
M  V30 37 O -0.171399 -0.810735 3.216015 0
M  V30 38 O 1.589418 0.241681 2.170354 0
M  V30 39 C 1.383007 1.499472 2.764837 0
M  V30 40 C 1.475476 1.466958 4.261658 0
M  V30 41 C 0.025823 2.086819 2.405545 0
M  V30 42 C 2.469096 2.428511 2.267603 0
M  V30 43 H -0.092389 -3.132631 3.563597 0
M  V30 44 H -1.144244 -2.491504 2.240927 0
M  V30 45 H -0.249113 -3.981278 1.942092 0
M  V30 46 H 2.024016 -3.856243 1.234080 0
M  V30 47 H 2.770608 -2.281136 1.094675 0
M  V30 48 H 2.254667 -3.137831 -1.059012 0
M  V30 49 H 0.253268 -1.120105 -1.276066 0
M  V30 50 H 5.551381 -0.516409 -0.237892 0
M  V30 51 H 4.618763 5.819246 -2.966521 0
M  V30 52 H 4.287381 5.503267 -3.097966 0
M  V30 53 H 1.921583 4.483247 -2.802188 0
M  V30 54 H -0.057207 3.001620 -2.754526 0
M  V30 55 H 0.124283 0.725167 -1.930647 0
M  V30 56 H 1.357639 -5.218430 -1.470376 0
M  V30 57 H -0.509986 -6.619771 -2.116538 0
M  V30 58 H -2.836047 -5.685723 -1.837286 0
M  V30 59 H -3.787458 -2.787652 -1.761441 0
M  V30 60 H -5.665023 -2.010387 -1.633187 0
M  V30 61 H -7.942244 -1.083407 -1.460531 0
M  V30 62 H -5.962322 -3.576076 2.293712 0
M  V30 63 H -1.271455 -2.048445 -0.296235 0
M  V30 64 H 2.049326 2.321469 4.687490 0
M  V30 65 H 0.459967 1.534910 4.743960 0
M  V30 66 H 1.948889 0.551033 4.666654 0
M  V30 67 H 0.137440 2.668735 1.457191 0
M  V30 68 H -0.322368 2.806542 3.173345 0
M  V30 69 H -0.737367 1.304755 2.251279 0
M  V30 70 H 2.017999 3.412645 1.960729 0
M  V30 71 H 2.957071 2.030787 1.339707 0
M  V30 72 H 3.297636 2.573058 2.997724 0
M  V30 END ATOM
M  V30 BEGIN BOND
M  V30 1 1 1 2
M  V30 2 1 2 3
M  V30 3 1 3 4
M  V30 4 1 4 5
M  V30 5 1 5 6
M  V30 6 2 6 7
M  V30 7 1 7 8
M  V30 8 2 8 9
M  V30 9 1 9 10
M  V30 10 2 10 11
M  V30 11 1 11 12
M  V30 12 1 12 13
M  V30 13 2 12 14
M  V30 14 1 11 15
M  V30 15 2 15 16
M  V30 16 1 16 17
M  V30 17 2 17 18
M  V30 18 1 4 19
M  V30 19 2 19 20
M  V30 20 1 20 21
M  V30 21 2 21 22
M  V30 22 1 22 23
M  V30 23 1 23 24
M  V30 24 1 24 25
M  V30 25 2 25 26
M  V30 26 1 25 27
M  V30 27 2 27 28
M  V30 28 1 28 29
M  V30 29 2 29 30
M  V30 30 1 30 31
M  V30 31 1 30 32
M  V30 32 1 32 33
M  V30 33 2 32 34
M  V30 34 2 23 35
M  V30 35 1 2 36
M  V30 36 2 36 37
M  V30 37 1 36 38
M  V30 38 1 38 39
M  V30 39 1 39 40
M  V30 40 1 39 41
M  V30 41 1 39 42
M  V30 42 1 18 6
M  V30 43 1 35 19
M  V30 44 1 18 10
M  V30 45 1 34 27
M  V30 46 1 1 43
M  V30 47 1 1 44
M  V30 48 1 1 45
M  V30 49 1 3 46
M  V30 50 1 3 47
M  V30 51 1 4 48
M  V30 52 1 5 49
M  V30 53 1 8 50
M  V30 54 1 13 51
M  V30 55 1 13 52
M  V30 56 1 15 53
M  V30 57 1 16 54
M  V30 58 1 17 55
M  V30 59 1 20 56
M  V30 60 1 21 57
M  V30 61 1 22 58
M  V30 62 1 24 59
M  V30 63 1 28 60
M  V30 64 1 29 61
M  V30 65 1 34 62
M  V30 66 1 35 63
M  V30 67 1 40 64
M  V30 68 1 40 65
M  V30 69 1 40 66
M  V30 70 1 41 67
M  V30 71 1 41 68
M  V30 72 1 41 69
M  V30 73 1 42 70
M  V30 74 1 42 71
M  V30 75 1 42 72
M  V30 END BOND
M  V30 END CTAB
M  END
>  <Dataset>  (836) 
ChEMBL_Kinases

>  <Ligand_Instance>  (836) 
nan

>  <PDB_ID>  (836) 
nan

>  <Standardized_SMILES>  (836) 
CN(CC(Nc1ncnc2c(C(N)=O)cccc12)c1cccc(NC(=O)c2ccc(F)c(F)c2)c1)C(=O)OC(C)(C)C

>  <Name>  (836) 
nan

>  <Pocket>  (836) 
nan

>  <ATP_Site>  (836) 
nan

>  <Peripheral>  (836) 
nan

>  <Num_H_Atoms_ProtBoundConf>  (836) 
nan

>  <Num_Resolved_Atoms>  (836) 
nan

>  <Num_Not_Resolved_Atoms>  (836) 
nan

$$$$
CHEMBL4211301
     RDKit          3D

  0  0  0  0  0  0  0  0  0  0999 V3000
M  V30 BEGIN CTAB
M  V30 COUNTS 53 58 0 0 0
M  V30 BEGIN ATOM
M  V30 1 F 3.328996 -5.103957 3.037760 0
M  V30 2 C 3.481081 -3.788894 2.755066 0
M  V30 3 C 4.685649 -3.131704 2.935509 0
M  V30 4 C 4.964729 -1.809585 2.686935 0
M  V30 5 C 3.908702 -1.052099 2.197852 0
M  V30 6 C 2.660102 -1.638791 1.987675 0
M  V30 7 N 1.505207 -0.990978 1.502203 0
M  V30 8 C 0.902025 0.002545 2.202401 0
M  V30 9 N -0.176060 0.482774 1.575195 0
M  V30 10 C -0.319009 -0.199281 0.409645 0
M  V30 11 C -1.162271 -0.255418 -0.705104 0
M  V30 12 N -2.162569 0.718716 -0.535863 0
M  V30 13 C -3.167545 1.697139 -0.366216 0
M  V30 14 C -2.953368 2.395692 1.018853 0
M  V30 15 N -2.415538 3.296052 1.492047 0
M  V30 16 C -2.368857 3.714586 2.734121 0
M  V30 17 C -1.717459 4.802276 3.280847 0
M  V30 18 C -1.827403 5.031951 4.633348 0
M  V30 19 C -2.552756 4.250874 5.528030 0
M  V30 20 C -3.224830 3.151393 5.043242 0
M  V30 21 C -3.080354 2.962434 3.660220 0
M  V30 22 S -3.794650 1.624146 2.529959 0
M  V30 23 N -0.921986 -1.132301 -1.677018 0
M  V30 24 C 0.103767 -1.986978 -1.655945 0
M  V30 25 N 0.151507 -2.830974 -2.790235 0
M  V30 26 C -0.976372 -2.943257 -3.703200 0
M  V30 27 C -1.375285 -4.420868 -3.771597 0
M  V30 28 O -0.296228 -5.214407 -4.096578 0
M  V30 29 C 0.767564 -5.098567 -3.209115 0
M  V30 30 C 1.240823 -3.668498 -3.223681 0
M  V30 31 N 0.898277 -1.923393 -0.592007 0
M  V30 32 C 0.743224 -1.087853 0.425709 0
M  V30 33 C 2.451701 -2.973720 2.259325 0
M  V30 34 H 5.497882 -3.756933 3.321912 0
M  V30 35 H 5.916602 -1.333346 2.839920 0
M  V30 36 H 3.957069 -0.001905 1.950370 0
M  V30 37 H 1.133147 0.466145 3.158444 0
M  V30 38 H -2.660760 0.510887 -1.471286 0
M  V30 39 H -4.222188 1.342908 -0.332545 0
M  V30 40 H -3.011506 2.585637 -1.019331 0
M  V30 41 H -1.118697 5.497776 2.717911 0
M  V30 42 H -1.305424 5.903263 5.068969 0
M  V30 43 H -2.654479 4.408526 6.588298 0
M  V30 44 H -3.832252 2.430086 5.566464 0
M  V30 45 H -0.648882 -2.620428 -4.697039 0
M  V30 46 H -1.873148 -2.389926 -3.345553 0
M  V30 47 H -1.780661 -4.726286 -2.772722 0
M  V30 48 H -2.166002 -4.558701 -4.512893 0
M  V30 49 H 0.392065 -5.382029 -2.200776 0
M  V30 50 H 1.550298 -5.814458 -3.536367 0
M  V30 51 H 2.169319 -3.524580 -2.633156 0
M  V30 52 H 1.431967 -3.433154 -4.311732 0
M  V30 53 H 1.510903 -3.496519 2.119331 0
M  V30 END ATOM
M  V30 BEGIN BOND
M  V30 1 1 1 2
M  V30 2 2 2 3
M  V30 3 1 3 4
M  V30 4 2 4 5
M  V30 5 1 5 6
M  V30 6 1 6 7
M  V30 7 1 7 8
M  V30 8 2 8 9
M  V30 9 1 9 10
M  V30 10 2 10 11
M  V30 11 1 11 12
M  V30 12 1 12 13
M  V30 13 1 13 14
M  V30 14 2 14 15
M  V30 15 1 15 16
M  V30 16 2 16 17
M  V30 17 1 17 18
M  V30 18 2 18 19
M  V30 19 1 19 20
M  V30 20 2 20 21
M  V30 21 1 21 22
M  V30 22 1 11 23
M  V30 23 2 23 24
M  V30 24 1 24 25
M  V30 25 1 25 26
M  V30 26 1 26 27
M  V30 27 1 27 28
M  V30 28 1 28 29
M  V30 29 1 29 30
M  V30 30 1 24 31
M  V30 31 2 31 32
M  V30 32 2 6 33
M  V30 33 1 33 2
M  V30 34 1 32 7
M  V30 35 1 32 10
M  V30 36 1 22 14
M  V30 37 1 30 25
M  V30 38 1 21 16
M  V30 39 1 3 34
M  V30 40 1 4 35
M  V30 41 1 5 36
M  V30 42 1 8 37
M  V30 43 1 12 38
M  V30 44 1 13 39
M  V30 45 1 13 40
M  V30 46 1 17 41
M  V30 47 1 18 42
M  V30 48 1 19 43
M  V30 49 1 20 44
M  V30 50 1 26 45
M  V30 51 1 26 46
M  V30 52 1 27 47
M  V30 53 1 27 48
M  V30 54 1 29 49
M  V30 55 1 29 50
M  V30 56 1 30 51
M  V30 57 1 30 52
M  V30 58 1 33 53
M  V30 END BOND
M  V30 END CTAB
M  END
>  <Dataset>  (837) 
ChEMBL_Kinases

>  <Ligand_Instance>  (837) 
nan

>  <PDB_ID>  (837) 
nan

>  <Standardized_SMILES>  (837) 
Fc1cccc(-n2cnc3c(NCc4nc5ccccc5s4)nc(N4CCOCC4)nc32)c1

>  <Name>  (837) 
nan

>  <Pocket>  (837) 
nan

>  <ATP_Site>  (837) 
nan

>  <Peripheral>  (837) 
nan

>  <Num_H_Atoms_ProtBoundConf>  (837) 
nan

>  <Num_Resolved_Atoms>  (837) 
nan

>  <Num_Not_Resolved_Atoms>  (837) 
nan

$$$$
CHEMBL4211222
     RDKit          3D

  0  0  0  0  0  0  0  0  0  0999 V3000
M  V30 BEGIN CTAB
M  V30 COUNTS 67 72 0 0 0
M  V30 BEGIN ATOM
M  V30 1 C 4.450820 -2.401223 3.580563 0
M  V30 2 N 5.806456 -2.497372 3.115739 0
M  V30 3 C 5.902160 -3.001634 1.760844 0
M  V30 4 C 5.036882 -2.185009 0.852490 0
M  V30 5 N 4.941771 -0.783919 1.275352 0
M  V30 6 C 3.964950 -0.015690 0.588366 0
M  V30 7 C 3.175975 -0.577315 -0.399149 0
M  V30 8 C 2.231176 0.173054 -1.061069 0
M  V30 9 C 2.026972 1.505109 -0.775898 0
M  V30 10 C 1.065810 2.462438 -1.369966 0
M  V30 11 N -0.191400 2.538884 -0.676679 0
M  V30 12 C -1.149190 1.513605 -0.492498 0
M  V30 13 N -1.024457 0.262859 -0.966678 0
M  V30 14 C -1.943697 -0.702897 -0.789069 0
M  V30 15 N -1.820061 -2.028528 -1.293374 0
M  V30 16 C -2.836901 -3.022416 -0.973767 0
M  V30 17 C -3.351700 -3.572924 -2.280638 0
M  V30 18 O -2.264869 -4.188503 -2.898702 0
M  V30 19 C -1.290874 -3.295350 -3.270614 0
M  V30 20 C -0.735008 -2.472027 -2.121340 0
M  V30 21 N -3.046657 -0.377788 -0.092413 0
M  V30 22 C -3.293954 0.833294 0.434431 0
M  V30 23 C -2.321346 1.782056 0.222563 0
M  V30 24 N -2.746248 2.914671 0.818981 0
M  V30 25 C -3.955047 2.705366 1.398205 0
M  V30 26 N -4.271952 1.419949 1.149281 0
M  V30 27 C -5.442491 0.708708 1.544380 0
M  V30 28 C -5.400506 -0.303801 2.506544 0
M  V30 29 C -6.564664 -0.967605 2.858475 0
M  V30 30 C -7.781540 -0.676917 2.300275 0
M  V30 31 C -7.851188 0.323167 1.343329 0
M  V30 32 F -9.019062 0.680441 0.734175 0
M  V30 33 C -6.685526 0.976478 1.001617 0
M  V30 34 N 2.804661 2.057535 0.196900 0
M  V30 35 C 3.722487 1.321913 0.837397 0
M  V30 36 C 5.749350 -0.185089 2.299051 0
M  V30 37 C 6.457342 -1.193815 3.155969 0
M  V30 38 H 3.776711 -2.996075 2.942844 0
M  V30 39 H 4.338726 -2.761129 4.630892 0
M  V30 40 H 4.066247 -1.356219 3.573691 0
M  V30 41 H 6.957463 -2.850861 1.432016 0
M  V30 42 H 5.579366 -4.049599 1.709821 0
M  V30 43 H 5.359587 -2.247421 -0.191335 0
M  V30 44 H 3.998948 -2.619134 0.945544 0
M  V30 45 H 3.270729 -1.602880 -0.680287 0
M  V30 46 H 1.587316 -0.195404 -1.838740 0
M  V30 47 H 1.551452 3.448009 -1.492643 0
M  V30 48 H 0.880671 2.071058 -2.417337 0
M  V30 49 H -0.405948 3.479126 -0.263451 0
M  V30 50 H -3.713892 -2.497380 -0.500489 0
M  V30 51 H -2.446091 -3.795415 -0.305554 0
M  V30 52 H -4.092654 -4.361959 -2.099817 0
M  V30 53 H -3.727774 -2.715318 -2.876852 0
M  V30 54 H -0.433693 -3.892183 -3.663966 0
M  V30 55 H -1.630937 -2.572173 -4.044047 0
M  V30 56 H -0.125960 -3.162194 -1.509620 0
M  V30 57 H -0.162186 -1.634845 -2.569204 0
M  V30 58 H -4.625915 3.341112 1.964513 0
M  V30 59 H -4.440482 -0.553449 2.966090 0
M  V30 60 H -6.529269 -1.753096 3.605564 0
M  V30 61 H -8.694815 -1.195446 2.574235 0
M  V30 62 H -6.680313 1.763430 0.262650 0
M  V30 63 H 4.331336 1.778369 1.607639 0
M  V30 64 H 5.162747 0.480261 2.941689 0
M  V30 65 H 6.545006 0.447429 1.828558 0
M  V30 66 H 6.445603 -0.864981 4.215414 0
M  V30 67 H 7.520307 -1.361553 2.843882 0
M  V30 END ATOM
M  V30 BEGIN BOND
M  V30 1 1 1 2
M  V30 2 1 2 3
M  V30 3 1 3 4
M  V30 4 1 4 5
M  V30 5 1 5 6
M  V30 6 2 6 7
M  V30 7 1 7 8
M  V30 8 2 8 9
M  V30 9 1 9 10
M  V30 10 1 10 11
M  V30 11 1 11 12
M  V30 12 2 12 13
M  V30 13 1 13 14
M  V30 14 1 14 15
M  V30 15 1 15 16
M  V30 16 1 16 17
M  V30 17 1 17 18
M  V30 18 1 18 19
M  V30 19 1 19 20
M  V30 20 2 14 21
M  V30 21 1 21 22
M  V30 22 2 22 23
M  V30 23 1 23 24
M  V30 24 2 24 25
M  V30 25 1 25 26
M  V30 26 1 26 27
M  V30 27 2 27 28
M  V30 28 1 28 29
M  V30 29 2 29 30
M  V30 30 1 30 31
M  V30 31 1 31 32
M  V30 32 2 31 33
M  V30 33 1 9 34
M  V30 34 2 34 35
M  V30 35 1 5 36
M  V30 36 1 36 37
M  V30 37 1 37 2
M  V30 38 1 35 6
M  V30 39 1 23 12
M  V30 40 1 33 27
M  V30 41 1 20 15
M  V30 42 1 26 22
M  V30 43 1 1 38
M  V30 44 1 1 39
M  V30 45 1 1 40
M  V30 46 1 3 41
M  V30 47 1 3 42
M  V30 48 1 4 43
M  V30 49 1 4 44
M  V30 50 1 7 45
M  V30 51 1 8 46
M  V30 52 1 10 47
M  V30 53 1 10 48
M  V30 54 1 11 49
M  V30 55 1 16 50
M  V30 56 1 16 51
M  V30 57 1 17 52
M  V30 58 1 17 53
M  V30 59 1 19 54
M  V30 60 1 19 55
M  V30 61 1 20 56
M  V30 62 1 20 57
M  V30 63 1 25 58
M  V30 64 1 28 59
M  V30 65 1 29 60
M  V30 66 1 30 61
M  V30 67 1 33 62
M  V30 68 1 35 63
M  V30 69 1 36 64
M  V30 70 1 36 65
M  V30 71 1 37 66
M  V30 72 1 37 67
M  V30 END BOND
M  V30 END CTAB
M  END
>  <Dataset>  (838) 
ChEMBL_Kinases

>  <Ligand_Instance>  (838) 
nan

>  <PDB_ID>  (838) 
nan

>  <Standardized_SMILES>  (838) 
CN1CCN(c2ccc(CNc3nc(N4CCOCC4)nc4c3ncn4-c3cccc(F)c3)nc2)CC1

>  <Name>  (838) 
nan

>  <Pocket>  (838) 
nan

>  <ATP_Site>  (838) 
nan

>  <Peripheral>  (838) 
nan

>  <Num_H_Atoms_ProtBoundConf>  (838) 
nan

>  <Num_Resolved_Atoms>  (838) 
nan

>  <Num_Not_Resolved_Atoms>  (838) 
nan

$$$$
CHEMBL4211162
     RDKit          3D

  0  0  0  0  0  0  0  0  0  0999 V3000
M  V30 BEGIN CTAB
M  V30 COUNTS 69 73 0 0 0
M  V30 BEGIN ATOM
M  V30 1 C 7.709363 0.448281 3.700382 0
M  V30 2 C 7.511325 -1.016016 3.855865 0
M  V30 3 N 6.431285 -1.590681 3.149776 0
M  V30 4 C 5.109409 -1.256518 3.561036 0
M  V30 5 C 4.456251 -0.226390 2.665285 0
M  V30 6 N 4.398189 -0.620841 1.279437 0
M  V30 7 C 3.056619 -0.859502 0.850378 0
M  V30 8 C 2.178346 0.324940 0.894173 0
M  V30 9 C 2.133664 1.069832 -0.292228 0
M  V30 10 C 1.315294 2.204377 -0.337968 0
M  V30 11 C 0.569044 2.572851 0.775618 0
M  V30 12 N -0.182991 3.737040 0.449123 0
M  V30 13 C -1.509658 3.415988 0.029208 0
M  V30 14 C -2.040856 2.126401 0.069349 0
M  V30 15 C -3.298604 1.721602 -0.330598 0
M  V30 16 C -3.638949 0.305979 -0.191862 0
M  V30 17 C -3.301298 -0.206810 1.066907 0
M  V30 18 C -3.540871 -1.528800 1.373650 0
M  V30 19 F -3.219421 -2.023475 2.592575 0
M  V30 20 C -4.115123 -2.333963 0.425318 0
M  V30 21 N -4.470902 -3.622242 0.368489 0
M  V30 22 C -5.006464 -3.926359 -0.847799 0
M  V30 23 C -5.405569 -5.349908 -0.966031 0
M  V30 24 N -5.007409 -2.818183 -1.613837 0
M  V30 25 C -5.518795 -2.838181 -2.933213 0
M  V30 26 C -6.753168 -3.722921 -2.980606 0
M  V30 27 C -5.955923 -1.504592 -3.496649 0
M  V30 28 C -4.468059 -1.872718 -0.836993 0
M  V30 29 C -4.211860 -0.551677 -1.098693 0
M  V30 30 C -4.101745 2.723272 -0.821582 0
M  V30 31 F -5.344440 2.349414 -1.224099 0
M  V30 32 C -3.610624 4.023178 -0.878686 0
M  V30 33 N -2.358520 4.328880 -0.461910 0
M  V30 34 N 0.664624 1.808230 1.879692 0
M  V30 35 N 1.440332 0.734504 1.919677 0
M  V30 36 C 5.265611 -1.717892 1.003088 0
M  V30 37 C 6.594809 -1.569611 1.708973 0
M  V30 38 H 7.685927 0.782442 2.640962 0
M  V30 39 H 7.059188 1.068513 4.341197 0
M  V30 40 H 8.749507 0.693098 4.058855 0
M  V30 41 H 7.467636 -1.256260 4.948257 0
M  V30 42 H 8.452975 -1.530184 3.514345 0
M  V30 43 H 4.477764 -2.188323 3.439965 0
M  V30 44 H 5.088747 -0.993055 4.611367 0
M  V30 45 H 4.928624 0.788385 2.812357 0
M  V30 46 H 3.392233 -0.070553 3.005240 0
M  V30 47 H 3.090208 -1.282386 -0.190078 0
M  V30 48 H 2.588882 -1.655596 1.502530 0
M  V30 49 H 2.736825 0.762590 -1.164177 0
M  V30 50 H 1.356321 2.707392 -1.303282 0
M  V30 51 H 0.060262 4.741665 0.465694 0
M  V30 52 H -1.385649 1.341868 0.464745 0
M  V30 53 H -2.849039 0.380930 1.853940 0
M  V30 54 H -6.311946 -5.501498 -0.335055 0
M  V30 55 H -4.646552 -6.048865 -0.489118 0
M  V30 56 H -5.483313 -5.716236 -1.990817 0
M  V30 57 H -4.713866 -3.280722 -3.589507 0
M  V30 58 H -7.601829 -3.136617 -3.452796 0
M  V30 59 H -6.611975 -4.565981 -3.701443 0
M  V30 60 H -7.146009 -4.007704 -2.002593 0
M  V30 61 H -6.507047 -0.873850 -2.778229 0
M  V30 62 H -5.162498 -0.990043 -4.070752 0
M  V30 63 H -6.743064 -1.701703 -4.302946 0
M  V30 64 H -4.436786 -0.097053 -2.044304 0
M  V30 65 H -4.291342 4.792507 -1.282136 0
M  V30 66 H 5.463763 -1.787330 -0.099677 0
M  V30 67 H 4.781051 -2.673818 1.352184 0
M  V30 68 H 7.188938 -0.733049 1.338909 0
M  V30 69 H 7.157986 -2.511836 1.445441 0
M  V30 END ATOM
M  V30 BEGIN BOND
M  V30 1 1 1 2
M  V30 2 1 2 3
M  V30 3 1 3 4
M  V30 4 1 4 5
M  V30 5 1 5 6
M  V30 6 1 6 7
M  V30 7 1 7 8
M  V30 8 2 8 9
M  V30 9 1 9 10
M  V30 10 2 10 11
M  V30 11 1 11 12
M  V30 12 1 12 13
M  V30 13 2 13 14
M  V30 14 1 14 15
M  V30 15 1 15 16
M  V30 16 2 16 17
M  V30 17 1 17 18
M  V30 18 1 18 19
M  V30 19 2 18 20
M  V30 20 1 20 21
M  V30 21 2 21 22
M  V30 22 1 22 23
M  V30 23 1 22 24
M  V30 24 1 24 25
M  V30 25 1 25 26
M  V30 26 1 25 27
M  V30 27 1 24 28
M  V30 28 2 28 29
M  V30 29 2 15 30
M  V30 30 1 30 31
M  V30 31 1 30 32
M  V30 32 2 32 33
M  V30 33 1 11 34
M  V30 34 2 34 35
M  V30 35 1 6 36
M  V30 36 1 36 37
M  V30 37 1 37 3
M  V30 38 1 35 8
M  V30 39 1 33 13
M  V30 40 1 29 16
M  V30 41 1 28 20
M  V30 42 1 1 38
M  V30 43 1 1 39
M  V30 44 1 1 40
M  V30 45 1 2 41
M  V30 46 1 2 42
M  V30 47 1 4 43
M  V30 48 1 4 44
M  V30 49 1 5 45
M  V30 50 1 5 46
M  V30 51 1 7 47
M  V30 52 1 7 48
M  V30 53 1 9 49
M  V30 54 1 10 50
M  V30 55 1 12 51
M  V30 56 1 14 52
M  V30 57 1 17 53
M  V30 58 1 23 54
M  V30 59 1 23 55
M  V30 60 1 23 56
M  V30 61 1 25 57
M  V30 62 1 26 58
M  V30 63 1 26 59
M  V30 64 1 26 60
M  V30 65 1 27 61
M  V30 66 1 27 62
M  V30 67 1 27 63
M  V30 68 1 29 64
M  V30 69 1 32 65
M  V30 70 1 36 66
M  V30 71 1 36 67
M  V30 72 1 37 68
M  V30 73 1 37 69
M  V30 END BOND
M  V30 END CTAB
M  END
>  <Dataset>  (839) 
ChEMBL_Kinases

>  <Ligand_Instance>  (839) 
nan

>  <PDB_ID>  (839) 
nan

>  <Standardized_SMILES>  (839) 
CCN1CCN(Cc2ccc(Nc3cc(-c4cc(F)c5nc(C)n(C(C)C)c5c4)c(F)cn3)nn2)CC1

>  <Name>  (839) 
nan

>  <Pocket>  (839) 
nan

>  <ATP_Site>  (839) 
nan

>  <Peripheral>  (839) 
nan

>  <Num_H_Atoms_ProtBoundConf>  (839) 
nan

>  <Num_Resolved_Atoms>  (839) 
nan

>  <Num_Not_Resolved_Atoms>  (839) 
nan

$$$$
CHEMBL4211128
     RDKit          3D

  0  0  0  0  0  0  0  0  0  0999 V3000
M  V30 BEGIN CTAB
M  V30 COUNTS 60 65 0 0 0
M  V30 BEGIN ATOM
M  V30 1 C 2.793944 -4.921567 4.529200 0
M  V30 2 C 3.359899 -4.458915 3.240311 0
M  V30 3 C 3.184726 -3.134370 2.894438 0
M  V30 4 C 3.692748 -2.635624 1.695286 0
M  V30 5 N 3.473250 -1.251832 1.401668 0
M  V30 6 C 4.188102 -0.151776 1.683638 0
M  V30 7 N 3.526745 0.890525 1.174917 0
M  V30 8 C 2.395005 0.446796 0.572436 0
M  V30 9 C 1.411357 1.175636 -0.085117 0
M  V30 10 N 1.489493 2.582607 -0.215339 0
M  V30 11 C 0.532734 3.450838 -0.870506 0
M  V30 12 C -0.761157 3.343149 -0.152061 0
M  V30 13 N -0.981797 4.178916 0.896831 0
M  V30 14 C -2.187499 3.950653 1.420231 0
M  V30 15 C -2.831581 4.545393 2.478191 0
M  V30 16 F -2.218297 5.549977 3.176817 0
M  V30 17 C -4.086213 4.114427 2.812656 0
M  V30 18 F -4.729291 4.694676 3.854183 0
M  V30 19 C -4.668905 3.088907 2.071490 0
M  V30 20 C -4.026795 2.476822 0.995890 0
M  V30 21 C -2.767679 2.940285 0.693848 0
M  V30 22 N -1.874657 2.603868 -0.242993 0
M  V30 23 N 0.410104 0.437911 -0.576602 0
M  V30 24 C 0.315708 -0.878245 -0.473174 0
M  V30 25 N -0.737987 -1.685442 -0.991002 0
M  V30 26 C -0.791878 -3.105233 -0.811830 0
M  V30 27 C -2.158564 -3.668512 -1.005387 0
M  V30 28 N -2.822167 -3.227751 -2.189962 0
M  V30 29 C -3.144723 -4.278443 -3.117350 0
M  V30 30 C -2.230506 -2.087604 -2.813258 0
M  V30 31 C -1.830084 -1.092816 -1.743409 0
M  V30 32 N 1.306074 -1.514222 0.177279 0
M  V30 33 C 2.368024 -0.899866 0.718804 0
M  V30 34 C 4.375640 -3.515524 0.870042 0
M  V30 35 C 4.521060 -4.835429 1.268962 0
M  V30 36 N 4.029733 -5.316299 2.427974 0
M  V30 37 H 3.453261 -5.744891 4.915540 0
M  V30 38 H 1.770758 -5.323343 4.413468 0
M  V30 39 H 2.744228 -4.066847 5.235632 0
M  V30 40 H 2.641402 -2.480919 3.574295 0
M  V30 41 H 5.127107 -0.233049 2.237656 0
M  V30 42 H 2.345444 3.044351 0.217099 0
M  V30 43 H 0.908421 4.473063 -0.916732 0
M  V30 44 H 0.322156 3.034434 -1.899152 0
M  V30 45 H -5.656844 2.771990 2.359084 0
M  V30 46 H -4.457414 1.694633 0.421737 0
M  V30 47 H -1.935232 1.882716 -0.991039 0
M  V30 48 H -0.483225 -3.340075 0.249265 0
M  V30 49 H -0.031554 -3.630810 -1.429051 0
M  V30 50 H -2.094158 -4.789217 -1.038629 0
M  V30 51 H -2.792444 -3.350761 -0.133542 0
M  V30 52 H -2.484601 -5.134795 -2.885553 0
M  V30 53 H -4.204884 -4.554227 -2.983799 0
M  V30 54 H -2.969537 -3.941335 -4.159797 0
M  V30 55 H -3.036738 -1.601941 -3.417595 0
M  V30 56 H -1.388713 -2.276634 -3.479429 0
M  V30 57 H -1.499976 -0.125539 -2.217250 0
M  V30 58 H -2.682464 -0.915405 -1.062663 0
M  V30 59 H 4.760961 -3.117994 -0.048837 0
M  V30 60 H 5.076152 -5.430284 0.537056 0
M  V30 END ATOM
M  V30 BEGIN BOND
M  V30 1 1 1 2
M  V30 2 2 2 3
M  V30 3 1 3 4
M  V30 4 1 4 5
M  V30 5 1 5 6
M  V30 6 2 6 7
M  V30 7 1 7 8
M  V30 8 2 8 9
M  V30 9 1 9 10
M  V30 10 1 10 11
M  V30 11 1 11 12
M  V30 12 2 12 13
M  V30 13 1 13 14
M  V30 14 2 14 15
M  V30 15 1 15 16
M  V30 16 1 15 17
M  V30 17 1 17 18
M  V30 18 2 17 19
M  V30 19 1 19 20
M  V30 20 2 20 21
M  V30 21 1 21 22
M  V30 22 1 9 23
M  V30 23 2 23 24
M  V30 24 1 24 25
M  V30 25 1 25 26
M  V30 26 1 26 27
M  V30 27 1 27 28
M  V30 28 1 28 29
M  V30 29 1 28 30
M  V30 30 1 30 31
M  V30 31 1 24 32
M  V30 32 2 32 33
M  V30 33 2 4 34
M  V30 34 1 34 35
M  V30 35 2 35 36
M  V30 36 1 36 2
M  V30 37 1 33 5
M  V30 38 1 33 8
M  V30 39 1 22 12
M  V30 40 1 31 25
M  V30 41 1 21 14
M  V30 42 1 1 37
M  V30 43 1 1 38
M  V30 44 1 1 39
M  V30 45 1 3 40
M  V30 46 1 6 41
M  V30 47 1 10 42
M  V30 48 1 11 43
M  V30 49 1 11 44
M  V30 50 1 19 45
M  V30 51 1 20 46
M  V30 52 1 22 47
M  V30 53 1 26 48
M  V30 54 1 26 49
M  V30 55 1 27 50
M  V30 56 1 27 51
M  V30 57 1 29 52
M  V30 58 1 29 53
M  V30 59 1 29 54
M  V30 60 1 30 55
M  V30 61 1 30 56
M  V30 62 1 31 57
M  V30 63 1 31 58
M  V30 64 1 34 59
M  V30 65 1 35 60
M  V30 END BOND
M  V30 END CTAB
M  END
>  <Dataset>  (840) 
ChEMBL_Kinases

>  <Ligand_Instance>  (840) 
nan

>  <PDB_ID>  (840) 
nan

>  <Standardized_SMILES>  (840) 
Cc1cc(-n2cnc3c(NCc4nc5c(F)c(F)ccc5[nH]4)nc(N4CCN(C)CC4)nc32)ccn1

>  <Name>  (840) 
nan

>  <Pocket>  (840) 
nan

>  <ATP_Site>  (840) 
nan

>  <Peripheral>  (840) 
nan

>  <Num_H_Atoms_ProtBoundConf>  (840) 
nan

>  <Num_Resolved_Atoms>  (840) 
nan

>  <Num_Not_Resolved_Atoms>  (840) 
nan

$$$$
CHEMBL3263999
     RDKit          3D

  0  0  0  0  0  0  0  0  0  0999 V3000
M  V30 BEGIN CTAB
M  V30 COUNTS 53 56 0 0 0
M  V30 BEGIN ATOM
M  V30 1 C 6.784198 1.128289 4.677938 0
M  V30 2 N 6.754119 -0.161320 3.998793 0
M  V30 3 S 5.310735 -0.990685 4.503974 0
M  V30 4 O 5.276314 -2.383125 3.940409 0
M  V30 5 O 5.350702 -1.067212 6.004530 0
M  V30 6 N 3.902708 -0.108489 4.054841 0
M  V30 7 C 3.698724 0.104317 2.665021 0
M  V30 8 N 4.603706 -0.385401 1.774194 0
M  V30 9 C 4.387803 -0.170801 0.453513 0
M  V30 10 C 3.264670 0.531058 0.076816 0
M  V30 11 C 2.287174 1.065975 0.938673 0
M  V30 12 C 1.190826 1.747323 0.257651 0
M  V30 13 C -0.050270 1.012766 0.060614 0
M  V30 14 C -1.144320 0.743748 0.845335 0
M  V30 15 C -1.169770 1.345888 2.173642 0
M  V30 16 C -2.179832 -0.035806 0.378773 0
M  V30 17 C -3.245562 -0.263720 1.224018 0
M  V30 18 C -4.311458 -1.042192 0.797404 0
M  V30 19 C -4.354139 -1.606259 -0.451085 0
M  V30 20 O -5.442422 -2.377578 -0.830955 0
M  V30 21 C -5.527574 -2.979723 -2.089556 0
M  V30 22 C -4.950159 -4.246382 -2.010970 0
M  V30 23 C -4.898891 -5.076022 -3.137868 0
M  V30 24 C -5.437102 -4.598985 -4.325631 0
M  V30 25 C -6.003828 -3.343185 -4.383260 0
M  V30 26 C -6.058969 -2.519081 -3.278119 0
M  V30 27 C -3.280939 -1.375791 -1.300245 0
M  V30 28 C -2.234323 -0.607863 -0.873189 0
M  V30 29 O -1.184852 -0.357628 -1.647919 0
M  V30 30 C -0.192476 0.390781 -1.195869 0
M  V30 31 O 0.695855 0.492275 -2.107353 0
M  V30 32 C 2.611249 0.788245 2.239441 0
M  V30 33 F 1.767025 1.266370 3.145074 0
M  V30 34 H 5.787123 1.612613 4.678688 0
M  V30 35 H 7.148126 1.034693 5.732384 0
M  V30 36 H 7.476879 1.805203 4.121160 0
M  V30 37 H 7.567510 -0.715567 4.354031 0
M  V30 38 H 3.223290 0.258458 4.753743 0
M  V30 39 H 5.112898 -0.564928 -0.217672 0
M  V30 40 H 3.201549 0.638167 -1.001253 0
M  V30 41 H 1.540327 2.123674 -0.744002 0
M  V30 42 H 0.955658 2.668565 0.865967 0
M  V30 43 H -0.826163 0.582052 2.912876 0
M  V30 44 H -0.527638 2.264093 2.188219 0
M  V30 45 H -2.179861 1.733044 2.454442 0
M  V30 46 H -3.353272 0.111257 2.232008 0
M  V30 47 H -5.171467 -1.237444 1.453448 0
M  V30 48 H -4.498179 -4.734753 -1.156272 0
M  V30 49 H -4.463974 -6.073001 -3.145431 0
M  V30 50 H -5.426882 -5.200030 -5.241717 0
M  V30 51 H -6.448399 -2.899854 -5.289508 0
M  V30 52 H -6.460875 -1.532140 -3.168985 0
M  V30 53 H -3.289506 -1.807871 -2.293158 0
M  V30 END ATOM
M  V30 BEGIN BOND
M  V30 1 1 1 2
M  V30 2 1 2 3
M  V30 3 2 3 4
M  V30 4 2 3 5
M  V30 5 1 3 6
M  V30 6 1 6 7
M  V30 7 2 7 8
M  V30 8 1 8 9
M  V30 9 2 9 10
M  V30 10 1 10 11
M  V30 11 1 11 12
M  V30 12 1 12 13
M  V30 13 2 13 14
M  V30 14 1 14 15
M  V30 15 1 14 16
M  V30 16 2 16 17
M  V30 17 1 17 18
M  V30 18 2 18 19
M  V30 19 1 19 20
M  V30 20 1 20 21
M  V30 21 2 21 22
M  V30 22 1 22 23
M  V30 23 2 23 24
M  V30 24 1 24 25
M  V30 25 2 25 26
M  V30 26 1 19 27
M  V30 27 2 27 28
M  V30 28 1 28 29
M  V30 29 1 29 30
M  V30 30 2 30 31
M  V30 31 2 11 32
M  V30 32 1 32 33
M  V30 33 1 32 7
M  V30 34 1 30 13
M  V30 35 1 28 16
M  V30 36 1 26 21
M  V30 37 1 1 34
M  V30 38 1 1 35
M  V30 39 1 1 36
M  V30 40 1 2 37
M  V30 41 1 6 38
M  V30 42 1 9 39
M  V30 43 1 10 40
M  V30 44 1 12 41
M  V30 45 1 12 42
M  V30 46 1 15 43
M  V30 47 1 15 44
M  V30 48 1 15 45
M  V30 49 1 17 46
M  V30 50 1 18 47
M  V30 51 1 22 48
M  V30 52 1 23 49
M  V30 53 1 24 50
M  V30 54 1 25 51
M  V30 55 1 26 52
M  V30 56 1 27 53
M  V30 END BOND
M  V30 END CTAB
M  END
>  <Dataset>  (841) 
ChEMBL_Kinases

>  <Ligand_Instance>  (841) 
nan

>  <PDB_ID>  (841) 
nan

>  <Standardized_SMILES>  (841) 
CNS(=O)(=O)Nc1nccc(Cc2c(C)c3ccc(Oc4ccccc4)cc3oc2=O)c1F

>  <Name>  (841) 
nan

>  <Pocket>  (841) 
nan

>  <ATP_Site>  (841) 
nan

>  <Peripheral>  (841) 
nan

>  <Num_H_Atoms_ProtBoundConf>  (841) 
nan

>  <Num_Resolved_Atoms>  (841) 
nan

>  <Num_Not_Resolved_Atoms>  (841) 
nan

$$$$
CHEMBL3675485
     RDKit          3D

  0  0  0  0  0  0  0  0  0  0999 V3000
M  V30 BEGIN CTAB
M  V30 COUNTS 48 50 0 0 0
M  V30 BEGIN ATOM
M  V30 1 C -0.305245 -3.294254 -2.771465 0
M  V30 2 N -0.235537 -3.326561 -1.306614 0
M  V30 3 C 0.903108 -2.628913 -0.815355 0
M  V30 4 C 1.101766 -2.502091 0.632032 0
M  V30 5 C 0.106452 -1.814847 1.464889 0
M  V30 6 N -0.142656 -0.438737 1.081888 0
M  V30 7 C 0.881399 0.541147 1.138083 0
M  V30 8 N 2.100310 0.169446 1.563836 0
M  V30 9 C 3.087876 1.075113 1.631120 0
M  V30 10 N 2.933916 2.371354 1.289888 0
M  V30 11 C 1.747450 2.805578 0.858780 0
M  V30 12 C 1.478340 4.099452 0.485562 0
M  V30 13 C 2.567796 5.079450 0.564264 0
M  V30 14 N 3.872134 4.712561 1.013632 0
M  V30 15 O 2.436398 6.290707 0.248281 0
M  V30 16 C 0.257220 4.557602 0.039128 0
M  V30 17 C -0.736825 3.602941 -0.018601 0
M  V30 18 C -0.496807 2.295791 0.349452 0
M  V30 19 C 0.736871 1.869456 0.792118 0
M  V30 20 C -1.131302 -2.480268 1.803860 0
M  V30 21 C -2.003377 -1.587771 2.450262 0
M  V30 22 C -3.265365 -2.009660 2.889961 0
M  V30 23 C -3.694444 -3.306839 2.705687 0
M  V30 24 C -2.853941 -4.195322 2.074901 0
M  V30 25 N -3.180484 -5.550601 1.827856 0 CHG=1 VAL=4
M  V30 26 O -4.302426 -5.932887 2.216604 0
M  V30 27 O -2.299317 -6.360668 1.201112 0 CHG=-1 VAL=1
M  V30 28 C -1.619569 -3.758199 1.652170 0
M  V30 29 H -0.263997 -2.238207 -3.070573 0
M  V30 30 H -1.295910 -3.696045 -3.044224 0
M  V30 31 H 0.489850 -3.927872 -3.216673 0
M  V30 32 H -0.202122 -4.368308 -1.043117 0
M  V30 33 H 1.797838 -3.212112 -1.197981 0
M  V30 34 H 0.973632 -1.679758 -1.389307 0
M  V30 35 H 2.107118 -2.059962 0.806863 0
M  V30 36 H 1.204071 -3.546817 1.044112 0
M  V30 37 H 0.639641 -1.685328 2.476727 0
M  V30 38 H -1.119377 -0.250309 0.769044 0
M  V30 39 H 4.103796 0.846126 1.967363 0
M  V30 40 H 4.108459 4.719318 2.017943 0
M  V30 41 H 4.649505 4.423319 0.390295 0
M  V30 42 H 0.073433 5.583603 -0.248533 0
M  V30 43 H -1.718282 3.944787 -0.371555 0
M  V30 44 H -1.354337 1.646207 0.259550 0
M  V30 45 H -1.837740 -0.539988 2.679545 0
M  V30 46 H -3.973476 -1.366136 3.391361 0
M  V30 47 H -4.664819 -3.645848 3.039425 0
M  V30 48 H -0.916999 -4.396863 1.171132 0
M  V30 END ATOM
M  V30 BEGIN BOND
M  V30 1 1 1 2
M  V30 2 1 2 3
M  V30 3 1 3 4
M  V30 4 1 4 5
M  V30 5 1 5 6
M  V30 6 1 6 7
M  V30 7 2 7 8
M  V30 8 1 8 9
M  V30 9 2 9 10
M  V30 10 1 10 11
M  V30 11 2 11 12
M  V30 12 1 12 13
M  V30 13 1 13 14
M  V30 14 2 13 15
M  V30 15 1 12 16
M  V30 16 2 16 17
M  V30 17 1 17 18
M  V30 18 2 18 19
M  V30 19 1 5 20
M  V30 20 2 20 21
M  V30 21 1 21 22
M  V30 22 2 22 23
M  V30 23 1 23 24
M  V30 24 1 24 25
M  V30 25 2 25 26
M  V30 26 1 25 27
M  V30 27 2 24 28
M  V30 28 1 19 7
M  V30 29 1 28 20
M  V30 30 1 19 11
M  V30 31 1 1 29
M  V30 32 1 1 30
M  V30 33 1 1 31
M  V30 34 1 2 32
M  V30 35 1 3 33
M  V30 36 1 3 34
M  V30 37 1 4 35
M  V30 38 1 4 36
M  V30 39 1 5 37
M  V30 40 1 6 38
M  V30 41 1 9 39
M  V30 42 1 14 40
M  V30 43 1 14 41
M  V30 44 1 16 42
M  V30 45 1 17 43
M  V30 46 1 18 44
M  V30 47 1 21 45
M  V30 48 1 22 46
M  V30 49 1 23 47
M  V30 50 1 28 48
M  V30 END BOND
M  V30 END CTAB
M  END
>  <Dataset>  (842) 
ChEMBL_Kinases

>  <Ligand_Instance>  (842) 
nan

>  <PDB_ID>  (842) 
nan

>  <Standardized_SMILES>  (842) 
CNCCC(Nc1ncnc2c(C(N)=O)cccc12)c1cccc([N+](=O)[O-])c1

>  <Name>  (842) 
nan

>  <Pocket>  (842) 
nan

>  <ATP_Site>  (842) 
nan

>  <Peripheral>  (842) 
nan

>  <Num_H_Atoms_ProtBoundConf>  (842) 
nan

>  <Num_Resolved_Atoms>  (842) 
nan

>  <Num_Not_Resolved_Atoms>  (842) 
nan

$$$$
CHEMBL4210748
     RDKit          3D

  0  0  0  0  0  0  0  0  0  0999 V3000
M  V30 BEGIN CTAB
M  V30 COUNTS 65 70 0 0 0
M  V30 BEGIN ATOM
M  V30 1 F 4.521874 -5.402381 4.932309 0
M  V30 2 C 4.840670 -4.284710 4.203817 0
M  V30 3 C 6.091606 -4.330193 3.589561 0
M  V30 4 C 6.485118 -3.242728 2.839776 0
M  V30 5 C 5.659430 -2.127399 2.697351 0
M  V30 6 C 4.420562 -2.097392 3.313176 0
M  V30 7 N 3.492887 -1.021372 3.251547 0
M  V30 8 C 3.439575 -0.058179 4.203866 0
M  V30 9 N 2.461952 0.782288 3.819796 0
M  V30 10 C 1.907346 0.360263 2.648841 0
M  V30 11 C 0.876253 0.913798 1.888743 0
M  V30 12 N 0.261479 2.114867 2.351829 0
M  V30 13 C -0.826709 2.785200 1.662423 0
M  V30 14 C -2.057959 1.930652 1.658636 0
M  V30 15 N -2.556851 0.995118 0.851903 0
M  V30 16 C -3.718734 0.519039 1.306587 0
M  V30 17 C -4.589730 -0.436946 0.828018 0
M  V30 18 F -4.326390 -1.093563 -0.325073 0
M  V30 19 C -5.759763 -0.742966 1.524334 0
M  V30 20 F -6.658784 -1.673880 1.107441 0
M  V30 21 C -6.045427 -0.074923 2.711540 0
M  V30 22 C -5.156323 0.880853 3.172545 0
M  V30 23 C -4.010070 1.165779 2.469727 0
M  V30 24 N -2.992175 2.007087 2.652760 0
M  V30 25 N 0.520007 0.280090 0.748731 0
M  V30 26 C 1.188178 -0.843795 0.428088 0
M  V30 27 N 0.710803 -1.390818 -0.817257 0
M  V30 28 C -0.572460 -1.997941 -0.793509 0
M  V30 29 C -1.101573 -2.547401 -2.067712 0
M  V30 30 C -1.407850 -1.682027 -3.206646 0
M  V30 31 N -0.441537 -0.846951 -3.825654 0
M  V30 32 C -0.987650 -0.454887 -5.186986 0
M  V30 33 C -2.344707 0.119692 -4.933704 0
M  V30 34 O -2.398322 1.182339 -4.077203 0
M  V30 35 C -1.668851 1.102487 -2.924325 0
M  V30 36 C -0.321532 0.493866 -3.228381 0
M  V30 37 N 2.199703 -1.399560 1.161677 0
M  V30 38 C 2.577244 -0.791514 2.301461 0
M  V30 39 C 4.003372 -3.186352 4.075438 0
M  V30 40 H 6.771309 -5.174357 3.670320 0
M  V30 41 H 7.420761 -3.160486 2.321792 0
M  V30 42 H 5.855294 -1.228529 2.145295 0
M  V30 43 H 3.997078 0.103730 5.105836 0
M  V30 44 H 0.609647 2.542179 3.237118 0
M  V30 45 H -1.049539 3.727237 2.189090 0
M  V30 46 H -0.477866 2.964079 0.616153 0
M  V30 47 H -6.939302 -0.266971 3.298672 0
M  V30 48 H -5.366864 1.407286 4.094061 0
M  V30 49 H -2.944266 2.654891 3.495020 0
M  V30 50 H 1.538834 -1.156444 -1.411662 0
M  V30 51 H -1.336805 -1.274476 -0.367464 0
M  V30 52 H -0.529436 -2.807679 -0.003831 0
M  V30 53 H -2.104182 -3.033780 -1.772479 0
M  V30 54 H -0.507281 -3.471657 -2.370523 0
M  V30 55 H -2.345732 -1.108309 -2.929912 0
M  V30 56 H -1.811427 -2.335906 -4.062603 0
M  V30 57 H -1.086261 -1.344590 -5.812326 0
M  V30 58 H -0.287435 0.312351 -5.534051 0
M  V30 59 H -2.681952 0.528528 -5.943660 0
M  V30 60 H -3.089193 -0.687242 -4.744424 0
M  V30 61 H -2.181050 0.690303 -2.054067 0
M  V30 62 H -1.425723 2.172972 -2.628838 0
M  V30 63 H 0.076726 1.139960 -4.089078 0
M  V30 64 H 0.426988 0.602641 -2.471039 0
M  V30 65 H 3.071953 -3.309075 4.611918 0
M  V30 END ATOM
M  V30 BEGIN BOND
M  V30 1 1 1 2
M  V30 2 2 2 3
M  V30 3 1 3 4
M  V30 4 2 4 5
M  V30 5 1 5 6
M  V30 6 1 6 7
M  V30 7 1 7 8
M  V30 8 2 8 9
M  V30 9 1 9 10
M  V30 10 2 10 11
M  V30 11 1 11 12
M  V30 12 1 12 13
M  V30 13 1 13 14
M  V30 14 2 14 15
M  V30 15 1 15 16
M  V30 16 2 16 17
M  V30 17 1 17 18
M  V30 18 1 17 19
M  V30 19 1 19 20
M  V30 20 2 19 21
M  V30 21 1 21 22
M  V30 22 2 22 23
M  V30 23 1 23 24
M  V30 24 1 11 25
M  V30 25 2 25 26
M  V30 26 1 26 27
M  V30 27 1 27 28
M  V30 28 1 28 29
M  V30 29 1 29 30
M  V30 30 1 30 31
M  V30 31 1 31 32
M  V30 32 1 32 33
M  V30 33 1 33 34
M  V30 34 1 34 35
M  V30 35 1 35 36
M  V30 36 1 26 37
M  V30 37 2 37 38
M  V30 38 2 6 39
M  V30 39 1 39 2
M  V30 40 1 38 7
M  V30 41 1 38 10
M  V30 42 1 24 14
M  V30 43 1 36 31
M  V30 44 1 23 16
M  V30 45 1 3 40
M  V30 46 1 4 41
M  V30 47 1 5 42
M  V30 48 1 8 43
M  V30 49 1 12 44
M  V30 50 1 13 45
M  V30 51 1 13 46
M  V30 52 1 21 47
M  V30 53 1 22 48
M  V30 54 1 24 49
M  V30 55 1 27 50
M  V30 56 1 28 51
M  V30 57 1 28 52
M  V30 58 1 29 53
M  V30 59 1 29 54
M  V30 60 1 30 55
M  V30 61 1 30 56
M  V30 62 1 32 57
M  V30 63 1 32 58
M  V30 64 1 33 59
M  V30 65 1 33 60
M  V30 66 1 35 61
M  V30 67 1 35 62
M  V30 68 1 36 63
M  V30 69 1 36 64
M  V30 70 1 39 65
M  V30 END BOND
M  V30 END CTAB
M  END
>  <Dataset>  (843) 
ChEMBL_Kinases

>  <Ligand_Instance>  (843) 
nan

>  <PDB_ID>  (843) 
nan

>  <Standardized_SMILES>  (843) 
Fc1cccc(-n2cnc3c(NCc4nc5c(F)c(F)ccc5[nH]4)nc(NCCCN4CCOCC4)nc32)c1

>  <Name>  (843) 
nan

>  <Pocket>  (843) 
nan

>  <ATP_Site>  (843) 
nan

>  <Peripheral>  (843) 
nan

>  <Num_H_Atoms_ProtBoundConf>  (843) 
nan

>  <Num_Resolved_Atoms>  (843) 
nan

>  <Num_Not_Resolved_Atoms>  (843) 
nan

$$$$
CHEMBL4210707
     RDKit          3D

  0  0  0  0  0  0  0  0  0  0999 V3000
M  V30 BEGIN CTAB
M  V30 COUNTS 70 75 0 0 0
M  V30 BEGIN ATOM
M  V30 1 C 2.108426 -1.228451 3.894213 0
M  V30 2 C 2.494590 -1.377341 2.419837 0
M  V30 3 C 1.270360 -1.682883 1.621086 0
M  V30 4 C 3.541277 -2.453100 2.357040 0
M  V30 5 C 4.818058 -1.695552 2.744968 0
M  V30 6 C 4.550013 -0.348100 2.128583 0
M  V30 7 N 5.181550 0.765062 1.687092 0
M  V30 8 C 4.229567 1.623260 1.231896 0
M  V30 9 C 4.254820 2.878092 0.679387 0
M  V30 10 F 5.475347 3.435161 0.530566 0
M  V30 11 C 3.113112 3.562459 0.285824 0
M  V30 12 C 1.885321 2.951573 0.457738 0
M  V30 13 C 0.704420 3.672998 0.044213 0
M  V30 14 N -0.279492 3.078659 -0.660309 0
M  V30 15 C -1.396469 3.707382 -1.067874 0
M  V30 16 N -2.408542 3.034807 -1.810914 0
M  V30 17 C -2.254092 1.659824 -2.141331 0
M  V30 18 C -3.253752 1.008092 -2.872091 0
M  V30 19 C -3.069079 -0.336734 -3.177195 0
M  V30 20 C -1.951938 -1.067049 -2.798638 0
M  V30 21 C -1.739710 -2.476183 -3.108160 0
M  V30 22 N -2.209373 -3.432887 -2.187958 0
M  V30 23 C -3.600548 -3.445448 -1.912266 0
M  V30 24 C -3.929960 -4.070212 -0.564871 0
M  V30 25 N -3.257623 -3.273262 0.420189 0
M  V30 26 C -3.677933 -3.762665 1.720809 0
M  V30 27 C -3.020827 -2.976731 2.844489 0
M  V30 28 F -3.493490 -3.529925 4.028161 0
M  V30 29 C -1.844335 -3.397667 0.263548 0
M  V30 30 C -1.362623 -3.780318 -1.093193 0
M  V30 31 C -0.989178 -0.355721 -2.069729 0
M  V30 32 N -1.164806 0.964994 -1.767077 0
M  V30 33 N -1.538929 5.008209 -0.752513 0
M  V30 34 C -0.586713 5.672946 -0.043766 0
M  V30 35 C 0.570722 5.025365 0.379735 0
M  V30 36 F 1.536181 5.662151 1.087290 0
M  V30 37 C 1.872749 1.687798 1.015260 0
M  V30 38 C 3.005682 1.001565 1.408984 0
M  V30 39 N 3.218496 -0.207761 1.960377 0
M  V30 40 H 3.055010 -0.982735 4.427163 0
M  V30 41 H 1.756733 -2.197692 4.270451 0
M  V30 42 H 1.357982 -0.413905 4.016980 0
M  V30 43 H 0.478907 -0.967643 1.915684 0
M  V30 44 H 1.498937 -1.641211 0.549763 0
M  V30 45 H 0.971175 -2.732488 1.844677 0
M  V30 46 H 3.296818 -3.201433 3.125119 0
M  V30 47 H 3.660691 -2.896087 1.351330 0
M  V30 48 H 5.635819 -2.219430 2.219595 0
M  V30 49 H 4.941872 -1.585103 3.821187 0
M  V30 50 H 3.218421 4.566472 -0.149181 0
M  V30 51 H -3.251758 3.546202 -2.108271 0
M  V30 52 H -4.117265 1.552685 -3.170715 0
M  V30 53 H -3.840457 -0.821352 -3.735898 0
M  V30 54 H -2.169672 -2.722496 -4.110501 0
M  V30 55 H -0.640919 -2.625750 -3.232488 0
M  V30 56 H -4.034414 -2.410616 -1.950324 0
M  V30 57 H -4.143417 -4.038613 -2.675633 0
M  V30 58 H -3.480438 -5.092816 -0.548545 0
M  V30 59 H -5.030266 -4.079083 -0.441151 0
M  V30 60 H -4.770543 -3.590386 1.804420 0
M  V30 61 H -3.486136 -4.843869 1.815694 0
M  V30 62 H -3.248740 -1.906461 2.786003 0
M  V30 63 H -1.920160 -3.103657 2.851271 0
M  V30 64 H -1.483028 -4.126032 1.042653 0
M  V30 65 H -1.305811 -2.439807 0.527002 0
M  V30 66 H -0.350296 -3.381124 -1.327382 0
M  V30 67 H -1.263324 -4.892301 -1.102413 0
M  V30 68 H -0.091941 -0.855505 -1.739790 0
M  V30 69 H -0.648354 6.704234 0.233600 0
M  V30 70 H 0.885063 1.261273 1.124805 0
M  V30 END ATOM
M  V30 BEGIN BOND
M  V30 1 1 1 2
M  V30 2 1 2 3
M  V30 3 1 2 4
M  V30 4 1 4 5
M  V30 5 1 5 6
M  V30 6 2 6 7
M  V30 7 1 7 8
M  V30 8 2 8 9
M  V30 9 1 9 10
M  V30 10 1 9 11
M  V30 11 2 11 12
M  V30 12 1 12 13
M  V30 13 2 13 14
M  V30 14 1 14 15
M  V30 15 1 15 16
M  V30 16 1 16 17
M  V30 17 2 17 18
M  V30 18 1 18 19
M  V30 19 2 19 20
M  V30 20 1 20 21
M  V30 21 1 21 22
M  V30 22 1 22 23
M  V30 23 1 23 24
M  V30 24 1 24 25
M  V30 25 1 25 26
M  V30 26 1 26 27
M  V30 27 1 27 28
M  V30 28 1 25 29
M  V30 29 1 29 30
M  V30 30 1 20 31
M  V30 31 2 31 32
M  V30 32 2 15 33
M  V30 33 1 33 34
M  V30 34 2 34 35
M  V30 35 1 35 36
M  V30 36 1 12 37
M  V30 37 2 37 38
M  V30 38 1 38 39
M  V30 39 1 39 2
M  V30 40 1 39 6
M  V30 41 1 38 8
M  V30 42 1 35 13
M  V30 43 1 32 17
M  V30 44 1 30 22
M  V30 45 1 1 40
M  V30 46 1 1 41
M  V30 47 1 1 42
M  V30 48 1 3 43
M  V30 49 1 3 44
M  V30 50 1 3 45
M  V30 51 1 4 46
M  V30 52 1 4 47
M  V30 53 1 5 48
M  V30 54 1 5 49
M  V30 55 1 11 50
M  V30 56 1 16 51
M  V30 57 1 18 52
M  V30 58 1 19 53
M  V30 59 1 21 54
M  V30 60 1 21 55
M  V30 61 1 23 56
M  V30 62 1 23 57
M  V30 63 1 24 58
M  V30 64 1 24 59
M  V30 65 1 26 60
M  V30 66 1 26 61
M  V30 67 1 27 62
M  V30 68 1 27 63
M  V30 69 1 29 64
M  V30 70 1 29 65
M  V30 71 1 30 66
M  V30 72 1 30 67
M  V30 73 1 31 68
M  V30 74 1 34 69
M  V30 75 1 37 70
M  V30 END BOND
M  V30 END CTAB
M  END
>  <Dataset>  (844) 
ChEMBL_Kinases

>  <Ligand_Instance>  (844) 
nan

>  <PDB_ID>  (844) 
nan

>  <Standardized_SMILES>  (844) 
CC1(C)CCc2nc3c(F)cc(-c4nc(Nc5ccc(CN6CCN(CCF)CC6)cn5)ncc4F)cc3n21

>  <Name>  (844) 
nan

>  <Pocket>  (844) 
nan

>  <ATP_Site>  (844) 
nan

>  <Peripheral>  (844) 
nan

>  <Num_H_Atoms_ProtBoundConf>  (844) 
nan

>  <Num_Resolved_Atoms>  (844) 
nan

>  <Num_Not_Resolved_Atoms>  (844) 
nan

$$$$
CHEMBL4210537
     RDKit          3D

  0  0  0  0  0  0  0  0  0  0999 V3000
M  V30 BEGIN CTAB
M  V30 COUNTS 56 61 0 0 0
M  V30 BEGIN ATOM
M  V30 1 C 4.035407 -5.170958 5.563357 0
M  V30 2 C 2.986862 -4.924456 4.555541 0
M  V30 3 C 2.898090 -3.726031 3.882737 0
M  V30 4 C 1.945978 -3.464307 2.949154 0
M  V30 5 N 1.877405 -2.217732 2.271208 0
M  V30 6 C 2.526061 -1.095519 2.612434 0
M  V30 7 N 2.244625 -0.093042 1.765551 0
M  V30 8 C 1.375746 -0.535149 0.810874 0
M  V30 9 C 0.695175 -0.052388 -0.324404 0
M  V30 10 N 1.043955 1.298851 -0.483149 0
M  V30 11 C 1.389575 2.658749 -0.650217 0
M  V30 12 C 0.266887 3.640294 -0.638308 0
M  V30 13 N -0.276176 3.834354 -1.859642 0
M  V30 14 C -1.270882 4.731986 -1.761274 0
M  V30 15 C -2.163664 5.317210 -2.625793 0
M  V30 16 F -2.026683 4.895320 -3.907694 0
M  V30 17 C -3.104370 6.238014 -2.229950 0
M  V30 18 F -3.938550 6.758062 -3.156915 0
M  V30 19 C -3.103107 6.548973 -0.884645 0
M  V30 20 C -2.232092 5.993633 0.030141 0
M  V30 21 C -1.310809 5.076201 -0.426058 0
M  V30 22 N -0.373490 4.410006 0.254886 0
M  V30 23 N -0.111245 -0.877928 -1.014217 0
M  V30 24 C -0.269345 -2.151207 -0.629151 0
M  V30 25 N -1.157261 -2.891573 -1.440090 0
M  V30 26 C -1.225817 -4.323099 -1.247293 0
M  V30 27 C -2.649794 -4.630739 -0.778651 0
M  V30 28 O -3.441949 -3.478604 -0.829611 0
M  V30 29 C -3.450216 -2.868370 -2.071756 0
M  V30 30 C -2.047984 -2.398867 -2.461830 0
M  V30 31 N 0.369460 -2.600977 0.435237 0
M  V30 32 C 1.186539 -1.865048 1.181248 0
M  V30 33 C 1.053849 -4.484477 2.706435 0
M  V30 34 C 1.125852 -5.699475 3.373371 0
M  V30 35 N 2.093988 -5.899140 4.289332 0
M  V30 36 H 3.804766 -4.649500 6.517865 0
M  V30 37 H 4.080756 -6.246417 5.799601 0
M  V30 38 H 5.032554 -4.787876 5.237187 0
M  V30 39 H 3.647714 -2.991609 4.148534 0
M  V30 40 H 3.199510 -0.960254 3.452485 0
M  V30 41 H 0.461698 1.457209 -1.372812 0
M  V30 42 H 2.017636 2.944609 0.275171 0
M  V30 43 H 2.126624 2.849702 -1.466280 0
M  V30 44 H -3.857323 7.284970 -0.576111 0
M  V30 45 H -2.268039 6.267890 1.076732 0
M  V30 46 H -0.070968 4.371575 1.239212 0
M  V30 47 H -1.133587 -4.849272 -2.241556 0
M  V30 48 H -0.481667 -4.702236 -0.534898 0
M  V30 49 H -2.551445 -4.870092 0.318187 0
M  V30 50 H -3.098333 -5.472938 -1.333865 0
M  V30 51 H -4.122532 -1.969584 -1.954242 0
M  V30 52 H -3.902298 -3.512922 -2.848691 0
M  V30 53 H -2.037016 -1.278565 -2.515726 0
M  V30 54 H -1.826306 -2.790896 -3.474625 0
M  V30 55 H 0.259738 -4.379740 1.982224 0
M  V30 56 H 0.380005 -6.472483 3.133596 0
M  V30 END ATOM
M  V30 BEGIN BOND
M  V30 1 1 1 2
M  V30 2 2 2 3
M  V30 3 1 3 4
M  V30 4 1 4 5
M  V30 5 1 5 6
M  V30 6 2 6 7
M  V30 7 1 7 8
M  V30 8 2 8 9
M  V30 9 1 9 10
M  V30 10 1 10 11
M  V30 11 1 11 12
M  V30 12 2 12 13
M  V30 13 1 13 14
M  V30 14 2 14 15
M  V30 15 1 15 16
M  V30 16 1 15 17
M  V30 17 1 17 18
M  V30 18 2 17 19
M  V30 19 1 19 20
M  V30 20 2 20 21
M  V30 21 1 21 22
M  V30 22 1 9 23
M  V30 23 2 23 24
M  V30 24 1 24 25
M  V30 25 1 25 26
M  V30 26 1 26 27
M  V30 27 1 27 28
M  V30 28 1 28 29
M  V30 29 1 29 30
M  V30 30 1 24 31
M  V30 31 2 31 32
M  V30 32 2 4 33
M  V30 33 1 33 34
M  V30 34 2 34 35
M  V30 35 1 35 2
M  V30 36 1 32 5
M  V30 37 1 32 8
M  V30 38 1 22 12
M  V30 39 1 30 25
M  V30 40 1 21 14
M  V30 41 1 1 36
M  V30 42 1 1 37
M  V30 43 1 1 38
M  V30 44 1 3 39
M  V30 45 1 6 40
M  V30 46 1 10 41
M  V30 47 1 11 42
M  V30 48 1 11 43
M  V30 49 1 19 44
M  V30 50 1 20 45
M  V30 51 1 22 46
M  V30 52 1 26 47
M  V30 53 1 26 48
M  V30 54 1 27 49
M  V30 55 1 27 50
M  V30 56 1 29 51
M  V30 57 1 29 52
M  V30 58 1 30 53
M  V30 59 1 30 54
M  V30 60 1 33 55
M  V30 61 1 34 56
M  V30 END BOND
M  V30 END CTAB
M  END
>  <Dataset>  (845) 
ChEMBL_Kinases

>  <Ligand_Instance>  (845) 
nan

>  <PDB_ID>  (845) 
nan

>  <Standardized_SMILES>  (845) 
Cc1cc(-n2cnc3c(NCc4nc5c(F)c(F)ccc5[nH]4)nc(N4CCOCC4)nc32)ccn1

>  <Name>  (845) 
nan

>  <Pocket>  (845) 
nan

>  <ATP_Site>  (845) 
nan

>  <Peripheral>  (845) 
nan

>  <Num_H_Atoms_ProtBoundConf>  (845) 
nan

>  <Num_Resolved_Atoms>  (845) 
nan

>  <Num_Not_Resolved_Atoms>  (845) 
nan

$$$$
CHEMBL4210412
     RDKit          3D

  0  0  0  0  0  0  0  0  0  0999 V3000
M  V30 BEGIN CTAB
M  V30 COUNTS 58 63 0 0 0
M  V30 BEGIN ATOM
M  V30 1 F 2.522267 6.073665 4.368328 0
M  V30 2 C 2.139541 5.503628 3.196551 0
M  V30 3 C 1.291067 6.103438 2.289692 0
M  V30 4 C 0.914057 5.505438 1.102609 0
M  V30 5 C 1.428680 4.250105 0.843978 0
M  V30 6 C 2.283299 3.599546 1.715344 0
M  V30 7 N 2.790523 2.295119 1.399532 0
M  V30 8 C 3.989138 1.740799 1.644359 0
M  V30 9 N 3.979331 0.487169 1.148961 0
M  V30 10 C 2.770410 0.254742 0.591613 0
M  V30 11 C 2.316777 -0.909855 -0.040190 0
M  V30 12 N 3.146823 -2.039153 -0.166936 0
M  V30 13 C 2.764808 -3.265382 -0.793466 0
M  V30 14 C 1.620366 -3.955278 -0.153062 0
M  V30 15 N 0.263673 -3.945264 -0.300136 0
M  V30 16 C -0.286386 -4.795849 0.577734 0
M  V30 17 C -1.703549 -5.083907 0.747931 0
M  V30 18 C -2.692297 -4.493135 -0.004914 0
M  V30 19 C -4.030557 -4.757233 0.147893 0
M  V30 20 C -4.455130 -5.660732 1.099291 0
M  V30 21 C -3.487238 -6.272470 1.873099 0
M  V30 22 C -2.150858 -5.983320 1.692546 0
M  V30 23 C 0.713652 -5.383208 1.322514 0
M  V30 24 N 1.854142 -4.850062 0.851998 0
M  V30 25 N 1.057243 -0.836657 -0.497318 0
M  V30 26 C 0.312567 0.273909 -0.349077 0
M  V30 27 N -1.011424 0.298136 -0.853504 0
M  V30 28 C -1.638597 -0.784482 -1.543492 0
M  V30 29 C -3.128198 -0.803885 -1.425772 0
M  V30 30 O -3.732041 0.403062 -1.650942 0
M  V30 31 C -2.803895 1.395226 -1.927008 0
M  V30 32 C -1.871617 1.456750 -0.709497 0
M  V30 33 N 0.774404 1.379285 0.262698 0
M  V30 34 C 2.018506 1.398995 0.750391 0
M  V30 35 C 2.634868 4.240448 2.897861 0
M  V30 36 H 0.909056 7.081906 2.523847 0
M  V30 37 H 0.242548 5.993852 0.397461 0
M  V30 38 H 1.143342 3.755617 -0.092145 0
M  V30 39 H 4.801809 2.266364 2.163846 0
M  V30 40 H 4.116837 -1.982196 0.225057 0
M  V30 41 H 2.400811 -2.994344 -1.831394 0
M  V30 42 H 3.606985 -3.965642 -0.902026 0
M  V30 43 H -2.434393 -3.777257 -0.767826 0
M  V30 44 H -4.812334 -4.294697 -0.442542 0
M  V30 45 H -5.477068 -5.945702 1.307681 0
M  V30 46 H -3.775072 -6.994965 2.639165 0
M  V30 47 H -1.428539 -6.499113 2.335215 0
M  V30 48 H 0.600629 -6.112910 2.111733 0
M  V30 49 H 2.785601 -5.146719 1.270782 0
M  V30 50 H -1.232706 -1.746905 -1.169742 0
M  V30 51 H -1.340515 -0.723736 -2.625691 0
M  V30 52 H -3.512589 -1.530544 -2.177420 0
M  V30 53 H -3.429331 -1.189230 -0.415806 0
M  V30 54 H -2.232015 1.098313 -2.827329 0
M  V30 55 H -3.246231 2.392287 -2.000461 0
M  V30 56 H -1.334446 2.415888 -0.680825 0
M  V30 57 H -2.516184 1.348991 0.191018 0
M  V30 58 H 3.314056 3.673305 3.545055 0
M  V30 END ATOM
M  V30 BEGIN BOND
M  V30 1 1 1 2
M  V30 2 2 2 3
M  V30 3 1 3 4
M  V30 4 2 4 5
M  V30 5 1 5 6
M  V30 6 1 6 7
M  V30 7 1 7 8
M  V30 8 2 8 9
M  V30 9 1 9 10
M  V30 10 2 10 11
M  V30 11 1 11 12
M  V30 12 1 12 13
M  V30 13 1 13 14
M  V30 14 2 14 15
M  V30 15 1 15 16
M  V30 16 1 16 17
M  V30 17 2 17 18
M  V30 18 1 18 19
M  V30 19 2 19 20
M  V30 20 1 20 21
M  V30 21 2 21 22
M  V30 22 2 16 23
M  V30 23 1 23 24
M  V30 24 1 11 25
M  V30 25 2 25 26
M  V30 26 1 26 27
M  V30 27 1 27 28
M  V30 28 1 28 29
M  V30 29 1 29 30
M  V30 30 1 30 31
M  V30 31 1 31 32
M  V30 32 1 26 33
M  V30 33 2 33 34
M  V30 34 2 6 35
M  V30 35 1 35 2
M  V30 36 1 34 7
M  V30 37 1 34 10
M  V30 38 1 24 14
M  V30 39 1 32 27
M  V30 40 1 22 17
M  V30 41 1 3 36
M  V30 42 1 4 37
M  V30 43 1 5 38
M  V30 44 1 8 39
M  V30 45 1 12 40
M  V30 46 1 13 41
M  V30 47 1 13 42
M  V30 48 1 18 43
M  V30 49 1 19 44
M  V30 50 1 20 45
M  V30 51 1 21 46
M  V30 52 1 22 47
M  V30 53 1 23 48
M  V30 54 1 24 49
M  V30 55 1 28 50
M  V30 56 1 28 51
M  V30 57 1 29 52
M  V30 58 1 29 53
M  V30 59 1 31 54
M  V30 60 1 31 55
M  V30 61 1 32 56
M  V30 62 1 32 57
M  V30 63 1 35 58
M  V30 END BOND
M  V30 END CTAB
M  END
>  <Dataset>  (846) 
ChEMBL_Kinases

>  <Ligand_Instance>  (846) 
nan

>  <PDB_ID>  (846) 
nan

>  <Standardized_SMILES>  (846) 
Fc1cccc(-n2cnc3c(NCc4nc(-c5ccccc5)c[nH]4)nc(N4CCOCC4)nc32)c1

>  <Name>  (846) 
nan

>  <Pocket>  (846) 
nan

>  <ATP_Site>  (846) 
nan

>  <Peripheral>  (846) 
nan

>  <Num_H_Atoms_ProtBoundConf>  (846) 
nan

>  <Num_Resolved_Atoms>  (846) 
nan

>  <Num_Not_Resolved_Atoms>  (846) 
nan

$$$$
CHEMBL3675484
     RDKit          3D

  0  0  0  0  0  0  0  0  0  0999 V3000
M  V30 BEGIN CTAB
M  V30 COUNTS 55 58 0 0 0
M  V30 BEGIN ATOM
M  V30 1 C 4.689025 -3.553167 7.044892 0
M  V30 2 O 4.757909 -2.123505 7.011879 0
M  V30 3 C 4.246764 -1.437905 5.916183 0
M  V30 4 C 4.316684 -0.038812 5.888669 0
M  V30 5 C 3.783488 0.590964 4.755985 0
M  V30 6 C 3.209570 -0.084271 3.697465 0
M  V30 7 C 2.687738 0.680097 2.567606 0
M  V30 8 O 2.806457 1.928676 2.653636 0
M  V30 9 N 2.088000 0.034123 1.451599 0
M  V30 10 C 1.551912 0.681763 0.303815 0
M  V30 11 C 2.533516 0.836758 -0.673600 0
M  V30 12 C 2.218060 1.452560 -1.886902 0
M  V30 13 C 0.913746 1.881508 -2.045183 0
M  V30 14 C -0.087843 1.739389 -1.084769 0
M  V30 15 C -1.459319 2.210840 -1.300594 0
M  V30 16 C -1.599455 2.604516 -2.758381 0
M  V30 17 N -2.485890 1.272786 -0.900100 0
M  V30 18 C -2.487261 -0.012786 -1.522320 0
M  V30 19 N -1.554211 -0.332192 -2.445369 0
M  V30 20 C -1.498114 -1.524471 -3.063718 0
M  V30 21 N -2.380542 -2.509105 -2.808404 0
M  V30 22 C -3.344334 -2.255135 -1.891654 0
M  V30 23 C -4.292364 -3.211097 -1.571530 0
M  V30 24 C -4.251541 -4.515528 -2.226503 0
M  V30 25 N -3.242685 -4.848871 -3.186663 0
M  V30 26 O -5.078808 -5.429646 -2.006036 0
M  V30 27 C -5.301461 -3.011875 -0.646911 0
M  V30 28 C -5.305547 -1.767179 -0.046060 0
M  V30 29 C -4.369631 -0.802140 -0.351641 0
M  V30 30 C -3.387975 -1.026751 -1.266156 0
M  V30 31 C 0.263743 1.128036 0.095662 0
M  V30 32 C 3.184319 -1.460672 3.811116 0
M  V30 33 N 3.686970 -2.099673 4.884201 0
M  V30 34 H 3.857972 -3.911141 6.399480 0
M  V30 35 H 5.614846 -3.917085 6.546941 0
M  V30 36 H 4.601842 -3.896099 8.084200 0
M  V30 37 H 4.755545 0.535410 6.691179 0
M  V30 38 H 3.858089 1.661243 4.776849 0
M  V30 39 H 1.996098 -1.002901 1.395494 0
M  V30 40 H 3.569638 0.520764 -0.605134 0
M  V30 41 H 2.942044 1.597078 -2.676898 0
M  V30 42 H 0.688936 2.361521 -3.004656 0
M  V30 43 H -1.577580 3.137875 -0.707301 0
M  V30 44 H -0.980277 3.524702 -2.893410 0
M  V30 45 H -2.645673 2.895163 -2.993187 0
M  V30 46 H -1.226674 1.805980 -3.428952 0
M  V30 47 H -3.172922 1.566010 -0.185474 0
M  V30 48 H -0.712929 -1.694960 -3.793592 0
M  V30 49 H -3.099092 -4.409735 -4.126529 0
M  V30 50 H -3.061758 -4.429859 -4.149414 0
M  V30 51 H -6.042480 -3.747633 -0.390977 0
M  V30 52 H -6.089248 -1.587195 0.683412 0
M  V30 53 H -4.473500 0.113043 0.173162 0
M  V30 54 H -0.409174 0.956271 0.915171 0
M  V30 55 H 2.740457 -2.016624 2.996671 0
M  V30 END ATOM
M  V30 BEGIN BOND
M  V30 1 1 1 2
M  V30 2 1 2 3
M  V30 3 2 3 4
M  V30 4 1 4 5
M  V30 5 2 5 6
M  V30 6 1 6 7
M  V30 7 2 7 8
M  V30 8 1 7 9
M  V30 9 1 9 10
M  V30 10 2 10 11
M  V30 11 1 11 12
M  V30 12 2 12 13
M  V30 13 1 13 14
M  V30 14 1 14 15
M  V30 15 1 15 16
M  V30 16 1 15 17
M  V30 17 1 17 18
M  V30 18 2 18 19
M  V30 19 1 19 20
M  V30 20 2 20 21
M  V30 21 1 21 22
M  V30 22 2 22 23
M  V30 23 1 23 24
M  V30 24 1 24 25
M  V30 25 2 24 26
M  V30 26 1 23 27
M  V30 27 2 27 28
M  V30 28 1 28 29
M  V30 29 2 29 30
M  V30 30 2 14 31
M  V30 31 1 6 32
M  V30 32 2 32 33
M  V30 33 1 33 3
M  V30 34 1 31 10
M  V30 35 1 30 18
M  V30 36 1 30 22
M  V30 37 1 1 34
M  V30 38 1 1 35
M  V30 39 1 1 36
M  V30 40 1 4 37
M  V30 41 1 5 38
M  V30 42 1 9 39
M  V30 43 1 11 40
M  V30 44 1 12 41
M  V30 45 1 13 42
M  V30 46 1 15 43
M  V30 47 1 16 44
M  V30 48 1 16 45
M  V30 49 1 16 46
M  V30 50 1 17 47
M  V30 51 1 20 48
M  V30 52 1 25 49
M  V30 53 1 25 50
M  V30 54 1 27 51
M  V30 55 1 28 52
M  V30 56 1 29 53
M  V30 57 1 31 54
M  V30 58 1 32 55
M  V30 END BOND
M  V30 END CTAB
M  END
>  <Dataset>  (847) 
ChEMBL_Kinases

>  <Ligand_Instance>  (847) 
nan

>  <PDB_ID>  (847) 
nan

>  <Standardized_SMILES>  (847) 
COc1ccc(C(=O)Nc2cccc(C(C)Nc3ncnc4c(C(N)=O)cccc34)c2)cn1

>  <Name>  (847) 
nan

>  <Pocket>  (847) 
nan

>  <ATP_Site>  (847) 
nan

>  <Peripheral>  (847) 
nan

>  <Num_H_Atoms_ProtBoundConf>  (847) 
nan

>  <Num_Resolved_Atoms>  (847) 
nan

>  <Num_Not_Resolved_Atoms>  (847) 
nan

$$$$
CHEMBL3263994
     RDKit          3D

  0  0  0  0  0  0  0  0  0  0999 V3000
M  V30 BEGIN CTAB
M  V30 COUNTS 53 55 0 0 0
M  V30 BEGIN ATOM
M  V30 1 C 3.251095 -2.993187 3.366684 0
M  V30 2 N 3.739350 -1.954958 4.222572 0
M  V30 3 S 5.343692 -1.463784 3.810758 0
M  V30 4 O 5.844818 -0.446196 4.775602 0
M  V30 5 O 6.256238 -2.664519 3.833288 0
M  V30 6 N 5.349348 -0.837961 2.212903 0
M  V30 7 C 4.572386 0.320214 1.865312 0
M  V30 8 C 4.569722 1.413011 2.686029 0
M  V30 9 C 3.809918 2.484419 2.299802 0
M  V30 10 C 3.066647 2.497013 1.140196 0
M  V30 11 C 3.045259 1.412986 0.288116 0
M  V30 12 C 2.309305 1.241829 -0.990955 0
M  V30 13 C 1.008177 0.574762 -0.853475 0
M  V30 14 C -0.170579 1.122480 -0.393702 0
M  V30 15 C -0.181404 2.534760 -0.003974 0
M  V30 16 C -1.289770 0.306710 -0.332361 0
M  V30 17 C -2.487615 0.819268 0.124001 0
M  V30 18 C -3.641510 0.069852 0.213234 0
M  V30 19 C -3.606128 -1.254464 -0.168968 0
M  V30 20 O -4.632144 -2.191086 -0.165708 0
M  V30 21 C -5.462030 -2.374847 -1.282042 0
M  V30 22 O -5.049149 -1.564152 -2.129616 0
M  V30 23 N -6.474063 -3.367722 -1.143707 0
M  V30 24 C -6.708185 -4.188942 0.042384 0
M  V30 25 C -7.352394 -3.584387 -2.284102 0
M  V30 26 N -2.438494 -1.769952 -0.617908 0
M  V30 27 C -1.326916 -1.023417 -0.696982 0
M  V30 28 O -0.195005 -1.539861 -1.136354 0
M  V30 29 C 0.879868 -0.768999 -1.198396 0
M  V30 30 O 1.878544 -1.422410 -1.641603 0
M  V30 31 C 3.835276 0.339493 0.720420 0
M  V30 32 H 2.648964 -2.521702 2.552623 0
M  V30 33 H 4.077689 -3.528014 2.865561 0
M  V30 34 H 2.564901 -3.702021 3.894164 0
M  V30 35 H 3.101431 -1.158952 4.319282 0
M  V30 36 H 5.900469 -1.239615 1.401053 0
M  V30 37 H 5.125052 1.466712 3.599706 0
M  V30 38 H 3.731813 3.416502 2.880873 0
M  V30 39 H 2.465972 3.336966 0.823808 0
M  V30 40 H 2.182650 2.234925 -1.479243 0
M  V30 41 H 2.961921 0.585331 -1.640233 0
M  V30 42 H -1.148590 3.009708 -0.350740 0
M  V30 43 H 0.582180 3.110052 -0.610683 0
M  V30 44 H -0.119211 2.739485 1.066694 0
M  V30 45 H -2.578656 1.848793 0.440493 0
M  V30 46 H -4.598672 0.400071 0.555513 0
M  V30 47 H -6.532024 -5.239896 -0.305509 0
M  V30 48 H -7.726286 -4.094051 0.427696 0
M  V30 49 H -5.956704 -3.920240 0.803278 0
M  V30 50 H -8.310056 -3.052825 -2.133213 0
M  V30 51 H -6.894882 -3.199648 -3.226475 0
M  V30 52 H -7.510681 -4.674927 -2.484667 0
M  V30 53 H 3.874530 -0.556592 0.106173 0
M  V30 END ATOM
M  V30 BEGIN BOND
M  V30 1 1 1 2
M  V30 2 1 2 3
M  V30 3 2 3 4
M  V30 4 2 3 5
M  V30 5 1 3 6
M  V30 6 1 6 7
M  V30 7 2 7 8
M  V30 8 1 8 9
M  V30 9 2 9 10
M  V30 10 1 10 11
M  V30 11 1 11 12
M  V30 12 1 12 13
M  V30 13 2 13 14
M  V30 14 1 14 15
M  V30 15 1 14 16
M  V30 16 2 16 17
M  V30 17 1 17 18
M  V30 18 2 18 19
M  V30 19 1 19 20
M  V30 20 1 20 21
M  V30 21 2 21 22
M  V30 22 1 21 23
M  V30 23 1 23 24
M  V30 24 1 23 25
M  V30 25 1 19 26
M  V30 26 2 26 27
M  V30 27 1 27 28
M  V30 28 1 28 29
M  V30 29 2 29 30
M  V30 30 2 11 31
M  V30 31 1 31 7
M  V30 32 1 29 13
M  V30 33 1 27 16
M  V30 34 1 1 32
M  V30 35 1 1 33
M  V30 36 1 1 34
M  V30 37 1 2 35
M  V30 38 1 6 36
M  V30 39 1 8 37
M  V30 40 1 9 38
M  V30 41 1 10 39
M  V30 42 1 12 40
M  V30 43 1 12 41
M  V30 44 1 15 42
M  V30 45 1 15 43
M  V30 46 1 15 44
M  V30 47 1 17 45
M  V30 48 1 18 46
M  V30 49 1 24 47
M  V30 50 1 24 48
M  V30 51 1 24 49
M  V30 52 1 25 50
M  V30 53 1 25 51
M  V30 54 1 25 52
M  V30 55 1 31 53
M  V30 END BOND
M  V30 END CTAB
M  END
>  <Dataset>  (848) 
ChEMBL_Kinases

>  <Ligand_Instance>  (848) 
nan

>  <PDB_ID>  (848) 
nan

>  <Standardized_SMILES>  (848) 
CNS(=O)(=O)Nc1cccc(Cc2c(C)c3ccc(OC(=O)N(C)C)nc3oc2=O)c1

>  <Name>  (848) 
nan

>  <Pocket>  (848) 
nan

>  <ATP_Site>  (848) 
nan

>  <Peripheral>  (848) 
nan

>  <Num_H_Atoms_ProtBoundConf>  (848) 
nan

>  <Num_Resolved_Atoms>  (848) 
nan

>  <Num_Not_Resolved_Atoms>  (848) 
nan

$$$$
CHEMBL3263995
     RDKit          3D

  0  0  0  0  0  0  0  0  0  0999 V3000
M  V30 BEGIN CTAB
M  V30 COUNTS 53 55 0 0 0
M  V30 BEGIN ATOM
M  V30 1 C 3.111813 -2.289609 5.597487 0
M  V30 2 N 4.254798 -1.438683 5.660228 0
M  V30 3 S 5.411216 -1.743156 4.449919 0
M  V30 4 O 6.672755 -0.930088 4.656446 0
M  V30 5 O 5.843359 -3.181963 4.583364 0
M  V30 6 N 4.768709 -1.494381 2.874005 0
M  V30 7 C 4.271518 -0.270629 2.370149 0
M  V30 8 C 4.250123 0.901115 3.091982 0
M  V30 9 C 3.775899 2.094045 2.615405 0
M  V30 10 C 3.289926 2.112178 1.325847 0
M  V30 11 C 3.296235 0.957782 0.575353 0
M  V30 12 C 2.803818 0.785438 -0.833306 0
M  V30 13 C 1.421084 0.278705 -0.887424 0
M  V30 14 C 0.248834 0.971827 -0.679020 0
M  V30 15 C 0.358237 2.405149 -0.387097 0
M  V30 16 C -0.944906 0.282158 -0.767252 0
M  V30 17 C -2.125046 0.964050 -0.559154 0
M  V30 18 C -3.373332 0.380244 -0.621291 0
M  V30 19 C -3.481558 -0.964980 -0.906549 0
M  V30 20 O -4.630081 -1.736160 -1.014323 0
M  V30 21 C -5.329470 -1.908205 -2.221273 0
M  V30 22 O -4.992285 -1.385292 -3.325242 0
M  V30 23 N -6.468054 -2.761242 -1.990738 0
M  V30 24 C -6.938361 -3.410836 -0.758232 0
M  V30 25 C -7.326590 -3.062377 -3.125129 0
M  V30 26 C -2.315039 -1.674632 -1.119691 0
M  V30 27 C -1.083520 -1.060428 -1.050001 0
M  V30 28 O 0.057564 -1.719041 -1.250079 0
M  V30 29 C 1.213899 -1.074702 -1.169376 0
M  V30 30 O 2.190116 -1.845678 -1.385319 0
M  V30 31 N 3.777363 -0.144206 1.130771 0
M  V30 32 H 2.216632 -1.633103 5.429184 0
M  V30 33 H 3.166551 -2.972535 4.711494 0
M  V30 34 H 2.934159 -2.877620 6.523588 0
M  V30 35 H 4.111304 -0.474004 5.944662 0
M  V30 36 H 4.730260 -2.314023 2.200908 0
M  V30 37 H 4.623101 0.929438 4.100106 0
M  V30 38 H 3.760171 3.012987 3.184852 0
M  V30 39 H 2.897959 2.991381 0.849937 0
M  V30 40 H 2.917367 1.736297 -1.401454 0
M  V30 41 H 3.461914 0.057501 -1.346295 0
M  V30 42 H 0.416943 2.686753 0.661098 0
M  V30 43 H -0.471691 2.965859 -0.911928 0
M  V30 44 H 1.281646 2.822816 -0.888833 0
M  V30 45 H -2.136090 1.999267 -0.332759 0
M  V30 46 H -4.311987 0.878417 -0.465548 0
M  V30 47 H -6.661840 -4.482765 -0.888229 0
M  V30 48 H -8.000499 -3.236983 -0.577758 0
M  V30 49 H -6.332282 -3.020337 0.085851 0
M  V30 50 H -8.408235 -3.056589 -2.816532 0
M  V30 51 H -7.253750 -2.298056 -3.928621 0
M  V30 52 H -7.116433 -4.026184 -3.593532 0
M  V30 53 H -2.248159 -2.738903 -1.353046 0
M  V30 END ATOM
M  V30 BEGIN BOND
M  V30 1 1 1 2
M  V30 2 1 2 3
M  V30 3 2 3 4
M  V30 4 2 3 5
M  V30 5 1 3 6
M  V30 6 1 6 7
M  V30 7 2 7 8
M  V30 8 1 8 9
M  V30 9 2 9 10
M  V30 10 1 10 11
M  V30 11 1 11 12
M  V30 12 1 12 13
M  V30 13 2 13 14
M  V30 14 1 14 15
M  V30 15 1 14 16
M  V30 16 2 16 17
M  V30 17 1 17 18
M  V30 18 2 18 19
M  V30 19 1 19 20
M  V30 20 1 20 21
M  V30 21 2 21 22
M  V30 22 1 21 23
M  V30 23 1 23 24
M  V30 24 1 23 25
M  V30 25 1 19 26
M  V30 26 2 26 27
M  V30 27 1 27 28
M  V30 28 1 28 29
M  V30 29 2 29 30
M  V30 30 2 11 31
M  V30 31 1 31 7
M  V30 32 1 29 13
M  V30 33 1 27 16
M  V30 34 1 1 32
M  V30 35 1 1 33
M  V30 36 1 1 34
M  V30 37 1 2 35
M  V30 38 1 6 36
M  V30 39 1 8 37
M  V30 40 1 9 38
M  V30 41 1 10 39
M  V30 42 1 12 40
M  V30 43 1 12 41
M  V30 44 1 15 42
M  V30 45 1 15 43
M  V30 46 1 15 44
M  V30 47 1 17 45
M  V30 48 1 18 46
M  V30 49 1 24 47
M  V30 50 1 24 48
M  V30 51 1 24 49
M  V30 52 1 25 50
M  V30 53 1 25 51
M  V30 54 1 25 52
M  V30 55 1 26 53
M  V30 END BOND
M  V30 END CTAB
M  END
>  <Dataset>  (849) 
ChEMBL_Kinases

>  <Ligand_Instance>  (849) 
nan

>  <PDB_ID>  (849) 
nan

>  <Standardized_SMILES>  (849) 
CNS(=O)(=O)Nc1cccc(Cc2c(C)c3ccc(OC(=O)N(C)C)cc3oc2=O)n1

>  <Name>  (849) 
nan

>  <Pocket>  (849) 
nan

>  <ATP_Site>  (849) 
nan

>  <Peripheral>  (849) 
nan

>  <Num_H_Atoms_ProtBoundConf>  (849) 
nan

>  <Num_Resolved_Atoms>  (849) 
nan

>  <Num_Not_Resolved_Atoms>  (849) 
nan

$$$$
CHEMBL3263996
     RDKit          3D

  0  0  0  0  0  0  0  0  0  0999 V3000
M  V30 BEGIN CTAB
M  V30 COUNTS 53 55 0 0 0
M  V30 BEGIN ATOM
M  V30 1 C 4.826238 0.866828 4.493626 0
M  V30 2 N 5.615836 -0.102617 5.278602 0
M  V30 3 S 4.812958 -1.645104 5.278782 0
M  V30 4 O 5.483023 -2.524418 6.293145 0
M  V30 5 O 3.401466 -1.329576 5.781251 0
M  V30 6 N 4.644520 -2.361620 3.767046 0
M  V30 7 C 4.260048 -2.583048 2.419798 0
M  V30 8 C 3.532941 -1.585395 1.817567 0
M  V30 9 C 3.077114 -1.571737 0.506802 0
M  V30 10 C 2.321613 -0.504184 -0.173387 0
M  V30 11 C 0.873019 -0.675830 0.051568 0
M  V30 12 C 0.107856 0.413967 -0.367247 0
M  V30 13 C 0.682944 1.622691 -1.022988 0
M  V30 14 C -1.279276 0.458468 -0.218258 0
M  V30 15 C -2.047098 1.527501 -0.620393 0
M  V30 16 C -3.406625 1.517965 -0.449083 0
M  V30 17 C -3.896675 0.385706 0.140432 0
M  V30 18 O -5.260633 0.275269 0.353925 0
M  V30 19 C -6.108480 -0.204857 -0.630110 0
M  V30 20 O -6.726877 -0.609917 -1.498699 0
M  V30 21 N -6.472448 -0.741898 -1.973874 0
M  V30 22 C -7.918746 -0.956853 -1.994524 0
M  V30 23 C -5.673954 -1.074898 -3.231982 0
M  V30 24 C -3.187514 -0.731649 0.573548 0
M  V30 25 C -1.825123 -0.680515 0.382589 0
M  V30 26 O -1.078578 -1.691999 0.763375 0
M  V30 27 C 0.225249 -1.742847 0.628993 0
M  V30 28 O 0.939016 -2.713246 0.990956 0
M  V30 29 C 3.450553 -2.724542 -0.153617 0
M  V30 30 C 4.168628 -3.749188 0.390644 0
M  V30 31 N 4.556624 -3.664877 1.650117 0
M  V30 32 H 5.406027 1.233492 3.635354 0
M  V30 33 H 3.884583 0.389737 4.209795 0
M  V30 34 H 4.525756 1.708259 5.172774 0
M  V30 35 H 6.580122 -0.190796 4.839773 0
M  V30 36 H 5.218586 -3.241343 3.958277 0
M  V30 37 H 3.203531 -0.644883 2.277151 0
M  V30 38 H 2.576215 -0.623337 -1.268177 0
M  V30 39 H 2.719794 0.453484 0.221008 0
M  V30 40 H 1.749168 1.497187 -1.192873 0
M  V30 41 H 0.521629 2.537722 -0.419264 0
M  V30 42 H 0.120734 1.791627 -1.989215 0
M  V30 43 H -1.573626 2.388801 -1.073774 0
M  V30 44 H -4.058160 2.305557 -0.729532 0
M  V30 45 H -8.466780 -0.002001 -1.746919 0
M  V30 46 H -8.196936 -1.731607 -1.288396 0
M  V30 47 H -8.217226 -1.194652 -3.045961 0
M  V30 48 H -5.772532 -2.155778 -3.408901 0
M  V30 49 H -4.644873 -0.733219 -3.067705 0
M  V30 50 H -6.110203 -0.526734 -4.060493 0
M  V30 51 H -3.657971 -1.591395 1.032787 0
M  V30 52 H 3.190694 -2.913353 -1.158764 0
M  V30 53 H 4.489913 -4.668332 -0.057945 0
M  V30 END ATOM
M  V30 BEGIN BOND
M  V30 1 1 1 2
M  V30 2 1 2 3
M  V30 3 2 3 4
M  V30 4 2 3 5
M  V30 5 1 3 6
M  V30 6 1 6 7
M  V30 7 2 7 8
M  V30 8 1 8 9
M  V30 9 1 9 10
M  V30 10 1 10 11
M  V30 11 2 11 12
M  V30 12 1 12 13
M  V30 13 1 12 14
M  V30 14 2 14 15
M  V30 15 1 15 16
M  V30 16 2 16 17
M  V30 17 1 17 18
M  V30 18 1 18 19
M  V30 19 2 19 20
M  V30 20 1 19 21
M  V30 21 1 21 22
M  V30 22 1 21 23
M  V30 23 1 17 24
M  V30 24 2 24 25
M  V30 25 1 25 26
M  V30 26 1 26 27
M  V30 27 2 27 28
M  V30 28 2 9 29
M  V30 29 1 29 30
M  V30 30 2 30 31
M  V30 31 1 31 7
M  V30 32 1 27 11
M  V30 33 1 25 14
M  V30 34 1 1 32
M  V30 35 1 1 33
M  V30 36 1 1 34
M  V30 37 1 2 35
M  V30 38 1 6 36
M  V30 39 1 8 37
M  V30 40 1 10 38
M  V30 41 1 10 39
M  V30 42 1 13 40
M  V30 43 1 13 41
M  V30 44 1 13 42
M  V30 45 1 15 43
M  V30 46 1 16 44
M  V30 47 1 22 45
M  V30 48 1 22 46
M  V30 49 1 22 47
M  V30 50 1 23 48
M  V30 51 1 23 49
M  V30 52 1 23 50
M  V30 53 1 24 51
M  V30 54 1 29 52
M  V30 55 1 30 53
M  V30 END BOND
M  V30 END CTAB
M  END
>  <Dataset>  (850) 
ChEMBL_Kinases

>  <Ligand_Instance>  (850) 
nan

>  <PDB_ID>  (850) 
nan

>  <Standardized_SMILES>  (850) 
CNS(=O)(=O)Nc1cc(Cc2c(C)c3ccc(OC(=O)N(C)C)cc3oc2=O)ccn1

>  <Name>  (850) 
nan

>  <Pocket>  (850) 
nan

>  <ATP_Site>  (850) 
nan

>  <Peripheral>  (850) 
nan

>  <Num_H_Atoms_ProtBoundConf>  (850) 
nan

>  <Num_Resolved_Atoms>  (850) 
nan

>  <Num_Not_Resolved_Atoms>  (850) 
nan

$$$$
CHEMBL3675486
     RDKit          3D

  0  0  0  0  0  0  0  0  0  0999 V3000
M  V30 BEGIN CTAB
M  V30 COUNTS 53 56 0 0 0
M  V30 BEGIN ATOM
M  V30 1 C 0.549543 -0.787960 4.875385 0
M  V30 2 C -0.607533 -0.215374 4.134764 0
M  V30 3 N -0.141844 0.938179 3.371564 0
M  V30 4 C 1.046280 0.823739 2.572167 0
M  V30 5 N 1.733970 -0.330138 2.563930 0
M  V30 6 C 2.847794 -0.412231 1.831959 0
M  V30 7 N 3.351341 0.598867 1.079457 0
M  V30 8 C 2.689542 1.793458 1.053510 0
M  V30 9 C 3.155170 2.844974 0.310523 0
M  V30 10 C 4.367325 2.718309 -0.471007 0
M  V30 11 N 5.149277 1.540673 -0.534077 0
M  V30 12 O 4.822810 3.661367 -1.163395 0
M  V30 13 C 2.484539 4.045346 0.288006 0
M  V30 14 C 1.324907 4.150435 1.042132 0
M  V30 15 C 0.893569 3.064430 1.775459 0
M  V30 16 C 1.541564 1.863707 1.813697 0
M  V30 17 C -1.470668 -1.132533 3.411267 0
M  V30 18 C -2.579328 -1.705487 4.060373 0
M  V30 19 C -3.499959 -2.581943 3.526913 0
M  V30 20 C -3.328678 -2.948311 2.209078 0
M  V30 21 C -2.266580 -2.432727 1.497657 0
M  V30 22 N -2.099126 -2.818048 0.136592 0
M  V30 23 C -2.572479 -2.279715 -1.067733 0
M  V30 24 O -3.292191 -1.246886 -0.933529 0
M  V30 25 C -2.212897 -2.925618 -2.325866 0
M  V30 26 C -1.431587 -4.049588 -2.495196 0
M  V30 27 C -1.189261 -4.531248 -3.768884 0
M  V30 28 C -1.730130 -3.886005 -4.870780 0
M  V30 29 C -1.463384 -4.405719 -6.176722 0
M  V30 30 N -1.245425 -4.849280 -7.241518 0
M  V30 31 C -2.519272 -2.754157 -4.730842 0
M  V30 32 F -3.037341 -2.140878 -5.830020 0
M  V30 33 C -2.747224 -2.292022 -3.449687 0
M  V30 34 C -1.395149 -1.561469 2.113632 0
M  V30 35 H 1.299725 0.014328 5.036470 0
M  V30 36 H 0.943533 -1.682297 4.355431 0
M  V30 37 H 0.301003 -1.131690 5.902518 0
M  V30 38 H -1.281185 0.217290 4.969120 0
M  V30 39 H -0.706317 1.807424 3.443319 0
M  V30 40 H 3.466468 -1.310175 1.768190 0
M  V30 41 H 5.016593 0.719812 -1.157177 0
M  V30 42 H 5.957609 1.521768 0.144920 0
M  V30 43 H 2.843469 4.879353 -0.294157 0
M  V30 44 H 0.805122 5.106588 1.014289 0
M  V30 45 H -0.007685 3.256207 2.316862 0
M  V30 46 H -2.736011 -1.426118 5.116672 0
M  V30 47 H -4.306700 -2.946030 4.140664 0
M  V30 48 H -4.035922 -3.624097 1.792990 0
M  V30 49 H -1.494268 -3.663403 0.231475 0
M  V30 50 H -1.052167 -4.486927 -1.581772 0
M  V30 51 H -0.572997 -5.410868 -3.838899 0
M  V30 52 H -3.370713 -1.404326 -3.399300 0
M  V30 53 H -0.611067 -1.206970 1.497181 0
M  V30 END ATOM
M  V30 BEGIN BOND
M  V30 1 1 1 2
M  V30 2 1 2 3
M  V30 3 1 3 4
M  V30 4 2 4 5
M  V30 5 1 5 6
M  V30 6 2 6 7
M  V30 7 1 7 8
M  V30 8 2 8 9
M  V30 9 1 9 10
M  V30 10 1 10 11
M  V30 11 2 10 12
M  V30 12 1 9 13
M  V30 13 2 13 14
M  V30 14 1 14 15
M  V30 15 2 15 16
M  V30 16 1 2 17
M  V30 17 2 17 18
M  V30 18 1 18 19
M  V30 19 2 19 20
M  V30 20 1 20 21
M  V30 21 1 21 22
M  V30 22 1 22 23
M  V30 23 2 23 24
M  V30 24 1 23 25
M  V30 25 2 25 26
M  V30 26 1 26 27
M  V30 27 2 27 28
M  V30 28 1 28 29
M  V30 29 3 29 30
M  V30 30 1 28 31
M  V30 31 1 31 32
M  V30 32 2 31 33
M  V30 33 2 21 34
M  V30 34 1 16 4
M  V30 35 1 34 17
M  V30 36 1 16 8
M  V30 37 1 33 25
M  V30 38 1 1 35
M  V30 39 1 1 36
M  V30 40 1 1 37
M  V30 41 1 2 38
M  V30 42 1 3 39
M  V30 43 1 6 40
M  V30 44 1 11 41
M  V30 45 1 11 42
M  V30 46 1 13 43
M  V30 47 1 14 44
M  V30 48 1 15 45
M  V30 49 1 18 46
M  V30 50 1 19 47
M  V30 51 1 20 48
M  V30 52 1 22 49
M  V30 53 1 26 50
M  V30 54 1 27 51
M  V30 55 1 33 52
M  V30 56 1 34 53
M  V30 END BOND
M  V30 END CTAB
M  END
>  <Dataset>  (851) 
ChEMBL_Kinases

>  <Ligand_Instance>  (851) 
nan

>  <PDB_ID>  (851) 
nan

>  <Standardized_SMILES>  (851) 
CC(Nc1ncnc2c(C(N)=O)cccc12)c1cccc(NC(=O)c2ccc(C#N)c(F)c2)c1

>  <Name>  (851) 
nan

>  <Pocket>  (851) 
nan

>  <ATP_Site>  (851) 
nan

>  <Peripheral>  (851) 
nan

>  <Num_H_Atoms_ProtBoundConf>  (851) 
nan

>  <Num_Resolved_Atoms>  (851) 
nan

>  <Num_Not_Resolved_Atoms>  (851) 
nan

$$$$
CHEMBL3675519
     RDKit          3D

  0  0  0  0  0  0  0  0  0  0999 V3000
M  V30 BEGIN CTAB
M  V30 COUNTS 60 63 0 0 0
M  V30 BEGIN ATOM
M  V30 1 C 3.059250 -3.391303 3.338984 0
M  V30 2 O 2.140074 -2.733525 2.518336 0
M  V30 3 C 1.882125 -1.434799 3.015767 0
M  V30 4 C 0.889593 -0.830428 2.061664 0
M  V30 5 N 0.487615 0.499448 2.389994 0
M  V30 6 C 1.464369 1.540669 2.400559 0
M  V30 7 N 2.749564 1.285998 2.098790 0
M  V30 8 C 3.720149 2.216098 2.084193 0
M  V30 9 N 3.469724 3.504759 2.378454 0
M  V30 10 C 2.205633 3.828984 2.689258 0
M  V30 11 C 1.865166 5.127828 3.003096 0
M  V30 12 C 2.873532 6.181084 3.004071 0
M  V30 13 N 4.249436 5.977686 2.693323 0
M  V30 14 O 2.700278 7.377362 3.265869 0
M  V30 15 C 0.581941 5.515114 3.329618 0
M  V30 16 C -0.387577 4.530243 3.333661 0
M  V30 17 C -0.045632 3.246566 3.022395 0
M  V30 18 C 1.220572 2.865313 2.700348 0
M  V30 19 C -0.316571 -1.680671 1.902785 0
M  V30 20 C -1.352977 -1.609431 2.831179 0
M  V30 21 C -2.485572 -2.389967 2.705775 0
M  V30 22 C -2.625387 -3.270810 1.648450 0
M  V30 23 C -1.593244 -3.337842 0.729062 0
M  V30 24 N -1.564401 -4.193762 -0.431404 0
M  V30 25 C -2.152721 -3.468015 -1.530640 0
M  V30 26 O -2.513686 -2.305217 -1.143111 0
M  V30 27 C -2.288542 -4.035861 -2.872852 0
M  V30 28 C -1.907004 -5.286466 -3.307299 0
M  V30 29 C -2.131204 -5.617338 -4.627650 0
M  V30 30 C -2.721046 -4.733386 -5.507507 0
M  V30 31 O -2.906723 -5.154196 -6.818245 0
M  V30 32 C -3.511869 -4.253019 -7.729281 0
M  V30 33 C -3.113248 -3.465941 -5.087688 0
M  V30 34 C -2.884232 -3.145461 -3.764870 0
M  V30 35 C -0.464373 -2.565821 0.846187 0
M  V30 36 H 4.029028 -2.851809 3.395907 0
M  V30 37 H 3.248081 -4.392340 2.902530 0
M  V30 38 H 2.606939 -3.572330 4.347300 0
M  V30 39 H 1.547527 -1.437637 4.054426 0
M  V30 40 H 2.845298 -0.892247 2.983266 0
M  V30 41 H 1.359816 -0.791530 1.041087 0
M  V30 42 H -0.514114 0.666943 2.613708 0
M  V30 43 H 4.678613 1.811882 1.818282 0
M  V30 44 H 4.529157 5.591059 1.742403 0
M  V30 45 H 5.073568 6.177163 3.333275 0
M  V30 46 H 0.309081 6.533055 3.576804 0
M  V30 47 H -1.396548 4.841346 3.591548 0
M  V30 48 H -0.873682 2.555107 3.054435 0
M  V30 49 H -1.304718 -0.929161 3.695753 0
M  V30 50 H -3.312588 -2.355121 3.417492 0
M  V30 51 H -3.473837 -3.920510 1.468222 0
M  V30 52 H -1.218897 -5.174699 -0.606912 0
M  V30 53 H -1.455747 -5.898268 -2.538975 0
M  V30 54 H -1.815012 -6.610238 -4.923388 0
M  V30 55 H -2.860093 -3.376933 -7.808189 0
M  V30 56 H -4.465284 -3.897570 -7.249697 0
M  V30 57 H -3.758263 -4.727591 -8.689114 0
M  V30 58 H -3.573382 -2.785683 -5.787767 0
M  V30 59 H -3.217849 -2.130474 -3.501210 0
M  V30 60 H 0.376569 -2.571272 0.162413 0
M  V30 END ATOM
M  V30 BEGIN BOND
M  V30 1 1 1 2
M  V30 2 1 2 3
M  V30 3 1 3 4
M  V30 4 1 4 5
M  V30 5 1 5 6
M  V30 6 2 6 7
M  V30 7 1 7 8
M  V30 8 2 8 9
M  V30 9 1 9 10
M  V30 10 2 10 11
M  V30 11 1 11 12
M  V30 12 1 12 13
M  V30 13 2 12 14
M  V30 14 1 11 15
M  V30 15 2 15 16
M  V30 16 1 16 17
M  V30 17 2 17 18
M  V30 18 1 4 19
M  V30 19 2 19 20
M  V30 20 1 20 21
M  V30 21 2 21 22
M  V30 22 1 22 23
M  V30 23 1 23 24
M  V30 24 1 24 25
M  V30 25 2 25 26
M  V30 26 1 25 27
M  V30 27 2 27 28
M  V30 28 1 28 29
M  V30 29 2 29 30
M  V30 30 1 30 31
M  V30 31 1 31 32
M  V30 32 1 30 33
M  V30 33 2 33 34
M  V30 34 2 23 35
M  V30 35 1 18 6
M  V30 36 1 35 19
M  V30 37 1 18 10
M  V30 38 1 34 27
M  V30 39 1 1 36
M  V30 40 1 1 37
M  V30 41 1 1 38
M  V30 42 1 3 39
M  V30 43 1 3 40
M  V30 44 1 4 41
M  V30 45 1 5 42
M  V30 46 1 8 43
M  V30 47 1 13 44
M  V30 48 1 13 45
M  V30 49 1 15 46
M  V30 50 1 16 47
M  V30 51 1 17 48
M  V30 52 1 20 49
M  V30 53 1 21 50
M  V30 54 1 22 51
M  V30 55 1 24 52
M  V30 56 1 28 53
M  V30 57 1 29 54
M  V30 58 1 32 55
M  V30 59 1 32 56
M  V30 60 1 32 57
M  V30 61 1 33 58
M  V30 62 1 34 59
M  V30 63 1 35 60
M  V30 END BOND
M  V30 END CTAB
M  END
>  <Dataset>  (852) 
ChEMBL_Kinases

>  <Ligand_Instance>  (852) 
nan

>  <PDB_ID>  (852) 
nan

>  <Standardized_SMILES>  (852) 
COCC(Nc1ncnc2c(C(N)=O)cccc12)c1cccc(NC(=O)c2ccc(OC)cc2)c1

>  <Name>  (852) 
nan

>  <Pocket>  (852) 
nan

>  <ATP_Site>  (852) 
nan

>  <Peripheral>  (852) 
nan

>  <Num_H_Atoms_ProtBoundConf>  (852) 
nan

>  <Num_Resolved_Atoms>  (852) 
nan

>  <Num_Not_Resolved_Atoms>  (852) 
nan

$$$$
CHEMBL4213168
     RDKit          3D

  0  0  0  0  0  0  0  0  0  0999 V3000
M  V30 BEGIN CTAB
M  V30 COUNTS 54 58 0 0 0
M  V30 BEGIN ATOM
M  V30 1 C 0.571472 -2.887376 4.809842 0
M  V30 2 N 1.969662 -3.185522 4.943480 0
M  V30 3 C 2.787145 -2.010077 4.839791 0
M  V30 4 C 2.936172 -1.562857 3.399695 0
M  V30 5 N 3.154814 -2.743780 2.594133 0
M  V30 6 C 2.969593 -2.880578 1.184880 0
M  V30 7 O 3.165636 -3.915284 0.490340 0
M  V30 8 C 2.502232 -1.700734 0.467156 0
M  V30 9 C 3.190253 -0.608224 -0.013835 0
M  V30 10 C 2.521454 0.401550 -0.672389 0
M  V30 11 C 1.155335 0.346507 -0.866036 0
M  V30 12 C 0.436272 1.404023 -1.565852 0
M  V30 13 C 1.024897 2.523013 -2.092826 0
M  V30 14 C 0.248460 3.464564 -2.742930 0
M  V30 15 C -1.130857 3.281322 -2.864813 0
M  V30 16 N -2.114035 4.008903 -3.429838 0
M  V30 17 C -3.272357 3.349816 -3.251030 0
M  V30 18 C -3.014714 2.179731 -2.557915 0
M  V30 19 C -3.876593 1.077834 -2.078788 0
M  V30 20 C -5.095802 1.269746 -1.432854 0
M  V30 21 C -5.800723 0.157125 -1.032470 0
M  V30 22 C -5.360923 -1.142989 -1.238003 0
M  V30 23 C -6.129624 -2.297541 -0.799308 0
M  V30 24 N -6.732714 -3.224843 -0.446462 0
M  V30 25 C -4.135517 -1.348722 -1.886430 0
M  V30 26 C -3.466232 -0.208388 -2.268585 0
M  V30 27 N -1.666296 2.172262 -2.334670 0
M  V30 28 N -0.893752 1.316761 -1.733253 0
M  V30 29 C 0.452757 -0.742524 -0.388970 0
M  V30 30 C 1.119724 -1.762824 0.274516 0
M  V30 31 C 3.611582 -3.897123 3.359228 0
M  V30 32 C 2.404151 -4.314623 4.192172 0
M  V30 33 H 0.388089 -1.889221 4.337919 0
M  V30 34 H 0.167963 -2.790527 5.844919 0
M  V30 35 H 0.050371 -3.704400 4.288211 0
M  V30 36 H 3.805965 -2.160548 5.289173 0
M  V30 37 H 2.323965 -1.173933 5.440267 0
M  V30 38 H 1.974741 -1.054269 3.140372 0
M  V30 39 H 3.778268 -0.844941 3.315037 0
M  V30 40 H 4.243681 -0.672925 0.192956 0
M  V30 41 H 3.119761 1.215342 -1.015966 0
M  V30 42 H 2.092045 2.657190 -1.995579 0
M  V30 43 H 0.720215 4.355063 -3.161685 0
M  V30 44 H -4.291482 3.578529 -3.544310 0
M  V30 45 H -5.426705 2.280164 -1.276394 0
M  V30 46 H -6.751437 0.302430 -0.528555 0
M  V30 47 H -3.756317 -2.339562 -2.064146 0
M  V30 48 H -2.513027 -0.376956 -2.774232 0
M  V30 49 H -0.628719 -0.751917 -0.556310 0
M  V30 50 H 0.442399 -2.563262 0.598117 0
M  V30 51 H 4.430690 -3.574520 3.999032 0
M  V30 52 H 3.960159 -4.715312 2.697656 0
M  V30 53 H 1.599713 -4.653965 3.467176 0
M  V30 54 H 2.629148 -5.165064 4.857069 0
M  V30 END ATOM
M  V30 BEGIN BOND
M  V30 1 1 1 2
M  V30 2 1 2 3
M  V30 3 1 3 4
M  V30 4 1 4 5
M  V30 5 1 5 6
M  V30 6 2 6 7
M  V30 7 1 6 8
M  V30 8 2 8 9
M  V30 9 1 9 10
M  V30 10 2 10 11
M  V30 11 1 11 12
M  V30 12 1 12 13
M  V30 13 2 13 14
M  V30 14 1 14 15
M  V30 15 2 15 16
M  V30 16 1 16 17
M  V30 17 2 17 18
M  V30 18 1 18 19
M  V30 19 2 19 20
M  V30 20 1 20 21
M  V30 21 2 21 22
M  V30 22 1 22 23
M  V30 23 3 23 24
M  V30 24 1 22 25
M  V30 25 2 25 26
M  V30 26 1 18 27
M  V30 27 1 27 28
M  V30 28 1 11 29
M  V30 29 2 29 30
M  V30 30 1 5 31
M  V30 31 1 31 32
M  V30 32 1 32 2
M  V30 33 1 30 8
M  V30 34 2 28 12
M  V30 35 1 27 15
M  V30 36 1 26 19
M  V30 37 1 1 33
M  V30 38 1 1 34
M  V30 39 1 1 35
M  V30 40 1 3 36
M  V30 41 1 3 37
M  V30 42 1 4 38
M  V30 43 1 4 39
M  V30 44 1 9 40
M  V30 45 1 10 41
M  V30 46 1 13 42
M  V30 47 1 14 43
M  V30 48 1 17 44
M  V30 49 1 20 45
M  V30 50 1 21 46
M  V30 51 1 25 47
M  V30 52 1 26 48
M  V30 53 1 29 49
M  V30 54 1 30 50
M  V30 55 1 31 51
M  V30 56 1 31 52
M  V30 57 1 32 53
M  V30 58 1 32 54
M  V30 END BOND
M  V30 END CTAB
M  END
>  <Dataset>  (853) 
ChEMBL_Kinases

>  <Ligand_Instance>  (853) 
nan

>  <PDB_ID>  (853) 
nan

>  <Standardized_SMILES>  (853) 
CN1CCN(C(=O)c2ccc(-c3ccc4ncc(-c5ccc(C#N)cc5)n4n3)cc2)CC1

>  <Name>  (853) 
nan

>  <Pocket>  (853) 
nan

>  <ATP_Site>  (853) 
nan

>  <Peripheral>  (853) 
nan

>  <Num_H_Atoms_ProtBoundConf>  (853) 
nan

>  <Num_Resolved_Atoms>  (853) 
nan

>  <Num_Not_Resolved_Atoms>  (853) 
nan

$$$$
CHEMBL3260569
     RDKit          3D

  0  0  0  0  0  0  0  0  0  0999 V3000
M  V30 BEGIN CTAB
M  V30 COUNTS 48 52 0 0 0
M  V30 BEGIN ATOM
M  V30 1 C -0.641920 -1.899331 5.034994 0
M  V30 2 C 0.377011 -2.061470 3.959615 0
M  V30 3 C 1.558826 -2.740538 4.175123 0
M  V30 4 C 2.542464 -2.928074 3.227744 0
M  V30 5 C 2.326746 -2.395194 1.968507 0
M  V30 6 C 1.146692 -1.715135 1.747672 0
M  V30 7 C 0.789587 -1.103372 0.469765 0
M  V30 8 N 1.491701 -0.128695 -0.130367 0
M  V30 9 C 0.970726 0.269489 -1.287478 0
M  V30 10 C 1.252565 1.251280 -2.351703 0
M  V30 11 N 0.584572 2.517717 -2.187412 0
M  V30 12 C 0.642487 3.564193 -1.259611 0
M  V30 13 C 1.535592 3.475004 -0.205826 0
M  V30 14 C 1.686304 4.450262 0.765753 0
M  V30 15 C 0.922145 5.581674 0.709478 0
M  V30 16 C 0.035089 5.679179 -0.330330 0
M  V30 17 C -0.128617 4.732720 -1.295071 0
M  V30 18 Br -1.372195 4.888217 -2.737681 0
M  V30 19 N -0.148979 -0.495370 -1.459213 0
M  V30 20 C -0.255336 -1.318443 -0.403170 0
M  V30 21 C -1.303379 -2.326834 -0.147786 0
M  V30 22 C -2.657297 -2.086222 0.004166 0
M  V30 23 C -3.510897 -3.134875 0.237207 0
M  V30 24 C -3.022070 -4.428658 0.320350 0
M  V30 25 N -3.614111 -5.620343 0.535162 0
M  V30 26 C -2.670792 -6.577316 0.519575 0
M  V30 27 N -1.523837 -5.938023 0.294404 0
M  V30 28 N -1.702918 -4.642484 0.169949 0
M  V30 29 C -0.844453 -3.629769 -0.059578 0
M  V30 30 N 0.191348 -1.547146 2.709829 0
M  V30 31 H -1.244904 -0.996941 4.728025 0
M  V30 32 H -1.285651 -2.789226 5.041532 0
M  V30 33 H -0.137398 -1.699606 5.998525 0
M  V30 34 H 1.761359 -3.176330 5.165552 0
M  V30 35 H 3.455757 -3.469891 3.445904 0
M  V30 36 H 3.033294 -2.488077 1.162943 0
M  V30 37 H 2.367526 0.313370 0.215874 0
M  V30 38 H 2.374916 1.441815 -2.266400 0
M  V30 39 H 1.063159 0.836047 -3.347760 0
M  V30 40 H -0.135719 2.734643 -2.943317 0
M  V30 41 H 2.197089 2.641667 -0.048213 0
M  V30 42 H 2.386673 4.376437 1.589875 0
M  V30 43 H 1.010776 6.362404 1.447221 0
M  V30 44 H -0.617583 6.545956 -0.458516 0
M  V30 45 H -2.942997 -1.053567 -0.076158 0
M  V30 46 H -4.567212 -2.923206 0.352895 0
M  V30 47 H -2.828729 -7.630888 0.660938 0
M  V30 48 H 0.196616 -3.884262 -0.168262 0
M  V30 END ATOM
M  V30 BEGIN BOND
M  V30 1 1 1 2
M  V30 2 2 2 3
M  V30 3 1 3 4
M  V30 4 2 4 5
M  V30 5 1 5 6
M  V30 6 1 6 7
M  V30 7 1 7 8
M  V30 8 1 8 9
M  V30 9 1 9 10
M  V30 10 1 10 11
M  V30 11 1 11 12
M  V30 12 2 12 13
M  V30 13 1 13 14
M  V30 14 2 14 15
M  V30 15 1 15 16
M  V30 16 2 16 17
M  V30 17 1 17 18
M  V30 18 2 9 19
M  V30 19 1 19 20
M  V30 20 1 20 21
M  V30 21 1 21 22
M  V30 22 2 22 23
M  V30 23 1 23 24
M  V30 24 2 24 25
M  V30 25 1 25 26
M  V30 26 2 26 27
M  V30 27 1 27 28
M  V30 28 1 28 29
M  V30 29 2 6 30
M  V30 30 1 30 2
M  V30 31 2 20 7
M  V30 32 2 29 21
M  V30 33 1 17 12
M  V30 34 1 28 24
M  V30 35 1 1 31
M  V30 36 1 1 32
M  V30 37 1 1 33
M  V30 38 1 3 34
M  V30 39 1 4 35
M  V30 40 1 5 36
M  V30 41 1 8 37
M  V30 42 1 10 38
M  V30 43 1 10 39
M  V30 44 1 11 40
M  V30 45 1 13 41
M  V30 46 1 14 42
M  V30 47 1 15 43
M  V30 48 1 16 44
M  V30 49 1 22 45
M  V30 50 1 23 46
M  V30 51 1 26 47
M  V30 52 1 29 48
M  V30 END BOND
M  V30 END CTAB
M  END
>  <Dataset>  (854) 
ChEMBL_Kinases

>  <Ligand_Instance>  (854) 
nan

>  <PDB_ID>  (854) 
nan

>  <Standardized_SMILES>  (854) 
Cc1cccc(-c2[nH]c(CNc3ccccc3Br)nc2-c2ccc3ncnn3c2)n1

>  <Name>  (854) 
nan

>  <Pocket>  (854) 
nan

>  <ATP_Site>  (854) 
nan

>  <Peripheral>  (854) 
nan

>  <Num_H_Atoms_ProtBoundConf>  (854) 
nan

>  <Num_Resolved_Atoms>  (854) 
nan

>  <Num_Not_Resolved_Atoms>  (854) 
nan

$$$$
CHEMBL3675517
     RDKit          3D

  0  0  0  0  0  0  0  0  0  0999 V3000
M  V30 BEGIN CTAB
M  V30 COUNTS 55 58 0 0 0
M  V30 BEGIN ATOM
M  V30 1 C 5.762327 -4.591515 4.238605 0
M  V30 2 C 5.090184 -3.373685 3.711875 0
M  V30 3 C 5.250823 -2.099824 4.211538 0
M  V30 4 C 4.563868 -1.025684 3.632427 0
M  V30 5 C 3.715062 -1.199586 2.558353 0
M  V30 6 C 3.033683 -0.033522 2.008023 0
M  V30 7 O 3.278051 1.065830 2.567365 0
M  V30 8 N 2.146468 -0.144671 0.902783 0
M  V30 9 C 1.431975 0.922517 0.288604 0
M  V30 10 C 2.052627 1.579502 -0.755069 0
M  V30 11 C 1.381299 2.614591 -1.364335 0
M  V30 12 C 0.121031 3.013608 -0.970656 0
M  V30 13 C -0.505534 2.368105 0.065317 0
M  V30 14 C -1.842968 2.602185 0.671988 0 CFG=1
M  V30 15 C -2.723886 3.510127 -0.127147 0
M  V30 16 N -2.494108 1.311895 0.853498 0
M  V30 17 C -2.705443 0.527772 -0.313295 0
M  V30 18 N -2.332184 0.935230 -1.520748 0
M  V30 19 C -2.506478 0.237253 -2.648460 0
M  V30 20 N -3.094393 -0.977630 -2.655999 0
M  V30 21 C -3.498506 -1.453900 -1.465721 0
M  V30 22 C -4.097541 -2.677743 -1.426680 0
M  V30 23 C -4.310836 -3.475776 -2.620428 0
M  V30 24 N -3.950434 -3.126409 -3.936584 0
M  V30 25 O -4.861285 -4.608231 -2.608467 0
M  V30 26 C -4.528123 -3.207389 -0.232360 0
M  V30 27 C -4.351799 -2.489153 0.948935 0
M  V30 28 C -3.742602 -1.259038 0.860988 0
M  V30 29 C -3.306389 -0.714149 -0.321284 0
M  V30 30 C 0.165559 1.313232 0.694433 0
M  V30 31 C 3.574150 -2.485886 2.079717 0
M  V30 32 C 4.233818 -3.568455 2.623614 0
M  V30 33 Cl 3.984727 -5.170472 1.937929 0
M  V30 34 H 6.177341 -5.164601 3.359838 0
M  V30 35 H 6.637615 -4.292381 4.822821 0
M  V30 36 H 5.066204 -5.281949 4.748369 0
M  V30 37 H 5.913094 -1.988115 5.043886 0
M  V30 38 H 4.752096 -0.059708 4.092144 0
M  V30 39 H 1.948994 -1.057171 0.445043 0
M  V30 40 H 3.046585 1.318399 -1.118950 0
M  V30 41 H 1.810769 3.176429 -2.193281 0
M  V30 42 H -0.478032 3.808574 -1.386247 0
M  V30 43 H -1.663609 3.066829 1.659120 0
M  V30 44 H -2.224750 4.395612 -0.516943 0
M  V30 45 H -3.269309 3.042077 -0.948769 0
M  V30 46 H -3.525278 3.874552 0.581312 0
M  V30 47 H -2.763705 1.044267 1.821414 0
M  V30 48 H -2.172876 0.638602 -3.603784 0
M  V30 49 H -2.961082 -2.849941 -4.118538 0
M  V30 50 H -4.654124 -3.141597 -4.719946 0
M  V30 51 H -5.009259 -4.183531 -0.178225 0
M  V30 52 H -4.695612 -2.924905 1.859727 0
M  V30 53 H -3.629928 -0.747615 1.790586 0
M  V30 54 H -0.220015 0.720266 1.526789 0
M  V30 55 H 2.926819 -2.654157 1.252124 0
M  V30 END ATOM
M  V30 BEGIN BOND
M  V30 1 1 1 2
M  V30 2 2 2 3
M  V30 3 1 3 4
M  V30 4 2 4 5
M  V30 5 1 5 6
M  V30 6 2 6 7
M  V30 7 1 6 8
M  V30 8 1 8 9
M  V30 9 2 9 10
M  V30 10 1 10 11
M  V30 11 2 11 12
M  V30 12 1 12 13
M  V30 13 1 13 14
M  V30 14 1 14 15
M  V30 15 1 14 16
M  V30 16 1 16 17
M  V30 17 2 17 18
M  V30 18 1 18 19
M  V30 19 2 19 20
M  V30 20 1 20 21
M  V30 21 2 21 22
M  V30 22 1 22 23
M  V30 23 1 23 24
M  V30 24 2 23 25
M  V30 25 1 22 26
M  V30 26 2 26 27
M  V30 27 1 27 28
M  V30 28 2 28 29
M  V30 29 2 13 30
M  V30 30 1 5 31
M  V30 31 2 31 32
M  V30 32 1 32 33
M  V30 33 1 32 2
M  V30 34 1 30 9
M  V30 35 1 29 17
M  V30 36 1 29 21
M  V30 37 1 1 34
M  V30 38 1 1 35
M  V30 39 1 1 36
M  V30 40 1 3 37
M  V30 41 1 4 38
M  V30 42 1 8 39
M  V30 43 1 10 40
M  V30 44 1 11 41
M  V30 45 1 12 42
M  V30 46 1 14 43 CFG=1
M  V30 47 1 15 44
M  V30 48 1 15 45
M  V30 49 1 15 46
M  V30 50 1 16 47
M  V30 51 1 19 48
M  V30 52 1 24 49
M  V30 53 1 24 50
M  V30 54 1 26 51
M  V30 55 1 27 52
M  V30 56 1 28 53
M  V30 57 1 30 54
M  V30 58 1 31 55
M  V30 END BOND
M  V30 END CTAB
M  END
>  <Dataset>  (855) 
ChEMBL_Kinases

>  <Ligand_Instance>  (855) 
nan

>  <PDB_ID>  (855) 
nan

>  <Standardized_SMILES>  (855) 
Cc1ccc(C(=O)Nc2cccc([C@@H](C)Nc3ncnc4c(C(N)=O)cccc34)c2)cc1Cl

>  <Name>  (855) 
nan

>  <Pocket>  (855) 
nan

>  <ATP_Site>  (855) 
nan

>  <Peripheral>  (855) 
nan

>  <Num_H_Atoms_ProtBoundConf>  (855) 
nan

>  <Num_Resolved_Atoms>  (855) 
nan

>  <Num_Not_Resolved_Atoms>  (855) 
nan

$$$$
CHEMBL3260570
     RDKit          3D

  0  0  0  0  0  0  0  0  0  0999 V3000
M  V30 BEGIN CTAB
M  V30 COUNTS 51 55 0 0 0
M  V30 BEGIN ATOM
M  V30 1 C 0.281465 -1.866312 5.133017 0
M  V30 2 C 1.048414 -2.320198 3.931870 0
M  V30 3 C 1.898021 -3.407038 4.071275 0
M  V30 4 C 2.603306 -3.824970 2.964023 0
M  V30 5 C 2.470312 -3.183771 1.752613 0
M  V30 6 C 1.620921 -2.106148 1.635673 0
M  V30 7 C 1.292092 -1.261319 0.487281 0
M  V30 8 N 1.646353 0.035706 0.520229 0
M  V30 9 C 1.286266 0.694333 -0.589338 0
M  V30 10 C 1.341271 2.055384 -1.179746 0
M  V30 11 N 0.116366 2.764411 -0.897375 0
M  V30 12 C -0.522220 3.240312 0.253942 0
M  V30 13 C 0.050567 3.074916 1.498398 0
M  V30 14 C -0.484283 3.506627 2.678703 0
M  V30 15 C -1.706660 4.168147 2.624764 0
M  V30 16 C -2.296830 4.345162 1.397014 0
M  V30 17 C -1.753346 3.908304 0.213838 0
M  V30 18 C -2.423747 4.123277 -1.076886 0
M  V30 19 N 0.666440 -0.233071 -1.379022 0
M  V30 20 C 0.659914 -1.418692 -0.746964 0
M  V30 21 C 0.147389 -2.742827 -1.095948 0
M  V30 22 C -1.244737 -2.744441 -1.168137 0
M  V30 23 C -1.933730 -3.897723 -1.484759 0
M  V30 24 C -1.211786 -5.056637 -1.730065 0
M  V30 25 N -1.575448 -6.318565 -2.055061 0
M  V30 26 C -0.465144 -7.060244 -2.178008 0
M  V30 27 N 0.589340 -6.235354 -1.923580 0
M  V30 28 N 0.117817 -5.019397 -1.652678 0
M  V30 29 C 0.819975 -3.915419 -1.347417 0
M  V30 30 N 0.935885 -1.718028 2.756184 0
M  V30 31 H -0.713426 -2.354622 5.183495 0
M  V30 32 H 0.855967 -1.982720 6.072102 0
M  V30 33 H 0.102775 -0.770081 5.009425 0
M  V30 34 H 2.042178 -3.947659 4.995637 0
M  V30 35 H 3.296586 -4.658657 2.940581 0
M  V30 36 H 2.961693 -3.409522 0.820927 0
M  V30 37 H 2.144594 0.583670 1.246949 0
M  V30 38 H 1.613887 2.056450 -2.232109 0
M  V30 39 H 2.213902 2.556730 -0.657132 0
M  V30 40 H -0.427121 2.967580 -1.791641 0
M  V30 41 H 0.998324 2.584266 1.661060 0
M  V30 42 H -0.058426 3.388869 3.657926 0
M  V30 43 H -2.200078 4.541643 3.504658 0
M  V30 44 H -3.251620 4.856988 1.307679 0
M  V30 45 H -1.771101 4.500904 -1.873901 0
M  V30 46 H -3.195945 4.931769 -0.912127 0
M  V30 47 H -2.996172 3.224150 -1.375793 0
M  V30 48 H -1.894798 -1.889687 -0.993791 0
M  V30 49 H -3.000767 -3.967803 -1.556852 0
M  V30 50 H -0.338557 -8.117792 -2.427426 0
M  V30 51 H 1.891626 -3.807606 -1.268843 0
M  V30 END ATOM
M  V30 BEGIN BOND
M  V30 1 1 1 2
M  V30 2 2 2 3
M  V30 3 1 3 4
M  V30 4 2 4 5
M  V30 5 1 5 6
M  V30 6 1 6 7
M  V30 7 1 7 8
M  V30 8 1 8 9
M  V30 9 1 9 10
M  V30 10 1 10 11
M  V30 11 1 11 12
M  V30 12 2 12 13
M  V30 13 1 13 14
M  V30 14 2 14 15
M  V30 15 1 15 16
M  V30 16 2 16 17
M  V30 17 1 17 18
M  V30 18 2 9 19
M  V30 19 1 19 20
M  V30 20 1 20 21
M  V30 21 1 21 22
M  V30 22 2 22 23
M  V30 23 1 23 24
M  V30 24 2 24 25
M  V30 25 1 25 26
M  V30 26 2 26 27
M  V30 27 1 27 28
M  V30 28 1 28 29
M  V30 29 2 6 30
M  V30 30 1 30 2
M  V30 31 2 20 7
M  V30 32 2 29 21
M  V30 33 1 17 12
M  V30 34 1 28 24
M  V30 35 1 1 31
M  V30 36 1 1 32
M  V30 37 1 1 33
M  V30 38 1 3 34
M  V30 39 1 4 35
M  V30 40 1 5 36
M  V30 41 1 8 37
M  V30 42 1 10 38
M  V30 43 1 10 39
M  V30 44 1 11 40
M  V30 45 1 13 41
M  V30 46 1 14 42
M  V30 47 1 15 43
M  V30 48 1 16 44
M  V30 49 1 18 45
M  V30 50 1 18 46
M  V30 51 1 18 47
M  V30 52 1 22 48
M  V30 53 1 23 49
M  V30 54 1 26 50
M  V30 55 1 29 51
M  V30 END BOND
M  V30 END CTAB
M  END
>  <Dataset>  (856) 
ChEMBL_Kinases

>  <Ligand_Instance>  (856) 
nan

>  <PDB_ID>  (856) 
nan

>  <Standardized_SMILES>  (856) 
Cc1cccc(-c2[nH]c(CNc3ccccc3C)nc2-c2ccc3ncnn3c2)n1

>  <Name>  (856) 
nan

>  <Pocket>  (856) 
nan

>  <ATP_Site>  (856) 
nan

>  <Peripheral>  (856) 
nan

>  <Num_H_Atoms_ProtBoundConf>  (856) 
nan

>  <Num_Resolved_Atoms>  (856) 
nan

>  <Num_Not_Resolved_Atoms>  (856) 
nan

$$$$
CHEMBL3260571
     RDKit          3D

  0  0  0  0  0  0  0  0  0  0999 V3000
M  V30 BEGIN CTAB
M  V30 COUNTS 54 58 0 0 0
M  V30 BEGIN ATOM
M  V30 1 C 4.488365 -2.802578 1.243578 0
M  V30 2 C 5.438350 -1.634971 1.396355 0
M  V30 3 C 4.649511 -0.535973 2.026067 0
M  V30 4 C 4.848164 -0.271834 3.358151 0
M  V30 5 C 4.158444 0.720357 3.995053 0
M  V30 6 C 3.255081 1.449565 3.257169 0
M  V30 7 C 3.085443 1.154799 1.928357 0
M  V30 8 C 3.756769 0.164329 1.241257 0
M  V30 9 N 3.538935 -0.077313 -0.134282 0
M  V30 10 C 2.651019 0.554318 -1.057871 0
M  V30 11 C 1.209818 0.335908 -0.763398 0
M  V30 12 N 0.231959 0.944523 -0.069006 0
M  V30 13 C -0.925954 0.272882 -0.151794 0
M  V30 14 C -2.176507 0.663122 0.484712 0
M  V30 15 C -2.448887 0.812677 1.829185 0
M  V30 16 C -3.710899 1.192857 2.237368 0
M  V30 17 C -4.699963 1.422265 1.282092 0
M  V30 18 N -5.999322 1.798485 1.417270 0
M  V30 19 C -6.523945 1.881285 0.185843 0
M  V30 20 N -5.560931 1.560393 -0.697363 0
M  V30 21 N -4.430947 1.275443 -0.029906 0
M  V30 22 C -3.201690 0.904710 -0.435746 0
M  V30 23 C -0.717648 -0.838624 -0.937961 0
M  V30 24 C -1.702903 -1.849139 -1.294412 0
M  V30 25 C -2.065574 -2.104807 -2.600024 0
M  V30 26 C -3.022896 -3.103356 -2.761205 0
M  V30 27 C -3.562976 -3.782974 -1.673692 0
M  V30 28 C -3.154624 -3.477383 -0.384268 0
M  V30 29 C -3.709048 -4.181397 0.798169 0
M  V30 30 N -2.228915 -2.511914 -0.226334 0
M  V30 31 N 0.575872 -0.757450 -1.280440 0
M  V30 32 H 4.671746 -3.399292 0.331782 0
M  V30 33 H 4.525929 -3.473300 2.143286 0
M  V30 34 H 3.431393 -2.442182 1.196340 0
M  V30 35 H 6.246783 -1.987731 2.097181 0
M  V30 36 H 5.882585 -1.283373 0.461929 0
M  V30 37 H 5.565832 -0.865904 3.902835 0
M  V30 38 H 4.344443 0.895216 5.043024 0
M  V30 39 H 2.724613 2.226546 3.785746 0
M  V30 40 H 2.362023 1.791819 1.455706 0
M  V30 41 H 4.143208 -0.854717 -0.508684 0
M  V30 42 H 2.829747 1.669497 -1.113814 0
M  V30 43 H 2.858150 0.207329 -2.087380 0
M  V30 44 H -1.602621 0.606858 2.468363 0
M  V30 45 H -3.879803 1.297927 3.301268 0
M  V30 46 H -7.525418 2.148858 -0.127836 0
M  V30 47 H -3.080087 0.811741 -1.520692 0
M  V30 48 H -1.604601 -1.540298 -3.374589 0
M  V30 49 H -3.324485 -3.322135 -3.776941 0
M  V30 50 H -4.307970 -4.555842 -1.843137 0
M  V30 51 H -2.978905 -4.975358 1.096435 0
M  V30 52 H -4.662761 -4.676891 0.557239 0
M  V30 53 H -3.754879 -3.464762 1.635150 0
M  V30 54 H 0.981935 -1.515664 -1.897439 0
M  V30 END ATOM
M  V30 BEGIN BOND
M  V30 1 1 1 2
M  V30 2 1 2 3
M  V30 3 2 3 4
M  V30 4 1 4 5
M  V30 5 2 5 6
M  V30 6 1 6 7
M  V30 7 2 7 8
M  V30 8 1 8 9
M  V30 9 1 9 10
M  V30 10 1 10 11
M  V30 11 2 11 12
M  V30 12 1 12 13
M  V30 13 1 13 14
M  V30 14 1 14 15
M  V30 15 2 15 16
M  V30 16 1 16 17
M  V30 17 2 17 18
M  V30 18 1 18 19
M  V30 19 2 19 20
M  V30 20 1 20 21
M  V30 21 1 21 22
M  V30 22 2 13 23
M  V30 23 1 23 24
M  V30 24 2 24 25
M  V30 25 1 25 26
M  V30 26 2 26 27
M  V30 27 1 27 28
M  V30 28 1 28 29
M  V30 29 2 28 30
M  V30 30 1 23 31
M  V30 31 1 8 3
M  V30 32 1 31 11
M  V30 33 2 22 14
M  V30 34 1 30 24
M  V30 35 1 21 17
M  V30 36 1 1 32
M  V30 37 1 1 33
M  V30 38 1 1 34
M  V30 39 1 2 35
M  V30 40 1 2 36
M  V30 41 1 4 37
M  V30 42 1 5 38
M  V30 43 1 6 39
M  V30 44 1 7 40
M  V30 45 1 9 41
M  V30 46 1 10 42
M  V30 47 1 10 43
M  V30 48 1 15 44
M  V30 49 1 16 45
M  V30 50 1 19 46
M  V30 51 1 22 47
M  V30 52 1 25 48
M  V30 53 1 26 49
M  V30 54 1 27 50
M  V30 55 1 29 51
M  V30 56 1 29 52
M  V30 57 1 29 53
M  V30 58 1 31 54
M  V30 END BOND
M  V30 END CTAB
M  END
>  <Dataset>  (857) 
ChEMBL_Kinases

>  <Ligand_Instance>  (857) 
nan

>  <PDB_ID>  (857) 
nan

>  <Standardized_SMILES>  (857) 
CCc1ccccc1NCc1nc(-c2ccc3ncnn3c2)c(-c2cccc(C)n2)[nH]1

>  <Name>  (857) 
nan

>  <Pocket>  (857) 
nan

>  <ATP_Site>  (857) 
nan

>  <Peripheral>  (857) 
nan

>  <Num_H_Atoms_ProtBoundConf>  (857) 
nan

>  <Num_Resolved_Atoms>  (857) 
nan

>  <Num_Not_Resolved_Atoms>  (857) 
nan

$$$$
CHEMBL3260572
     RDKit          3D

  0  0  0  0  0  0  0  0  0  0999 V3000
M  V30 BEGIN CTAB
M  V30 COUNTS 57 61 0 0 0
M  V30 BEGIN ATOM
M  V30 1 C 3.653919 -4.034337 -1.467591 0
M  V30 2 C 3.649794 -3.217526 -0.225173 0
M  V30 3 C 4.639557 -3.460529 0.702193 0
M  V30 4 C 4.701589 -2.741936 1.881205 0
M  V30 5 C 3.755085 -1.755166 2.146709 0
M  V30 6 C 2.775334 -1.539573 1.190690 0
M  V30 7 C 1.701198 -0.555376 1.284456 0
M  V30 8 N 1.445071 0.509434 0.505194 0
M  V30 9 C 0.360461 1.217614 0.875276 0
M  V30 10 C -0.028687 2.426380 0.097576 0
M  V30 11 N -0.910293 2.131749 -1.012238 0
M  V30 12 C -2.246341 1.649869 -1.042359 0
M  V30 13 C -2.916444 1.400941 0.136386 0
M  V30 14 C -4.213261 0.938638 0.220332 0
M  V30 15 C -4.912989 0.700332 -0.959470 0
M  V30 16 C -4.240630 0.950402 -2.135392 0
M  V30 17 C -2.945661 1.412101 -2.227025 0
M  V30 18 C -2.324325 1.650300 -3.526570 0
M  V30 19 C -1.544184 0.484287 -4.062366 0
M  V30 20 C -3.470777 1.898328 -4.521641 0
M  V30 21 N -0.071465 0.547046 1.942400 0
M  V30 22 C 0.693960 -0.516348 2.225519 0
M  V30 23 C 0.466686 -1.434599 3.334453 0
M  V30 24 C 0.458274 -1.105219 4.673280 0
M  V30 25 C 0.233290 -2.054670 5.649335 0
M  V30 26 C 0.005163 -3.390232 5.309788 0
M  V30 27 N -0.235833 -4.501185 6.022232 0
M  V30 28 C -0.372047 -5.498414 5.106637 0
M  V30 29 N -0.214173 -4.990201 3.856370 0
M  V30 30 N 0.018009 -3.689826 3.990843 0
M  V30 31 C 0.237316 -2.774097 3.004442 0
M  V30 32 N 2.727797 -2.258104 0.030666 0
M  V30 33 H 2.692355 -3.899089 -2.032248 0
M  V30 34 H 4.445793 -3.564002 -2.115027 0
M  V30 35 H 3.931926 -5.081168 -1.312481 0
M  V30 36 H 5.420905 -4.197137 0.602073 0
M  V30 37 H 5.446095 -2.864384 2.670757 0
M  V30 38 H 3.696657 -1.126942 3.029658 0
M  V30 39 H 2.105424 0.688047 -0.308917 0
M  V30 40 H -0.526169 3.097814 0.840346 0
M  V30 41 H 0.867707 2.928687 -0.273664 0
M  V30 42 H -0.500737 2.296351 -1.983048 0
M  V30 43 H -2.496725 1.548838 1.121156 0
M  V30 44 H -4.751977 0.738869 1.124435 0
M  V30 45 H -5.931748 0.337850 -0.972853 0
M  V30 46 H -4.766814 0.771654 -3.064887 0
M  V30 47 H -1.693314 2.551438 -3.576371 0
M  V30 48 H -1.227827 0.688310 -5.105490 0
M  V30 49 H -2.250209 -0.379362 -4.131008 0
M  V30 50 H -0.726885 0.155611 -3.397019 0
M  V30 51 H -3.807283 0.904731 -4.855899 0
M  V30 52 H -3.029552 2.395385 -5.409000 0
M  V30 53 H -4.238573 2.545671 -4.097778 0
M  V30 54 H 0.639538 -0.054162 4.904532 0
M  V30 55 H 0.233214 -1.762314 6.693840 0
M  V30 56 H -0.576553 -6.538409 5.364276 0
M  V30 57 H 0.231372 -3.096125 1.969551 0
M  V30 END ATOM
M  V30 BEGIN BOND
M  V30 1 1 1 2
M  V30 2 2 2 3
M  V30 3 1 3 4
M  V30 4 2 4 5
M  V30 5 1 5 6
M  V30 6 1 6 7
M  V30 7 1 7 8
M  V30 8 1 8 9
M  V30 9 1 9 10
M  V30 10 1 10 11
M  V30 11 1 11 12
M  V30 12 2 12 13
M  V30 13 1 13 14
M  V30 14 2 14 15
M  V30 15 1 15 16
M  V30 16 2 16 17
M  V30 17 1 17 18
M  V30 18 1 18 19
M  V30 19 1 18 20
M  V30 20 2 9 21
M  V30 21 1 21 22
M  V30 22 1 22 23
M  V30 23 1 23 24
M  V30 24 2 24 25
M  V30 25 1 25 26
M  V30 26 2 26 27
M  V30 27 1 27 28
M  V30 28 2 28 29
M  V30 29 1 29 30
M  V30 30 1 30 31
M  V30 31 2 6 32
M  V30 32 1 32 2
M  V30 33 2 22 7
M  V30 34 2 31 23
M  V30 35 1 17 12
M  V30 36 1 30 26
M  V30 37 1 1 33
M  V30 38 1 1 34
M  V30 39 1 1 35
M  V30 40 1 3 36
M  V30 41 1 4 37
M  V30 42 1 5 38
M  V30 43 1 8 39
M  V30 44 1 10 40
M  V30 45 1 10 41
M  V30 46 1 11 42
M  V30 47 1 13 43
M  V30 48 1 14 44
M  V30 49 1 15 45
M  V30 50 1 16 46
M  V30 51 1 18 47
M  V30 52 1 19 48
M  V30 53 1 19 49
M  V30 54 1 19 50
M  V30 55 1 20 51
M  V30 56 1 20 52
M  V30 57 1 20 53
M  V30 58 1 24 54
M  V30 59 1 25 55
M  V30 60 1 28 56
M  V30 61 1 31 57
M  V30 END BOND
M  V30 END CTAB
M  END
>  <Dataset>  (858) 
ChEMBL_Kinases

>  <Ligand_Instance>  (858) 
nan

>  <PDB_ID>  (858) 
nan

>  <Standardized_SMILES>  (858) 
Cc1cccc(-c2[nH]c(CNc3ccccc3C(C)C)nc2-c2ccc3ncnn3c2)n1

>  <Name>  (858) 
nan

>  <Pocket>  (858) 
nan

>  <ATP_Site>  (858) 
nan

>  <Peripheral>  (858) 
nan

>  <Num_H_Atoms_ProtBoundConf>  (858) 
nan

>  <Num_Resolved_Atoms>  (858) 
nan

>  <Num_Not_Resolved_Atoms>  (858) 
nan

$$$$
CHEMBL3260573
     RDKit          3D

  0  0  0  0  0  0  0  0  0  0999 V3000
M  V30 BEGIN CTAB
M  V30 COUNTS 52 56 0 0 0
M  V30 BEGIN ATOM
M  V30 1 C 2.895256 -2.867038 5.140605 0
M  V30 2 O 3.049234 -2.181695 3.931703 0
M  V30 3 C 4.236609 -1.680357 3.426806 0
M  V30 4 C 5.458248 -1.769413 4.022986 0
M  V30 5 C 6.588349 -1.234492 3.436143 0
M  V30 6 C 6.516650 -0.588243 2.219276 0
M  V30 7 C 5.261353 -0.497977 1.608900 0
M  V30 8 C 4.126799 -1.039491 2.206271 0
M  V30 9 N 2.913494 -0.877063 1.478600 0
M  V30 10 C 2.702703 -0.225584 0.201630 0
M  V30 11 C 1.269056 -0.263784 -0.197510 0
M  V30 12 N 0.422910 0.728332 0.138079 0
M  V30 13 C -0.822071 0.491233 -0.320403 0
M  V30 14 C -1.957417 1.378756 -0.119906 0
M  V30 15 C -2.356671 1.550933 1.210884 0
M  V30 16 C -3.425606 2.378077 1.513855 0
M  V30 17 C -4.141191 3.064449 0.538334 0
M  V30 18 N -5.186590 3.907498 0.531028 0
M  V30 19 C -5.405551 4.230122 -0.770952 0
M  V30 20 N -4.500475 3.587069 -1.537189 0
M  V30 21 N -3.717705 2.864839 -0.720720 0
M  V30 22 C -2.687953 2.073022 -1.058998 0
M  V30 23 C -0.694492 -0.719506 -0.966131 0
M  V30 24 C -1.785962 -1.415359 -1.639191 0
M  V30 25 C -2.527540 -1.112882 -2.745532 0
M  V30 26 C -3.519892 -1.978311 -3.153833 0
M  V30 27 C -3.791276 -3.146401 -2.479613 0
M  V30 28 C -3.028834 -3.430171 -1.365165 0
M  V30 29 C -3.337496 -4.699175 -0.646792 0
M  V30 30 N -2.077171 -2.581921 -0.988915 0
M  V30 31 N 0.565410 -1.173294 -0.891575 0
M  V30 32 H 3.326301 -3.879989 4.987951 0
M  V30 33 H 1.790137 -2.956481 5.303415 0
M  V30 34 H 3.341387 -2.345969 6.012970 0
M  V30 35 H 5.433332 -2.293294 4.980697 0
M  V30 36 H 7.479209 -1.393006 4.044696 0
M  V30 37 H 7.435239 -0.205444 1.838177 0
M  V30 38 H 5.313135 0.029476 0.654652 0
M  V30 39 H 2.073593 -1.294104 1.952104 0
M  V30 40 H 3.104217 0.808878 0.181207 0
M  V30 41 H 3.335734 -0.788077 -0.540287 0
M  V30 42 H -1.917105 1.097367 2.096495 0
M  V30 43 H -3.786588 2.554138 2.539018 0
M  V30 44 H -6.122662 4.867224 -1.300141 0
M  V30 45 H -2.363181 1.928246 -2.071594 0
M  V30 46 H -2.216613 -0.175875 -3.183989 0
M  V30 47 H -4.050369 -1.649122 -4.040206 0
M  V30 48 H -4.594886 -3.783055 -2.865500 0
M  V30 49 H -3.802140 -5.447489 -1.328304 0
M  V30 50 H -2.427503 -5.183525 -0.232781 0
M  V30 51 H -4.006704 -4.506940 0.229404 0
M  V30 52 H 0.977631 -2.051677 -1.276973 0
M  V30 END ATOM
M  V30 BEGIN BOND
M  V30 1 1 1 2
M  V30 2 1 2 3
M  V30 3 2 3 4
M  V30 4 1 4 5
M  V30 5 2 5 6
M  V30 6 1 6 7
M  V30 7 2 7 8
M  V30 8 1 8 9
M  V30 9 1 9 10
M  V30 10 1 10 11
M  V30 11 2 11 12
M  V30 12 1 12 13
M  V30 13 1 13 14
M  V30 14 1 14 15
M  V30 15 2 15 16
M  V30 16 1 16 17
M  V30 17 2 17 18
M  V30 18 1 18 19
M  V30 19 2 19 20
M  V30 20 1 20 21
M  V30 21 1 21 22
M  V30 22 2 13 23
M  V30 23 1 23 24
M  V30 24 2 24 25
M  V30 25 1 25 26
M  V30 26 2 26 27
M  V30 27 1 27 28
M  V30 28 1 28 29
M  V30 29 2 28 30
M  V30 30 1 23 31
M  V30 31 1 8 3
M  V30 32 1 31 11
M  V30 33 2 22 14
M  V30 34 1 30 24
M  V30 35 1 21 17
M  V30 36 1 1 32
M  V30 37 1 1 33
M  V30 38 1 1 34
M  V30 39 1 4 35
M  V30 40 1 5 36
M  V30 41 1 6 37
M  V30 42 1 7 38
M  V30 43 1 9 39
M  V30 44 1 10 40
M  V30 45 1 10 41
M  V30 46 1 15 42
M  V30 47 1 16 43
M  V30 48 1 19 44
M  V30 49 1 22 45
M  V30 50 1 25 46
M  V30 51 1 26 47
M  V30 52 1 27 48
M  V30 53 1 29 49
M  V30 54 1 29 50
M  V30 55 1 29 51
M  V30 56 1 31 52
M  V30 END BOND
M  V30 END CTAB
M  END
>  <Dataset>  (859) 
ChEMBL_Kinases

>  <Ligand_Instance>  (859) 
nan

>  <PDB_ID>  (859) 
nan

>  <Standardized_SMILES>  (859) 
COc1ccccc1NCc1nc(-c2ccc3ncnn3c2)c(-c2cccc(C)n2)[nH]1

>  <Name>  (859) 
nan

>  <Pocket>  (859) 
nan

>  <ATP_Site>  (859) 
nan

>  <Peripheral>  (859) 
nan

>  <Num_H_Atoms_ProtBoundConf>  (859) 
nan

>  <Num_Resolved_Atoms>  (859) 
nan

>  <Num_Not_Resolved_Atoms>  (859) 
nan

$$$$
CHEMBL3260574
     RDKit          3D

  0  0  0  0  0  0  0  0  0  0999 V3000
M  V30 BEGIN CTAB
M  V30 COUNTS 52 56 0 0 0
M  V30 BEGIN ATOM
M  V30 1 C 3.465310 -5.220676 2.733385 0
M  V30 2 C 2.361216 -4.241754 2.957568 0
M  V30 3 C 1.569772 -4.292185 4.095285 0
M  V30 4 C 0.541429 -3.407457 4.339133 0
M  V30 5 C 0.265030 -2.420387 3.431380 0
M  V30 6 C 1.062569 -2.384662 2.304469 0
M  V30 7 C 0.948473 -1.422511 1.208928 0
M  V30 8 N 1.109377 -0.102825 1.427850 0
M  V30 9 C 0.933450 0.456338 0.196998 0
M  V30 10 C 1.009784 1.908741 -0.106552 0
M  V30 11 N -0.358700 2.420453 0.068256 0
M  V30 12 C -0.653121 3.806862 -0.147202 0
M  V30 13 C 0.391684 4.646195 -0.524010 0
M  V30 14 C 0.217381 5.994753 -0.755837 0
M  V30 15 C -1.061715 6.487913 -0.595593 0
M  V30 16 C -2.107898 5.693194 -0.227338 0
M  V30 17 C -1.931873 4.334062 0.006231 0
M  V30 18 O -2.906983 3.433340 0.381058 0
M  V30 19 C -4.226962 3.912707 0.552133 0
M  V30 20 F -4.691288 4.452902 -0.615936 0
M  V30 21 F -4.291465 4.902022 1.535147 0
M  V30 22 F -5.073394 2.908419 1.004479 0
M  V30 23 N 0.679889 -0.496767 -0.705861 0
M  V30 24 C 0.680360 -1.718669 -0.097966 0
M  V30 25 C 0.450579 -3.031825 -0.690460 0
M  V30 26 C 1.203285 -3.649948 -1.682628 0
M  V30 27 C 0.843443 -4.904131 -2.132391 0
M  V30 28 C -0.241474 -5.576598 -1.634758 0
M  V30 29 N -0.789965 -6.775313 -1.895461 0
M  V30 30 C -1.875139 -6.913198 -1.078914 0
M  V30 31 N -1.977858 -5.799440 -0.329420 0
M  V30 32 N -0.992505 -4.989685 -0.662575 0
M  V30 33 C -0.639711 -3.773266 -0.229483 0
M  V30 34 N 2.070089 -3.264209 2.082097 0
M  V30 35 H 4.463075 -4.793730 3.020211 0
M  V30 36 H 3.295372 -6.113325 3.371711 0
M  V30 37 H 3.488167 -5.555340 1.669314 0
M  V30 38 H 1.789044 -5.073140 4.812923 0
M  V30 39 H -0.082596 -3.438521 5.224761 0
M  V30 40 H -0.518527 -1.654408 3.498034 0
M  V30 41 H 1.319223 0.395417 2.319785 0
M  V30 42 H 1.721691 2.399538 0.585921 0
M  V30 43 H 1.343359 2.104663 -1.145658 0
M  V30 44 H -1.181988 1.811449 0.355386 0
M  V30 45 H 1.415828 4.286680 -0.659356 0
M  V30 46 H 1.016908 6.662525 -1.049278 0
M  V30 47 H -1.213044 7.540208 -0.773371 0
M  V30 48 H -3.123693 6.045046 -0.091923 0
M  V30 49 H 2.046311 -3.070401 -2.035276 0
M  V30 50 H 1.460326 -5.359212 -2.915028 0
M  V30 51 H -2.599255 -7.718203 -0.959595 0
M  V30 52 H -1.258930 -3.338185 0.543116 0
M  V30 END ATOM
M  V30 BEGIN BOND
M  V30 1 1 1 2
M  V30 2 2 2 3
M  V30 3 1 3 4
M  V30 4 2 4 5
M  V30 5 1 5 6
M  V30 6 1 6 7
M  V30 7 1 7 8
M  V30 8 1 8 9
M  V30 9 1 9 10
M  V30 10 1 10 11
M  V30 11 1 11 12
M  V30 12 2 12 13
M  V30 13 1 13 14
M  V30 14 2 14 15
M  V30 15 1 15 16
M  V30 16 2 16 17
M  V30 17 1 17 18
M  V30 18 1 18 19
M  V30 19 1 19 20
M  V30 20 1 19 21
M  V30 21 1 19 22
M  V30 22 2 9 23
M  V30 23 1 23 24
M  V30 24 1 24 25
M  V30 25 1 25 26
M  V30 26 2 26 27
M  V30 27 1 27 28
M  V30 28 2 28 29
M  V30 29 1 29 30
M  V30 30 2 30 31
M  V30 31 1 31 32
M  V30 32 1 32 33
M  V30 33 2 6 34
M  V30 34 1 34 2
M  V30 35 2 24 7
M  V30 36 2 33 25
M  V30 37 1 17 12
M  V30 38 1 32 28
M  V30 39 1 1 35
M  V30 40 1 1 36
M  V30 41 1 1 37
M  V30 42 1 3 38
M  V30 43 1 4 39
M  V30 44 1 5 40
M  V30 45 1 8 41
M  V30 46 1 10 42
M  V30 47 1 10 43
M  V30 48 1 11 44
M  V30 49 1 13 45
M  V30 50 1 14 46
M  V30 51 1 15 47
M  V30 52 1 16 48
M  V30 53 1 26 49
M  V30 54 1 27 50
M  V30 55 1 30 51
M  V30 56 1 33 52
M  V30 END BOND
M  V30 END CTAB
M  END
>  <Dataset>  (860) 
ChEMBL_Kinases

>  <Ligand_Instance>  (860) 
nan

>  <PDB_ID>  (860) 
nan

>  <Standardized_SMILES>  (860) 
Cc1cccc(-c2[nH]c(CNc3ccccc3OC(F)(F)F)nc2-c2ccc3ncnn3c2)n1

>  <Name>  (860) 
nan

>  <Pocket>  (860) 
nan

>  <ATP_Site>  (860) 
nan

>  <Peripheral>  (860) 
nan

>  <Num_H_Atoms_ProtBoundConf>  (860) 
nan

>  <Num_Resolved_Atoms>  (860) 
nan

>  <Num_Not_Resolved_Atoms>  (860) 
nan

$$$$
CHEMBL3260620
     RDKit          3D

  0  0  0  0  0  0  0  0  0  0999 V3000
M  V30 BEGIN CTAB
M  V30 COUNTS 48 52 0 0 0
M  V30 BEGIN ATOM
M  V30 1 C -0.720732 -2.209820 4.800925 0
M  V30 2 C 0.200687 -2.415726 3.663022 0
M  V30 3 C 1.214558 -3.334232 3.807998 0
M  V30 4 C 2.109492 -3.568914 2.771715 0
M  V30 5 C 2.010411 -2.894944 1.576764 0
M  V30 6 C 0.979295 -1.976881 1.461808 0
M  V30 7 C 0.668881 -1.153186 0.316636 0
M  V30 8 N 1.465921 -0.234696 -0.254819 0
M  V30 9 C 0.892429 0.368211 -1.307393 0
M  V30 10 C 1.174797 1.397075 -2.311889 0
M  V30 11 N 0.728889 2.729187 -1.961762 0
M  V30 12 C 1.141322 3.604030 -0.944532 0
M  V30 13 C 0.563361 4.857564 -0.752592 0
M  V30 14 C 0.982204 5.710054 0.239349 0
M  V30 15 C 2.000394 5.371203 1.102022 0
M  V30 16 Cl 2.470521 6.514796 2.335119 0
M  V30 17 C 2.612413 4.144400 0.963366 0
M  V30 18 Cl 3.903043 3.688668 2.039665 0
M  V30 19 C 2.152151 3.330054 -0.048267 0
M  V30 20 N -0.342857 -0.211265 -1.399799 0
M  V30 21 C -0.490897 -1.128084 -0.429381 0
M  V30 22 C -1.655068 -1.984141 -0.160002 0
M  V30 23 C -2.939859 -1.613522 0.177757 0
M  V30 24 C -3.870163 -2.626203 0.381712 0
M  V30 25 C -3.488265 -3.949072 0.242889 0
M  V30 26 N -4.245398 -5.062543 0.399529 0
M  V30 27 C -3.435736 -6.116495 0.160702 0
M  V30 28 N -2.210899 -5.645854 -0.134998 0
M  V30 29 N -2.242164 -4.307308 -0.084580 0
M  V30 30 C -1.335846 -3.341655 -0.283978 0
M  V30 31 N 0.117377 -1.768586 2.495776 0
M  V30 32 H -1.774163 -2.075779 4.486837 0
M  V30 33 H -0.709130 -3.074952 5.476497 0
M  V30 34 H -0.429249 -1.330237 5.427787 0
M  V30 35 H 1.312646 -3.877340 4.740213 0
M  V30 36 H 2.915462 -4.276868 2.842011 0
M  V30 37 H 2.635341 -2.985538 0.705502 0
M  V30 38 H 2.433313 0.054534 -0.000222 0
M  V30 39 H 2.286848 1.504086 -2.440357 0
M  V30 40 H 0.811529 1.124315 -3.324651 0
M  V30 41 H -0.040504 3.111801 -2.574492 0
M  V30 42 H -0.251318 5.148377 -1.430062 0
M  V30 43 H 0.452156 6.666568 0.290979 0
M  V30 44 H 2.676436 2.388882 -0.106017 0
M  V30 45 H -3.071177 -0.544233 0.244842 0
M  V30 46 H -4.856602 -2.278681 0.643290 0
M  V30 47 H -3.716462 -7.165555 0.198387 0
M  V30 48 H -0.341365 -3.728707 -0.548582 0
M  V30 END ATOM
M  V30 BEGIN BOND
M  V30 1 1 1 2
M  V30 2 2 2 3
M  V30 3 1 3 4
M  V30 4 2 4 5
M  V30 5 1 5 6
M  V30 6 1 6 7
M  V30 7 1 7 8
M  V30 8 1 8 9
M  V30 9 1 9 10
M  V30 10 1 10 11
M  V30 11 1 11 12
M  V30 12 2 12 13
M  V30 13 1 13 14
M  V30 14 2 14 15
M  V30 15 1 15 16
M  V30 16 1 15 17
M  V30 17 1 17 18
M  V30 18 2 17 19
M  V30 19 2 9 20
M  V30 20 1 20 21
M  V30 21 1 21 22
M  V30 22 1 22 23
M  V30 23 2 23 24
M  V30 24 1 24 25
M  V30 25 2 25 26
M  V30 26 1 26 27
M  V30 27 2 27 28
M  V30 28 1 28 29
M  V30 29 1 29 30
M  V30 30 2 6 31
M  V30 31 1 31 2
M  V30 32 2 21 7
M  V30 33 2 30 22
M  V30 34 1 19 12
M  V30 35 1 29 25
M  V30 36 1 1 32
M  V30 37 1 1 33
M  V30 38 1 1 34
M  V30 39 1 3 35
M  V30 40 1 4 36
M  V30 41 1 5 37
M  V30 42 1 8 38
M  V30 43 1 10 39
M  V30 44 1 10 40
M  V30 45 1 11 41
M  V30 46 1 13 42
M  V30 47 1 14 43
M  V30 48 1 19 44
M  V30 49 1 23 45
M  V30 50 1 24 46
M  V30 51 1 27 47
M  V30 52 1 30 48
M  V30 END BOND
M  V30 END CTAB
M  END
>  <Dataset>  (861) 
ChEMBL_Kinases

>  <Ligand_Instance>  (861) 
nan

>  <PDB_ID>  (861) 
nan

>  <Standardized_SMILES>  (861) 
Cc1cccc(-c2[nH]c(CNc3ccc(Cl)c(Cl)c3)nc2-c2ccc3ncnn3c2)n1

>  <Name>  (861) 
nan

>  <Pocket>  (861) 
nan

>  <ATP_Site>  (861) 
nan

>  <Peripheral>  (861) 
nan

>  <Num_H_Atoms_ProtBoundConf>  (861) 
nan

>  <Num_Resolved_Atoms>  (861) 
nan

>  <Num_Not_Resolved_Atoms>  (861) 
nan

$$$$
CHEMBL3260576
     RDKit          3D

  0  0  0  0  0  0  0  0  0  0999 V3000
M  V30 BEGIN CTAB
M  V30 COUNTS 52 56 0 0 0
M  V30 BEGIN ATOM
M  V30 1 C 4.024196 -2.415728 4.988850 0
M  V30 2 C 3.620442 -1.835693 3.886712 0
M  V30 3 C 4.623055 -1.346099 2.958142 0
M  V30 4 C 5.941856 -1.521330 3.293774 0
M  V30 5 C 6.943200 -1.067886 2.434849 0
M  V30 6 C 6.633949 -0.444721 1.250937 0
M  V30 7 C 5.285572 -0.299614 0.972409 0
M  V30 8 C 4.253915 -0.726721 1.780896 0
M  V30 9 N 2.893997 -0.542312 1.429331 0
M  V30 10 C 2.587227 0.127426 0.156738 0
M  V30 11 C 1.106750 0.156144 0.009860 0
M  V30 12 N 0.173866 1.044897 0.410902 0
M  V30 13 C -1.054208 0.620408 0.027676 0
M  V30 14 C -2.334846 1.278187 0.253529 0
M  V30 15 C -2.786455 1.263522 1.560453 0
M  V30 16 C -4.009625 1.890221 1.812998 0
M  V30 17 C -4.732151 2.498572 0.788074 0
M  V30 18 N -5.900710 3.140828 0.817569 0
M  V30 19 C -6.190551 3.552900 -0.420804 0
M  V30 20 N -5.165151 3.141695 -1.197817 0
M  V30 21 N -4.266362 2.496593 -0.475309 0
M  V30 22 C -3.080565 1.890491 -0.727885 0
M  V30 23 C -0.915085 -0.577147 -0.640929 0
M  V30 24 C -1.887749 -1.470289 -1.264290 0
M  V30 25 C -2.710553 -1.239243 -2.345595 0
M  V30 26 C -3.578639 -2.205669 -2.805159 0
M  V30 27 C -3.646058 -3.438480 -2.189470 0
M  V30 28 C -2.817272 -3.655864 -1.109295 0
M  V30 29 C -2.832420 -4.964409 -0.392234 0
M  V30 30 N -1.962753 -2.690913 -0.664212 0
M  V30 31 N 0.419525 -0.832944 -0.634214 0
M  V30 32 H 4.940848 -2.677824 5.488115 0
M  V30 33 H 3.437153 -2.838957 5.791385 0
M  V30 34 H 2.557120 -1.799341 3.816485 0
M  V30 35 H 6.335185 -1.985317 4.177134 0
M  V30 36 H 8.000016 -1.174040 2.638197 0
M  V30 37 H 7.391822 -0.085252 0.570675 0
M  V30 38 H 5.023247 0.195831 0.029959 0
M  V30 39 H 2.133095 -0.875788 2.059128 0
M  V30 40 H 2.968541 1.165681 0.196468 0
M  V30 41 H 3.022581 -0.377221 -0.711080 0
M  V30 42 H -2.298301 0.820898 2.407077 0
M  V30 43 H -4.417857 1.911658 2.821724 0
M  V30 44 H -7.034993 4.096614 -0.795403 0
M  V30 45 H -2.708172 1.893414 -1.742656 0
M  V30 46 H -2.599054 -0.255654 -2.773089 0
M  V30 47 H -4.196330 -1.953591 -3.661234 0
M  V30 48 H -4.334135 -4.211648 -2.550040 0
M  V30 49 H -2.943981 -5.756484 -1.161565 0
M  V30 50 H -1.825968 -5.117319 0.075980 0
M  V30 51 H -3.585336 -5.015017 0.409519 0
M  V30 52 H 0.862462 -1.684007 -1.069573 0
M  V30 END ATOM
M  V30 BEGIN BOND
M  V30 1 2 1 2
M  V30 2 1 2 3
M  V30 3 2 3 4
M  V30 4 1 4 5
M  V30 5 2 5 6
M  V30 6 1 6 7
M  V30 7 2 7 8
M  V30 8 1 8 9
M  V30 9 1 9 10
M  V30 10 1 10 11
M  V30 11 2 11 12
M  V30 12 1 12 13
M  V30 13 1 13 14
M  V30 14 1 14 15
M  V30 15 2 15 16
M  V30 16 1 16 17
M  V30 17 2 17 18
M  V30 18 1 18 19
M  V30 19 2 19 20
M  V30 20 1 20 21
M  V30 21 1 21 22
M  V30 22 2 13 23
M  V30 23 1 23 24
M  V30 24 2 24 25
M  V30 25 1 25 26
M  V30 26 2 26 27
M  V30 27 1 27 28
M  V30 28 1 28 29
M  V30 29 2 28 30
M  V30 30 1 23 31
M  V30 31 1 8 3
M  V30 32 1 31 11
M  V30 33 2 22 14
M  V30 34 1 30 24
M  V30 35 1 21 17
M  V30 36 1 1 32
M  V30 37 1 1 33
M  V30 38 1 2 34
M  V30 39 1 4 35
M  V30 40 1 5 36
M  V30 41 1 6 37
M  V30 42 1 7 38
M  V30 43 1 9 39
M  V30 44 1 10 40
M  V30 45 1 10 41
M  V30 46 1 15 42
M  V30 47 1 16 43
M  V30 48 1 19 44
M  V30 49 1 22 45
M  V30 50 1 25 46
M  V30 51 1 26 47
M  V30 52 1 27 48
M  V30 53 1 29 49
M  V30 54 1 29 50
M  V30 55 1 29 51
M  V30 56 1 31 52
M  V30 END BOND
M  V30 END CTAB
M  END
>  <Dataset>  (862) 
ChEMBL_Kinases

>  <Ligand_Instance>  (862) 
nan

>  <PDB_ID>  (862) 
nan

>  <Standardized_SMILES>  (862) 
C=Cc1ccccc1NCc1nc(-c2ccc3ncnn3c2)c(-c2cccc(C)n2)[nH]1

>  <Name>  (862) 
nan

>  <Pocket>  (862) 
nan

>  <ATP_Site>  (862) 
nan

>  <Peripheral>  (862) 
nan

>  <Num_H_Atoms_ProtBoundConf>  (862) 
nan

>  <Num_Resolved_Atoms>  (862) 
nan

>  <Num_Not_Resolved_Atoms>  (862) 
nan

$$$$
CHEMBL3260577
     RDKit          3D

  0  0  0  0  0  0  0  0  0  0999 V3000
M  V30 BEGIN CTAB
M  V30 COUNTS 49 53 0 0 0
M  V30 BEGIN ATOM
M  V30 1 C -1.789093 -2.033752 4.949642 0
M  V30 2 C -0.404767 -1.986581 4.377678 0
M  V30 3 C 0.734478 -2.307980 5.089083 0
M  V30 4 C 1.935142 -2.210716 4.407291 0
M  V30 5 C 1.943062 -1.808293 3.083360 0
M  V30 6 C 0.780549 -1.492445 2.397203 0
M  V30 7 C 0.941338 -1.084083 1.008112 0
M  V30 8 N 1.645941 -0.004349 0.689885 0
M  V30 9 C 1.680930 0.207424 -0.620284 0
M  V30 10 C 2.212188 1.136214 -1.637822 0
M  V30 11 N 1.222846 2.143212 -1.946643 0
M  V30 12 C 0.636049 3.191562 -1.196595 0
M  V30 13 C 0.972633 3.462430 0.114158 0
M  V30 14 C 0.440546 4.472731 0.885723 0
M  V30 15 C -0.508108 5.277833 0.291462 0
M  V30 16 C -0.860783 5.035582 -1.000107 0
M  V30 17 C -0.330573 4.032666 -1.761508 0
M  V30 18 C -0.736498 3.819234 -3.119603 0
M  V30 19 N -1.051679 3.650841 -4.201218 0
M  V30 20 N 0.945929 -0.813827 -1.153074 0
M  V30 21 C 0.486382 -1.612139 -0.174055 0
M  V30 22 C -0.334802 -2.815040 -0.245536 0
M  V30 23 C -1.593378 -2.784105 0.346070 0
M  V30 24 C -2.455660 -3.881031 0.333576 0
M  V30 25 C -2.001361 -5.026723 -0.303822 0
M  V30 26 N -2.612512 -6.220119 -0.468144 0
M  V30 27 C -1.747674 -6.985095 -1.152570 0
M  V30 28 N -0.642630 -6.263000 -1.392015 0
M  V30 29 N -0.783855 -5.072667 -0.882027 0
M  V30 30 C 0.028689 -4.006482 -0.858140 0
M  V30 31 N -0.366087 -1.598281 3.091013 0
M  V30 32 H -2.354871 -2.695598 4.230545 0
M  V30 33 H -1.742303 -2.471955 5.952996 0
M  V30 34 H -2.240850 -1.024485 5.000697 0
M  V30 35 H 0.606556 -2.613306 6.129850 0
M  V30 36 H 2.824152 -2.461651 4.963891 0
M  V30 37 H 2.907152 -1.745587 2.586840 0
M  V30 38 H 2.148959 0.656473 1.285676 0
M  V30 39 H 3.080811 1.659462 -1.140140 0
M  V30 40 H 2.629428 0.657891 -2.521393 0
M  V30 41 H 0.874166 2.065031 -2.946240 0
M  V30 42 H 1.713782 2.867798 0.626302 0
M  V30 43 H 0.734445 4.646840 1.908365 0
M  V30 44 H -0.970285 6.082390 0.817335 0
M  V30 45 H -1.613349 5.661815 -1.497102 0
M  V30 46 H -2.020216 -1.932016 0.860785 0
M  V30 47 H -3.428474 -3.878612 0.782825 0
M  V30 48 H -1.960296 -7.995436 -1.432154 0
M  V30 49 H 1.016852 -4.009525 -1.314571 0
M  V30 END ATOM
M  V30 BEGIN BOND
M  V30 1 1 1 2
M  V30 2 2 2 3
M  V30 3 1 3 4
M  V30 4 2 4 5
M  V30 5 1 5 6
M  V30 6 1 6 7
M  V30 7 1 7 8
M  V30 8 1 8 9
M  V30 9 1 9 10
M  V30 10 1 10 11
M  V30 11 1 11 12
M  V30 12 2 12 13
M  V30 13 1 13 14
M  V30 14 2 14 15
M  V30 15 1 15 16
M  V30 16 2 16 17
M  V30 17 1 17 18
M  V30 18 3 18 19
M  V30 19 2 9 20
M  V30 20 1 20 21
M  V30 21 1 21 22
M  V30 22 1 22 23
M  V30 23 2 23 24
M  V30 24 1 24 25
M  V30 25 2 25 26
M  V30 26 1 26 27
M  V30 27 2 27 28
M  V30 28 1 28 29
M  V30 29 1 29 30
M  V30 30 2 6 31
M  V30 31 1 31 2
M  V30 32 2 21 7
M  V30 33 2 30 22
M  V30 34 1 17 12
M  V30 35 1 29 25
M  V30 36 1 1 32
M  V30 37 1 1 33
M  V30 38 1 1 34
M  V30 39 1 3 35
M  V30 40 1 4 36
M  V30 41 1 5 37
M  V30 42 1 8 38
M  V30 43 1 10 39
M  V30 44 1 10 40
M  V30 45 1 11 41
M  V30 46 1 13 42
M  V30 47 1 14 43
M  V30 48 1 15 44
M  V30 49 1 16 45
M  V30 50 1 23 46
M  V30 51 1 24 47
M  V30 52 1 27 48
M  V30 53 1 30 49
M  V30 END BOND
M  V30 END CTAB
M  END
>  <Dataset>  (863) 
ChEMBL_Kinases

>  <Ligand_Instance>  (863) 
nan

>  <PDB_ID>  (863) 
nan

>  <Standardized_SMILES>  (863) 
Cc1cccc(-c2[nH]c(CNc3ccccc3C#N)nc2-c2ccc3ncnn3c2)n1

>  <Name>  (863) 
nan

>  <Pocket>  (863) 
nan

>  <ATP_Site>  (863) 
nan

>  <Peripheral>  (863) 
nan

>  <Num_H_Atoms_ProtBoundConf>  (863) 
nan

>  <Num_Resolved_Atoms>  (863) 
nan

>  <Num_Not_Resolved_Atoms>  (863) 
nan

$$$$
CHEMBL3260578
     RDKit          3D

  0  0  0  0  0  0  0  0  0  0999 V3000
M  V30 BEGIN CTAB
M  V30 COUNTS 52 56 0 0 0
M  V30 BEGIN ATOM
M  V30 1 C 5.395587 -1.841468 3.298351 0
M  V30 2 C 3.944345 -2.081754 3.090332 0
M  V30 3 C 3.210625 -2.925582 3.911285 0
M  V30 4 C 1.848058 -3.111234 3.663762 0
M  V30 5 C 1.324970 -2.419847 2.590578 0
M  V30 6 C 2.050158 -1.580612 1.772630 0
M  V30 7 C 1.436800 -0.878079 0.654824 0
M  V30 8 N 1.335336 0.452392 0.520759 0
M  V30 9 C 0.720278 0.816211 -0.613111 0
M  V30 10 C 0.304879 2.058298 -1.304089 0
M  V30 11 N -1.071974 2.357698 -0.981928 0
M  V30 12 C -1.743873 2.746773 0.195921 0
M  V30 13 C -1.006727 2.932693 1.342725 0
M  V30 14 C -1.650970 3.326567 2.496365 0
M  V30 15 C -3.009321 3.540297 2.539729 0
M  V30 16 C -3.729976 3.354579 1.402253 0
M  V30 17 C -3.095799 2.964694 0.257643 0
M  V30 18 C -3.932423 2.786641 -0.914575 0
M  V30 19 N -5.338649 2.999115 -0.905858 0
M  V30 20 O -3.990522 2.487393 -2.106332 0
M  V30 21 N 0.422683 -0.372169 -1.219839 0
M  V30 22 C 0.845572 -1.401455 -0.472445 0
M  V30 23 C 0.694691 -2.810509 -0.813637 0
M  V30 24 C 1.747623 -3.675524 -1.005553 0
M  V30 25 C 1.429053 -4.986887 -1.331693 0
M  V30 26 C 0.112637 -5.383939 -1.452769 0
M  V30 27 N -0.451681 -6.573563 -1.754995 0
M  V30 28 C -1.792208 -6.459082 -1.752189 0
M  V30 29 N -2.024899 -5.167252 -1.439926 0
M  V30 30 N -0.898184 -4.515446 -1.259127 0
M  V30 31 C -0.627593 -3.222385 -0.938426 0
M  V30 32 N 3.372108 -1.433669 2.055111 0
M  V30 33 H 5.951437 -1.781440 2.347077 0
M  V30 34 H 5.813590 -2.718989 3.854214 0
M  V30 35 H 5.573325 -0.968310 3.973218 0
M  V30 36 H 3.689651 -3.435331 4.736026 0
M  V30 37 H 1.260563 -3.765287 4.293018 0
M  V30 38 H 0.267995 -2.573314 2.411455 0
M  V30 39 H 1.679327 1.178224 1.178099 0
M  V30 40 H 0.460186 1.945523 -2.392008 0
M  V30 41 H 0.956935 2.920017 -0.952427 0
M  V30 42 H -1.713216 2.259771 -1.822550 0
M  V30 43 H 0.047397 2.813489 1.460178 0
M  V30 44 H -1.126229 3.489896 3.432377 0
M  V30 45 H -3.509333 3.849393 3.450934 0
M  V30 46 H -4.789071 3.517655 1.419437 0
M  V30 47 H -5.915145 3.858001 -1.094642 0
M  V30 48 H -6.133468 2.323339 -0.701570 0
M  V30 49 H 2.739890 -3.297712 -0.895322 0
M  V30 50 H 2.255865 -5.669680 -1.483519 0
M  V30 51 H -2.510082 -7.251686 -1.960762 0
M  V30 52 H -1.465881 -2.572992 -0.795318 0
M  V30 END ATOM
M  V30 BEGIN BOND
M  V30 1 1 1 2
M  V30 2 2 2 3
M  V30 3 1 3 4
M  V30 4 2 4 5
M  V30 5 1 5 6
M  V30 6 1 6 7
M  V30 7 1 7 8
M  V30 8 1 8 9
M  V30 9 1 9 10
M  V30 10 1 10 11
M  V30 11 1 11 12
M  V30 12 2 12 13
M  V30 13 1 13 14
M  V30 14 2 14 15
M  V30 15 1 15 16
M  V30 16 2 16 17
M  V30 17 1 17 18
M  V30 18 1 18 19
M  V30 19 2 18 20
M  V30 20 2 9 21
M  V30 21 1 21 22
M  V30 22 1 22 23
M  V30 23 1 23 24
M  V30 24 2 24 25
M  V30 25 1 25 26
M  V30 26 2 26 27
M  V30 27 1 27 28
M  V30 28 2 28 29
M  V30 29 1 29 30
M  V30 30 1 30 31
M  V30 31 2 6 32
M  V30 32 1 32 2
M  V30 33 2 22 7
M  V30 34 2 31 23
M  V30 35 1 17 12
M  V30 36 1 30 26
M  V30 37 1 1 33
M  V30 38 1 1 34
M  V30 39 1 1 35
M  V30 40 1 3 36
M  V30 41 1 4 37
M  V30 42 1 5 38
M  V30 43 1 8 39
M  V30 44 1 10 40
M  V30 45 1 10 41
M  V30 46 1 11 42
M  V30 47 1 13 43
M  V30 48 1 14 44
M  V30 49 1 15 45
M  V30 50 1 16 46
M  V30 51 1 19 47
M  V30 52 1 19 48
M  V30 53 1 24 49
M  V30 54 1 25 50
M  V30 55 1 28 51
M  V30 56 1 31 52
M  V30 END BOND
M  V30 END CTAB
M  END
>  <Dataset>  (864) 
ChEMBL_Kinases

>  <Ligand_Instance>  (864) 
nan

>  <PDB_ID>  (864) 
nan

>  <Standardized_SMILES>  (864) 
Cc1cccc(-c2[nH]c(CNc3ccccc3C(N)=O)nc2-c2ccc3ncnn3c2)n1

>  <Name>  (864) 
nan

>  <Pocket>  (864) 
nan

>  <ATP_Site>  (864) 
nan

>  <Peripheral>  (864) 
nan

>  <Num_H_Atoms_ProtBoundConf>  (864) 
nan

>  <Num_Resolved_Atoms>  (864) 
nan

>  <Num_Not_Resolved_Atoms>  (864) 
nan

$$$$
CHEMBL3260579
     RDKit          3D

  0  0  0  0  0  0  0  0  0  0999 V3000
M  V30 BEGIN CTAB
M  V30 COUNTS 56 60 0 0 0
M  V30 BEGIN ATOM
M  V30 1 C 4.896898 -4.440625 2.467622 0
M  V30 2 C 3.821255 -3.418145 2.559652 0
M  V30 3 C 3.440593 -3.054404 3.837479 0
M  V30 4 C 2.447625 -2.110192 4.030076 0
M  V30 5 C 1.831371 -1.525953 2.930932 0
M  V30 6 C 2.244088 -1.920176 1.651547 0
M  V30 7 C 1.613744 -1.323184 0.481356 0
M  V30 8 N 1.660180 -0.011830 0.198962 0
M  V30 9 C 1.000489 0.270013 -0.932540 0
M  V30 10 C 0.642764 1.428624 -1.792458 0
M  V30 11 N -0.677893 1.894206 -1.402898 0
M  V30 12 C -1.194583 2.513329 -0.260763 0
M  V30 13 C -0.357051 2.816408 0.767822 0
M  V30 14 C -0.755514 3.442630 1.939411 0
M  V30 15 C -2.105080 3.782076 2.065842 0
M  V30 16 C -2.938255 3.467870 1.014501 0
M  V30 17 C -2.543583 2.849422 -0.141521 0
M  V30 18 N -3.482301 2.567463 -1.167722 0
M  V30 19 S -5.135886 3.034372 -0.929088 0
M  V30 20 C -5.273150 4.794992 -0.742687 0
M  V30 21 O -5.674583 2.365665 0.326238 0
M  V30 22 O -6.015592 2.629364 -2.077233 0
M  V30 23 N 0.532457 -0.938889 -1.353110 0
M  V30 24 C 0.891306 -1.922422 -0.511556 0
M  V30 25 C 0.594198 -3.347773 -0.598449 0
M  V30 26 C -0.176936 -3.823651 0.451903 0
M  V30 27 C -0.569323 -5.156518 0.555687 0
M  V30 28 C -0.143401 -6.006766 -0.463856 0
M  V30 29 N -0.343504 -7.323215 -0.661888 0
M  V30 30 C 0.285304 -7.677110 -1.810898 0
M  V30 31 N 0.872301 -6.550712 -2.309005 0
M  V30 32 N 0.604051 -5.537788 -1.478980 0
M  V30 33 C 0.978786 -4.250175 -1.572408 0
M  V30 34 N 3.216025 -2.844408 1.486129 0
M  V30 35 H 5.671249 -4.234464 3.247440 0
M  V30 36 H 4.439546 -5.433521 2.665332 0
M  V30 37 H 5.353906 -4.503750 1.461901 0
M  V30 38 H 3.874459 -3.465480 4.747620 0
M  V30 39 H 2.098383 -1.776952 5.015382 0
M  V30 40 H 1.051117 -0.784134 3.044098 0
M  V30 41 H 2.114987 0.771313 0.701136 0
M  V30 42 H 1.392320 2.248103 -1.631264 0
M  V30 43 H 0.707176 1.176639 -2.861582 0
M  V30 44 H -1.377316 1.706234 -2.177136 0
M  V30 45 H 0.702584 2.626870 0.814779 0
M  V30 46 H -0.134865 3.704890 2.783633 0
M  V30 47 H -2.495365 4.272177 2.947546 0
M  V30 48 H -3.975392 3.739999 1.135224 0
M  V30 49 H -3.315630 2.109832 -2.063078 0
M  V30 50 H -4.273731 5.264155 -0.846075 0
M  V30 51 H -5.771565 5.030954 0.217149 0
M  V30 52 H -5.880189 5.238479 -1.579400 0
M  V30 53 H -0.530941 -3.202295 1.265269 0
M  V30 54 H -1.171327 -5.524953 1.376488 0
M  V30 55 H 0.380776 -8.630435 -2.340080 0
M  V30 56 H 1.576526 -3.812024 -2.359638 0
M  V30 END ATOM
M  V30 BEGIN BOND
M  V30 1 1 1 2
M  V30 2 2 2 3
M  V30 3 1 3 4
M  V30 4 2 4 5
M  V30 5 1 5 6
M  V30 6 1 6 7
M  V30 7 1 7 8
M  V30 8 1 8 9
M  V30 9 1 9 10
M  V30 10 1 10 11
M  V30 11 1 11 12
M  V30 12 2 12 13
M  V30 13 1 13 14
M  V30 14 2 14 15
M  V30 15 1 15 16
M  V30 16 2 16 17
M  V30 17 1 17 18
M  V30 18 1 18 19
M  V30 19 1 19 20
M  V30 20 2 19 21
M  V30 21 2 19 22
M  V30 22 2 9 23
M  V30 23 1 23 24
M  V30 24 1 24 25
M  V30 25 1 25 26
M  V30 26 2 26 27
M  V30 27 1 27 28
M  V30 28 2 28 29
M  V30 29 1 29 30
M  V30 30 2 30 31
M  V30 31 1 31 32
M  V30 32 1 32 33
M  V30 33 2 6 34
M  V30 34 1 34 2
M  V30 35 2 24 7
M  V30 36 2 33 25
M  V30 37 1 17 12
M  V30 38 1 32 28
M  V30 39 1 1 35
M  V30 40 1 1 36
M  V30 41 1 1 37
M  V30 42 1 3 38
M  V30 43 1 4 39
M  V30 44 1 5 40
M  V30 45 1 8 41
M  V30 46 1 10 42
M  V30 47 1 10 43
M  V30 48 1 11 44
M  V30 49 1 13 45
M  V30 50 1 14 46
M  V30 51 1 15 47
M  V30 52 1 16 48
M  V30 53 1 18 49
M  V30 54 1 20 50
M  V30 55 1 20 51
M  V30 56 1 20 52
M  V30 57 1 26 53
M  V30 58 1 27 54
M  V30 59 1 30 55
M  V30 60 1 33 56
M  V30 END BOND
M  V30 END CTAB
M  END
>  <Dataset>  (865) 
ChEMBL_Kinases

>  <Ligand_Instance>  (865) 
nan

>  <PDB_ID>  (865) 
nan

>  <Standardized_SMILES>  (865) 
Cc1cccc(-c2[nH]c(CNc3ccccc3NS(C)(=O)=O)nc2-c2ccc3ncnn3c2)n1

>  <Name>  (865) 
nan

>  <Pocket>  (865) 
nan

>  <ATP_Site>  (865) 
nan

>  <Peripheral>  (865) 
nan

>  <Num_H_Atoms_ProtBoundConf>  (865) 
nan

>  <Num_Resolved_Atoms>  (865) 
nan

>  <Num_Not_Resolved_Atoms>  (865) 
nan

$$$$
CHEMBL3260580
     RDKit          3D

  0  0  0  0  0  0  0  0  0  0999 V3000
M  V30 BEGIN CTAB
M  V30 COUNTS 55 59 0 0 0
M  V30 BEGIN ATOM
M  V30 1 C 5.339263 -2.520454 1.896360 0
M  V30 2 C 4.589948 -1.280759 2.273440 0
M  V30 3 O 3.425529 -1.548293 2.680572 0
M  V30 4 N 5.019227 0.070439 2.225389 0
M  V30 5 C 3.925383 0.880757 2.694456 0
M  V30 6 C 3.800556 1.185292 4.029337 0
M  V30 7 C 2.781096 1.946124 4.502525 0
M  V30 8 C 1.869351 2.409047 3.610097 0
M  V30 9 C 2.006540 2.096117 2.274398 0
M  V30 10 C 3.027925 1.324367 1.745097 0
M  V30 11 N 3.145948 1.029914 0.362312 0
M  V30 12 C 2.289216 1.408294 -0.742870 0
M  V30 13 C 0.948408 0.752193 -0.622773 0
M  V30 14 N -0.261075 1.005899 -0.095566 0
M  V30 15 C -1.129597 0.016177 -0.295143 0
M  V30 16 C -2.498089 0.099030 0.199058 0
M  V30 17 C -2.549573 0.168359 1.593258 0
M  V30 18 C -3.770557 0.252555 2.230447 0
M  V30 19 C -4.939731 0.269223 1.511014 0
M  V30 20 N -6.245039 0.341674 1.832812 0
M  V30 21 C -6.955709 0.318290 0.698282 0
M  V30 22 N -6.080229 0.231353 -0.315969 0
M  V30 23 N -4.848075 0.200620 0.168829 0
M  V30 24 C -3.688177 0.117878 -0.495411 0
M  V30 25 C -0.460045 -0.959287 -0.999137 0
M  V30 26 C -1.065074 -2.215655 -1.418829 0
M  V30 27 C -0.553206 -3.406437 -0.923273 0
M  V30 28 C -1.129527 -4.598828 -1.324629 0
M  V30 29 C -2.195007 -4.611412 -2.202183 0
M  V30 30 C -2.630784 -3.377017 -2.637708 0
M  V30 31 C -3.775590 -3.327235 -3.583725 0
M  V30 32 N -2.089203 -2.204907 -2.263754 0
M  V30 33 N 0.769863 -0.486356 -1.174567 0
M  V30 34 H 4.721599 -3.073033 1.163096 0
M  V30 35 H 6.338077 -2.308555 1.498852 0
M  V30 36 H 5.422623 -3.189332 2.799807 0
M  V30 37 H 5.996423 0.176187 1.873682 0
M  V30 38 H 4.573782 0.775586 4.681027 0
M  V30 39 H 2.709623 2.166791 5.547922 0
M  V30 40 H 1.048106 3.019125 3.976426 0
M  V30 41 H 1.240812 2.513917 1.638400 0
M  V30 42 H 3.988407 0.447903 0.127268 0
M  V30 43 H 2.754199 1.121397 -1.684078 0
M  V30 44 H 2.104768 2.511959 -0.719883 0
M  V30 45 H -1.707066 0.162659 2.251350 0
M  V30 46 H -3.859035 0.308610 3.311354 0
M  V30 47 H -8.027032 0.365528 0.711766 0
M  V30 48 H -3.553159 0.062664 -1.558631 0
M  V30 49 H 0.287182 -3.460294 -0.227566 0
M  V30 50 H -0.787126 -5.566961 -0.982320 0
M  V30 51 H -2.679287 -5.513188 -2.545896 0
M  V30 52 H -4.511100 -4.096191 -3.279563 0
M  V30 53 H -4.223614 -2.296997 -3.599272 0
M  V30 54 H -3.423791 -3.575992 -4.613093 0
M  V30 55 H 1.456728 -1.079681 -1.695546 0
M  V30 END ATOM
M  V30 BEGIN BOND
M  V30 1 1 1 2
M  V30 2 2 2 3
M  V30 3 1 2 4
M  V30 4 1 4 5
M  V30 5 2 5 6
M  V30 6 1 6 7
M  V30 7 2 7 8
M  V30 8 1 8 9
M  V30 9 2 9 10
M  V30 10 1 10 11
M  V30 11 1 11 12
M  V30 12 1 12 13
M  V30 13 2 13 14
M  V30 14 1 14 15
M  V30 15 1 15 16
M  V30 16 1 16 17
M  V30 17 2 17 18
M  V30 18 1 18 19
M  V30 19 2 19 20
M  V30 20 1 20 21
M  V30 21 2 21 22
M  V30 22 1 22 23
M  V30 23 1 23 24
M  V30 24 2 15 25
M  V30 25 1 25 26
M  V30 26 2 26 27
M  V30 27 1 27 28
M  V30 28 2 28 29
M  V30 29 1 29 30
M  V30 30 1 30 31
M  V30 31 2 30 32
M  V30 32 1 25 33
M  V30 33 1 10 5
M  V30 34 1 33 13
M  V30 35 2 24 16
M  V30 36 1 32 26
M  V30 37 1 23 19
M  V30 38 1 1 34
M  V30 39 1 1 35
M  V30 40 1 1 36
M  V30 41 1 4 37
M  V30 42 1 6 38
M  V30 43 1 7 39
M  V30 44 1 8 40
M  V30 45 1 9 41
M  V30 46 1 11 42
M  V30 47 1 12 43
M  V30 48 1 12 44
M  V30 49 1 17 45
M  V30 50 1 18 46
M  V30 51 1 21 47
M  V30 52 1 24 48
M  V30 53 1 27 49
M  V30 54 1 28 50
M  V30 55 1 29 51
M  V30 56 1 31 52
M  V30 57 1 31 53
M  V30 58 1 31 54
M  V30 59 1 33 55
M  V30 END BOND
M  V30 END CTAB
M  END
>  <Dataset>  (866) 
ChEMBL_Kinases

>  <Ligand_Instance>  (866) 
nan

>  <PDB_ID>  (866) 
nan

>  <Standardized_SMILES>  (866) 
CC(=O)Nc1ccccc1NCc1nc(-c2ccc3ncnn3c2)c(-c2cccc(C)n2)[nH]1

>  <Name>  (866) 
nan

>  <Pocket>  (866) 
nan

>  <ATP_Site>  (866) 
nan

>  <Peripheral>  (866) 
nan

>  <Num_H_Atoms_ProtBoundConf>  (866) 
nan

>  <Num_Resolved_Atoms>  (866) 
nan

>  <Num_Not_Resolved_Atoms>  (866) 
nan

$$$$
CHEMBL3260581
     RDKit          3D

  0  0  0  0  0  0  0  0  0  0999 V3000
M  V30 BEGIN CTAB
M  V30 COUNTS 48 52 0 0 0
M  V30 BEGIN ATOM
M  V30 1 C 0.208244 -0.466609 5.381192 0
M  V30 2 C 0.478036 -1.407918 4.264642 0
M  V30 3 C 0.710982 -2.749154 4.473022 0
M  V30 4 C 0.971315 -3.702770 3.511757 0
M  V30 5 C 0.986066 -3.187971 2.212522 0
M  V30 6 C 0.757964 -1.855307 1.965535 0
M  V30 7 C 0.758109 -1.236524 0.644422 0
M  V30 8 N 1.609834 -0.257108 0.319728 0
M  V30 9 C 1.435865 0.170015 -0.933891 0
M  V30 10 C 2.008043 1.190530 -1.863867 0
M  V30 11 N 1.221767 2.398800 -1.817328 0
M  V30 12 C 1.029346 3.324090 -0.773011 0
M  V30 13 C 1.592491 3.300072 0.473339 0
M  V30 14 C 1.396008 4.191383 1.485729 0
M  V30 15 C 0.539179 5.236241 1.241324 0
M  V30 16 C -0.067386 5.335833 0.018478 0
M  V30 17 F -0.922185 6.367658 -0.242032 0
M  V30 18 C 0.172089 4.405523 -0.959323 0
M  V30 19 N 0.415836 -0.576258 -1.445291 0
M  V30 20 C 0.005540 -1.426255 -0.492602 0
M  V30 21 C -1.057407 -2.440953 -0.528445 0
M  V30 22 C -2.156531 -2.387393 0.293040 0
M  V30 23 C -3.113887 -3.374843 0.205512 0
M  V30 24 C -3.038233 -4.443872 -0.678522 0
M  V30 25 N -3.775682 -5.519944 -0.991924 0
M  V30 26 C -3.096816 -6.159915 -1.971636 0
M  V30 27 N -1.963753 -5.473610 -2.241745 0
M  V30 28 N -1.942188 -4.424590 -1.441267 0
M  V30 29 C -0.961920 -3.504029 -1.421927 0
M  V30 30 N 0.510786 -0.996331 2.979973 0
M  V30 31 H 0.714287 0.489060 5.082330 0
M  V30 32 H -0.880923 -0.268949 5.443150 0
M  V30 33 H 0.640835 -0.802383 6.336512 0
M  V30 34 H 0.676279 -3.045107 5.529947 0
M  V30 35 H 1.146634 -4.738253 3.721701 0
M  V30 36 H 1.178894 -3.835536 1.367569 0
M  V30 37 H 2.340751 0.168334 0.894835 0
M  V30 38 H 3.022155 1.489076 -1.483508 0
M  V30 39 H 2.078771 0.819044 -2.886152 0
M  V30 40 H 0.711611 2.613072 -2.718940 0
M  V30 41 H 2.277246 2.495693 0.694362 0
M  V30 42 H 1.888103 4.091009 2.444991 0
M  V30 43 H 0.317865 5.991655 1.976308 0
M  V30 44 H -0.340694 4.540172 -1.910984 0
M  V30 45 H -2.255608 -1.568331 0.998986 0
M  V30 46 H -3.995085 -3.330623 0.865978 0
M  V30 47 H -3.388647 -7.086598 -2.485317 0
M  V30 48 H -0.099962 -3.517337 -2.044445 0
M  V30 END ATOM
M  V30 BEGIN BOND
M  V30 1 1 1 2
M  V30 2 2 2 3
M  V30 3 1 3 4
M  V30 4 2 4 5
M  V30 5 1 5 6
M  V30 6 1 6 7
M  V30 7 1 7 8
M  V30 8 1 8 9
M  V30 9 1 9 10
M  V30 10 1 10 11
M  V30 11 1 11 12
M  V30 12 2 12 13
M  V30 13 1 13 14
M  V30 14 2 14 15
M  V30 15 1 15 16
M  V30 16 1 16 17
M  V30 17 2 16 18
M  V30 18 2 9 19
M  V30 19 1 19 20
M  V30 20 1 20 21
M  V30 21 1 21 22
M  V30 22 2 22 23
M  V30 23 1 23 24
M  V30 24 2 24 25
M  V30 25 1 25 26
M  V30 26 2 26 27
M  V30 27 1 27 28
M  V30 28 1 28 29
M  V30 29 2 6 30
M  V30 30 1 30 2
M  V30 31 2 20 7
M  V30 32 2 29 21
M  V30 33 1 18 12
M  V30 34 1 28 24
M  V30 35 1 1 31
M  V30 36 1 1 32
M  V30 37 1 1 33
M  V30 38 1 3 34
M  V30 39 1 4 35
M  V30 40 1 5 36
M  V30 41 1 8 37
M  V30 42 1 10 38
M  V30 43 1 10 39
M  V30 44 1 11 40
M  V30 45 1 13 41
M  V30 46 1 14 42
M  V30 47 1 15 43
M  V30 48 1 18 44
M  V30 49 1 22 45
M  V30 50 1 23 46
M  V30 51 1 26 47
M  V30 52 1 29 48
M  V30 END BOND
M  V30 END CTAB
M  END
>  <Dataset>  (867) 
ChEMBL_Kinases

>  <Ligand_Instance>  (867) 
nan

>  <PDB_ID>  (867) 
nan

>  <Standardized_SMILES>  (867) 
Cc1cccc(-c2[nH]c(CNc3cccc(F)c3)nc2-c2ccc3ncnn3c2)n1

>  <Name>  (867) 
nan

>  <Pocket>  (867) 
nan

>  <ATP_Site>  (867) 
nan

>  <Peripheral>  (867) 
nan

>  <Num_H_Atoms_ProtBoundConf>  (867) 
nan

>  <Num_Resolved_Atoms>  (867) 
nan

>  <Num_Not_Resolved_Atoms>  (867) 
nan

$$$$
CHEMBL3260582
     RDKit          3D

  0  0  0  0  0  0  0  0  0  0999 V3000
M  V30 BEGIN CTAB
M  V30 COUNTS 48 52 0 0 0
M  V30 BEGIN ATOM
M  V30 1 C 0.287965 -0.884420 5.446631 0
M  V30 2 C 0.654418 -1.610421 4.201701 0
M  V30 3 C 1.082299 -2.933467 4.332005 0
M  V30 4 C 1.436311 -3.660224 3.210229 0
M  V30 5 C 1.375740 -3.097483 1.937356 0
M  V30 6 C 0.944554 -1.781784 1.865069 0
M  V30 7 C 0.849227 -1.109990 0.571005 0
M  V30 8 N 1.553616 -0.030354 0.195709 0
M  V30 9 C 1.258426 0.371107 -1.050794 0
M  V30 10 C 1.675101 1.451374 -1.966960 0
M  V30 11 N 0.859825 2.620717 -1.945654 0
M  V30 12 C 0.624169 3.557409 -0.933363 0
M  V30 13 C 1.184611 3.551708 0.326509 0
M  V30 14 C 0.956408 4.463614 1.332750 0
M  V30 15 C 0.086430 5.493378 1.081473 0
M  V30 16 C -0.508431 5.559057 -0.157199 0
M  V30 17 Cl -1.624161 6.872147 -0.493047 0
M  V30 18 C -0.244217 4.628809 -1.112360 0
M  V30 19 N 0.309325 -0.512760 -1.484866 0
M  V30 20 C 0.055548 -1.408459 -0.516320 0
M  V30 21 C -0.862183 -2.551630 -0.460883 0
M  V30 22 C -1.887315 -2.527788 0.480547 0
M  V30 23 C -2.783810 -3.570199 0.585796 0
M  V30 24 C -2.627519 -4.648228 -0.283376 0
M  V30 25 N -3.363140 -5.765643 -0.374062 0
M  V30 26 C -2.809828 -6.503029 -1.371407 0
M  V30 27 N -1.753989 -5.811942 -1.857724 0
M  V30 28 N -1.633544 -4.662032 -1.189918 0
M  V30 29 C -0.745164 -3.652243 -1.309898 0
M  V30 30 N 0.604925 -1.095534 2.977711 0
M  V30 31 H -0.468771 -1.451036 6.028090 0
M  V30 32 H -0.224252 0.055300 5.104610 0
M  V30 33 H 1.162305 -0.554214 6.015905 0
M  V30 34 H 1.160716 -3.453251 5.282296 0
M  V30 35 H 1.770972 -4.698229 3.323080 0
M  V30 36 H 1.652285 -3.666651 1.065956 0
M  V30 37 H 2.251652 0.461409 0.758406 0
M  V30 38 H 1.751897 1.061603 -2.985853 0
M  V30 39 H 2.742036 1.714470 -1.664906 0
M  V30 40 H 0.340346 2.818189 -2.847799 0
M  V30 41 H 1.880839 2.769127 0.579304 0
M  V30 42 H 1.419787 4.407296 2.288862 0
M  V30 43 H -0.150241 6.244444 1.799665 0
M  V30 44 H -0.750321 4.742403 -2.069110 0
M  V30 45 H -1.976737 -1.660226 1.146979 0
M  V30 46 H -3.586587 -3.562909 1.315304 0
M  V30 47 H -3.222860 -7.468496 -1.650635 0
M  V30 48 H 0.035358 -3.678129 -2.032086 0
M  V30 END ATOM
M  V30 BEGIN BOND
M  V30 1 1 1 2
M  V30 2 2 2 3
M  V30 3 1 3 4
M  V30 4 2 4 5
M  V30 5 1 5 6
M  V30 6 1 6 7
M  V30 7 1 7 8
M  V30 8 1 8 9
M  V30 9 1 9 10
M  V30 10 1 10 11
M  V30 11 1 11 12
M  V30 12 2 12 13
M  V30 13 1 13 14
M  V30 14 2 14 15
M  V30 15 1 15 16
M  V30 16 1 16 17
M  V30 17 2 16 18
M  V30 18 2 9 19
M  V30 19 1 19 20
M  V30 20 1 20 21
M  V30 21 1 21 22
M  V30 22 2 22 23
M  V30 23 1 23 24
M  V30 24 2 24 25
M  V30 25 1 25 26
M  V30 26 2 26 27
M  V30 27 1 27 28
M  V30 28 1 28 29
M  V30 29 2 6 30
M  V30 30 1 30 2
M  V30 31 2 20 7
M  V30 32 2 29 21
M  V30 33 1 18 12
M  V30 34 1 28 24
M  V30 35 1 1 31
M  V30 36 1 1 32
M  V30 37 1 1 33
M  V30 38 1 3 34
M  V30 39 1 4 35
M  V30 40 1 5 36
M  V30 41 1 8 37
M  V30 42 1 10 38
M  V30 43 1 10 39
M  V30 44 1 11 40
M  V30 45 1 13 41
M  V30 46 1 14 42
M  V30 47 1 15 43
M  V30 48 1 18 44
M  V30 49 1 22 45
M  V30 50 1 23 46
M  V30 51 1 26 47
M  V30 52 1 29 48
M  V30 END BOND
M  V30 END CTAB
M  END
>  <Dataset>  (868) 
ChEMBL_Kinases

>  <Ligand_Instance>  (868) 
nan

>  <PDB_ID>  (868) 
nan

>  <Standardized_SMILES>  (868) 
Cc1cccc(-c2[nH]c(CNc3cccc(Cl)c3)nc2-c2ccc3ncnn3c2)n1

>  <Name>  (868) 
nan

>  <Pocket>  (868) 
nan

>  <ATP_Site>  (868) 
nan

>  <Peripheral>  (868) 
nan

>  <Num_H_Atoms_ProtBoundConf>  (868) 
nan

>  <Num_Resolved_Atoms>  (868) 
nan

>  <Num_Not_Resolved_Atoms>  (868) 
nan

$$$$
CHEMBL3260583
     RDKit          3D

  0  0  0  0  0  0  0  0  0  0999 V3000
M  V30 BEGIN CTAB
M  V30 COUNTS 48 52 0 0 0
M  V30 BEGIN ATOM
M  V30 1 C 0.328280 -0.967978 5.531388 0
M  V30 2 C 0.667464 -1.661159 4.261070 0
M  V30 3 C 1.069885 -2.997465 4.355936 0
M  V30 4 C 1.383936 -3.639807 3.175938 0
M  V30 5 C 1.325064 -3.049489 1.926259 0
M  V30 6 C 0.914886 -1.714359 1.913752 0
M  V30 7 C 0.850778 -1.089754 0.596827 0
M  V30 8 N 1.575151 -0.048281 0.157302 0
M  V30 9 C 1.285544 0.296869 -1.107067 0
M  V30 10 C 1.729907 1.318825 -2.067078 0
M  V30 11 N 0.943533 2.513469 -2.105677 0
M  V30 12 C 0.750195 3.502000 -1.131051 0
M  V30 13 C 1.335560 3.526082 0.117816 0
M  V30 14 C 1.140603 4.492863 1.077023 0
M  V30 15 C 0.295057 5.535043 0.791964 0
M  V30 16 C -0.318406 5.574129 -0.426764 0
M  V30 17 Br -1.489995 7.008308 -0.836025 0
M  V30 18 C -0.088240 4.581340 -1.349400 0
M  V30 19 N 0.314708 -0.590043 -1.481599 0
M  V30 20 C 0.044023 -1.428167 -0.468354 0
M  V30 21 C -0.902416 -2.537481 -0.374685 0
M  V30 22 C -1.915772 -2.413438 0.583520 0
M  V30 23 C -2.882452 -3.368125 0.795882 0
M  V30 24 C -2.841573 -4.521023 0.006622 0
M  V30 25 N -3.620434 -5.611479 -0.032280 0
M  V30 26 C -3.131504 -6.420855 -0.984839 0
M  V30 27 N -2.045657 -5.804594 -1.521701 0
M  V30 28 N -1.850510 -4.629047 -0.921807 0
M  V30 29 C -0.906029 -3.692125 -1.126618 0
M  V30 30 N 0.606339 -1.079794 3.062121 0
M  V30 31 H -0.424906 -1.549053 6.098948 0
M  V30 32 H -0.203275 -0.019649 5.235075 0
M  V30 33 H 1.212622 -0.687136 6.100194 0
M  V30 34 H 1.133139 -3.504748 5.301241 0
M  V30 35 H 1.702876 -4.687806 3.215851 0
M  V30 36 H 1.589999 -3.631357 1.055985 0
M  V30 37 H 2.288426 0.448058 0.707058 0
M  V30 38 H 1.755235 0.870272 -3.085592 0
M  V30 39 H 2.812329 1.565744 -1.794562 0
M  V30 40 H 0.421288 2.687122 -3.006284 0
M  V30 41 H 2.006359 2.748510 0.395535 0
M  V30 42 H 1.617886 4.471623 2.038218 0
M  V30 43 H 0.119934 6.309865 1.521933 0
M  V30 44 H -0.607247 4.670709 -2.300680 0
M  V30 45 H -1.969040 -1.532757 1.205800 0
M  V30 46 H -3.651481 -3.239731 1.545558 0
M  V30 47 H -3.496110 -7.397614 -1.308189 0
M  V30 48 H -0.131935 -3.773729 -1.849839 0
M  V30 END ATOM
M  V30 BEGIN BOND
M  V30 1 1 1 2
M  V30 2 2 2 3
M  V30 3 1 3 4
M  V30 4 2 4 5
M  V30 5 1 5 6
M  V30 6 1 6 7
M  V30 7 1 7 8
M  V30 8 1 8 9
M  V30 9 1 9 10
M  V30 10 1 10 11
M  V30 11 1 11 12
M  V30 12 2 12 13
M  V30 13 1 13 14
M  V30 14 2 14 15
M  V30 15 1 15 16
M  V30 16 1 16 17
M  V30 17 2 16 18
M  V30 18 2 9 19
M  V30 19 1 19 20
M  V30 20 1 20 21
M  V30 21 1 21 22
M  V30 22 2 22 23
M  V30 23 1 23 24
M  V30 24 2 24 25
M  V30 25 1 25 26
M  V30 26 2 26 27
M  V30 27 1 27 28
M  V30 28 1 28 29
M  V30 29 2 6 30
M  V30 30 1 30 2
M  V30 31 2 20 7
M  V30 32 2 29 21
M  V30 33 1 18 12
M  V30 34 1 28 24
M  V30 35 1 1 31
M  V30 36 1 1 32
M  V30 37 1 1 33
M  V30 38 1 3 34
M  V30 39 1 4 35
M  V30 40 1 5 36
M  V30 41 1 8 37
M  V30 42 1 10 38
M  V30 43 1 10 39
M  V30 44 1 11 40
M  V30 45 1 13 41
M  V30 46 1 14 42
M  V30 47 1 15 43
M  V30 48 1 18 44
M  V30 49 1 22 45
M  V30 50 1 23 46
M  V30 51 1 26 47
M  V30 52 1 29 48
M  V30 END BOND
M  V30 END CTAB
M  END
>  <Dataset>  (869) 
ChEMBL_Kinases

>  <Ligand_Instance>  (869) 
nan

>  <PDB_ID>  (869) 
nan

>  <Standardized_SMILES>  (869) 
Cc1cccc(-c2[nH]c(CNc3cccc(Br)c3)nc2-c2ccc3ncnn3c2)n1

>  <Name>  (869) 
nan

>  <Pocket>  (869) 
nan

>  <ATP_Site>  (869) 
nan

>  <Peripheral>  (869) 
nan

>  <Num_H_Atoms_ProtBoundConf>  (869) 
nan

>  <Num_Resolved_Atoms>  (869) 
nan

>  <Num_Not_Resolved_Atoms>  (869) 
nan

$$$$
CHEMBL3260584
     RDKit          3D

  0  0  0  0  0  0  0  0  0  0999 V3000
M  V30 BEGIN CTAB
M  V30 COUNTS 51 55 0 0 0
M  V30 BEGIN ATOM
M  V30 1 C 1.805361 0.267046 5.431862 0
M  V30 2 C 2.489236 -0.777366 4.629675 0
M  V30 3 C 2.738619 -1.964781 5.309200 0
M  V30 4 C 3.372323 -2.959880 4.597808 0
M  V30 5 C 3.765007 -2.853080 3.283818 0
M  V30 6 C 3.512459 -1.654762 2.600488 0
M  V30 7 N 3.875573 -1.404271 1.250032 0
M  V30 8 C 3.671411 -0.264793 0.389073 0
M  V30 9 C 2.218465 -0.076853 0.095981 0
M  V30 10 N 1.197469 0.597499 0.611102 0
M  V30 11 C 0.048948 0.414247 -0.056519 0
M  V30 12 C -1.230805 1.022803 0.274344 0
M  V30 13 C -1.260139 2.419250 0.236341 0
M  V30 14 C -2.462491 3.066704 0.543354 0
M  V30 15 C -3.538788 2.259026 0.863888 0
M  V30 16 N -4.778810 2.639738 1.189871 0
M  V30 17 C -5.514877 1.534050 1.427131 0
M  V30 18 N -4.711828 0.447487 1.243702 0
M  V30 19 N -3.517715 0.902983 0.902849 0
M  V30 20 C -2.353430 0.299304 0.604768 0
M  V30 21 C 0.310433 -0.431673 -1.079794 0
M  V30 22 C -0.638794 -0.915797 -2.071640 0
M  V30 23 C -1.323270 -0.143812 -2.982635 0
M  V30 24 C -2.183180 -0.820015 -3.837887 0
M  V30 25 C -2.325815 -2.189161 -3.758835 0
M  V30 26 C -1.618876 -2.945277 -2.825109 0
M  V30 27 C -1.774677 -4.424544 -2.741068 0
M  V30 28 N -0.795264 -2.245972 -2.015180 0
M  V30 29 N 1.619819 -0.707054 -0.960023 0
M  V30 30 C 2.878231 -0.657864 3.312296 0
M  V30 31 H 1.683475 1.215406 4.872114 0
M  V30 32 H 0.815852 -0.099825 5.818260 0
M  V30 33 H 2.448308 0.452136 6.322437 0
M  V30 34 H 2.506952 -2.232059 6.330782 0
M  V30 35 H 3.616248 -3.933429 5.035355 0
M  V30 36 H 4.262201 -3.638411 2.731118 0
M  V30 37 H 4.392284 -2.246149 0.843535 0
M  V30 38 H 4.178187 -0.466908 -0.573172 0
M  V30 39 H 4.071387 0.673719 0.845559 0
M  V30 40 H -0.419320 3.046109 -0.014042 0
M  V30 41 H -2.550997 4.139983 0.532379 0
M  V30 42 H -6.552565 1.666934 1.705959 0
M  V30 43 H -2.287477 -0.780665 0.621868 0
M  V30 44 H -1.136301 0.917980 -2.957469 0
M  V30 45 H -2.722787 -0.211803 -4.555757 0
M  V30 46 H -2.992215 -2.688821 -4.426072 0
M  V30 47 H -2.805548 -4.689618 -2.509697 0
M  V30 48 H -1.061955 -4.761931 -1.970093 0
M  V30 49 H -1.397248 -4.878560 -3.694087 0
M  V30 50 H 2.104734 -1.360878 -1.646191 0
M  V30 51 H 2.619894 0.316902 2.942982 0
M  V30 END ATOM
M  V30 BEGIN BOND
M  V30 1 1 1 2
M  V30 2 2 2 3
M  V30 3 1 3 4
M  V30 4 2 4 5
M  V30 5 1 5 6
M  V30 6 1 6 7
M  V30 7 1 7 8
M  V30 8 1 8 9
M  V30 9 2 9 10
M  V30 10 1 10 11
M  V30 11 1 11 12
M  V30 12 1 12 13
M  V30 13 2 13 14
M  V30 14 1 14 15
M  V30 15 2 15 16
M  V30 16 1 16 17
M  V30 17 2 17 18
M  V30 18 1 18 19
M  V30 19 1 19 20
M  V30 20 2 11 21
M  V30 21 1 21 22
M  V30 22 2 22 23
M  V30 23 1 23 24
M  V30 24 2 24 25
M  V30 25 1 25 26
M  V30 26 1 26 27
M  V30 27 2 26 28
M  V30 28 1 21 29
M  V30 29 2 6 30
M  V30 30 1 30 2
M  V30 31 1 29 9
M  V30 32 2 20 12
M  V30 33 1 28 22
M  V30 34 1 19 15
M  V30 35 1 1 31
M  V30 36 1 1 32
M  V30 37 1 1 33
M  V30 38 1 3 34
M  V30 39 1 4 35
M  V30 40 1 5 36
M  V30 41 1 7 37
M  V30 42 1 8 38
M  V30 43 1 8 39
M  V30 44 1 13 40
M  V30 45 1 14 41
M  V30 46 1 17 42
M  V30 47 1 20 43
M  V30 48 1 23 44
M  V30 49 1 24 45
M  V30 50 1 25 46
M  V30 51 1 27 47
M  V30 52 1 27 48
M  V30 53 1 27 49
M  V30 54 1 29 50
M  V30 55 1 30 51
M  V30 END BOND
M  V30 END CTAB
M  END
>  <Dataset>  (870) 
ChEMBL_Kinases

>  <Ligand_Instance>  (870) 
nan

>  <PDB_ID>  (870) 
nan

>  <Standardized_SMILES>  (870) 
Cc1cccc(NCc2nc(-c3ccc4ncnn4c3)c(-c3cccc(C)n3)[nH]2)c1

>  <Name>  (870) 
nan

>  <Pocket>  (870) 
nan

>  <ATP_Site>  (870) 
nan

>  <Peripheral>  (870) 
nan

>  <Num_H_Atoms_ProtBoundConf>  (870) 
nan

>  <Num_Resolved_Atoms>  (870) 
nan

>  <Num_Not_Resolved_Atoms>  (870) 
nan

$$$$
CHEMBL3260575
     RDKit          3D

  0  0  0  0  0  0  0  0  0  0999 V3000
M  V30 BEGIN CTAB
M  V30 COUNTS 52 56 0 0 0
M  V30 BEGIN ATOM
M  V30 1 C 4.070252 -2.760993 4.969176 0
M  V30 2 S 3.456667 -2.261345 3.348318 0
M  V30 3 C 4.797544 -1.666698 2.351234 0
M  V30 4 C 6.132510 -1.558246 2.643176 0
M  V30 5 C 7.103774 -1.080701 1.800050 0
M  V30 6 C 6.700597 -0.667759 0.532121 0
M  V30 7 C 5.362598 -0.767312 0.216236 0
M  V30 8 C 4.393236 -1.260237 1.100066 0
M  V30 9 N 3.136520 -1.224168 0.470039 0
M  V30 10 C 2.538618 -0.844772 -0.786308 0
M  V30 11 C 1.057063 -0.882573 -0.718247 0
M  V30 12 N 0.420199 0.279745 -0.392773 0
M  V30 13 C -0.916633 0.112674 -0.367356 0
M  V30 14 C -1.778131 1.246160 -0.047451 0
M  V30 15 C -1.721931 1.768263 1.228489 0
M  V30 16 C -2.494148 2.842295 1.613226 0
M  V30 17 C -3.375306 3.461052 0.734337 0
M  V30 18 N -4.251157 4.491422 0.760198 0
M  V30 19 C -4.799224 4.562970 -0.465677 0
M  V30 20 N -4.265040 3.581052 -1.248683 0
M  V30 21 N -3.389760 2.909314 -0.499508 0
M  V30 22 C -2.653160 1.864599 -0.910541 0
M  V30 23 C -1.097427 -1.217575 -0.693209 0
M  V30 24 C -2.443631 -1.767658 -0.766085 0
M  V30 25 C -3.345468 -1.472686 -1.783418 0
M  V30 26 C -4.624070 -1.988653 -1.830531 0
M  V30 27 C -5.014097 -2.848724 -0.796255 0
M  V30 28 C -4.093978 -3.132026 0.214069 0
M  V30 29 C -4.666973 -4.049458 1.233162 0
M  V30 30 N -2.860588 -2.606395 0.217811 0
M  V30 31 N 0.088044 -1.785789 -0.896673 0
M  V30 32 H 5.151471 -3.035136 4.911654 0
M  V30 33 H 3.471463 -3.582027 5.422245 0
M  V30 34 H 3.986727 -1.890176 5.658050 0
M  V30 35 H 6.316118 -1.916011 3.669573 0
M  V30 36 H 8.109853 -1.059030 2.180330 0
M  V30 37 H 7.485778 -0.299205 -0.103634 0
M  V30 38 H 5.205275 -0.405473 -0.813569 0
M  V30 39 H 2.457737 -1.608089 1.194427 0
M  V30 40 H 2.918647 0.128838 -1.159444 0
M  V30 41 H 2.842641 -1.626456 -1.534485 0
M  V30 42 H -1.040466 1.313158 1.958198 0
M  V30 43 H -2.470341 3.274734 2.617955 0
M  V30 44 H -5.532979 5.341964 -0.627516 0
M  V30 45 H -2.710144 1.474775 -1.916505 0
M  V30 46 H -2.985552 -0.805946 -2.554658 0
M  V30 47 H -5.307369 -1.744278 -2.631707 0
M  V30 48 H -6.005600 -3.222119 -0.871898 0
M  V30 49 H -4.008733 -3.965132 2.126122 0
M  V30 50 H -4.599682 -5.088945 0.889670 0
M  V30 51 H -5.689083 -3.707492 1.490447 0
M  V30 52 H 0.301682 -2.750274 -1.150558 0
M  V30 END ATOM
M  V30 BEGIN BOND
M  V30 1 1 1 2
M  V30 2 1 2 3
M  V30 3 2 3 4
M  V30 4 1 4 5
M  V30 5 2 5 6
M  V30 6 1 6 7
M  V30 7 2 7 8
M  V30 8 1 8 9
M  V30 9 1 9 10
M  V30 10 1 10 11
M  V30 11 2 11 12
M  V30 12 1 12 13
M  V30 13 1 13 14
M  V30 14 1 14 15
M  V30 15 2 15 16
M  V30 16 1 16 17
M  V30 17 2 17 18
M  V30 18 1 18 19
M  V30 19 2 19 20
M  V30 20 1 20 21
M  V30 21 1 21 22
M  V30 22 2 13 23
M  V30 23 1 23 24
M  V30 24 2 24 25
M  V30 25 1 25 26
M  V30 26 2 26 27
M  V30 27 1 27 28
M  V30 28 1 28 29
M  V30 29 2 28 30
M  V30 30 1 23 31
M  V30 31 1 8 3
M  V30 32 1 31 11
M  V30 33 2 22 14
M  V30 34 1 30 24
M  V30 35 1 21 17
M  V30 36 1 1 32
M  V30 37 1 1 33
M  V30 38 1 1 34
M  V30 39 1 4 35
M  V30 40 1 5 36
M  V30 41 1 6 37
M  V30 42 1 7 38
M  V30 43 1 9 39
M  V30 44 1 10 40
M  V30 45 1 10 41
M  V30 46 1 15 42
M  V30 47 1 16 43
M  V30 48 1 19 44
M  V30 49 1 22 45
M  V30 50 1 25 46
M  V30 51 1 26 47
M  V30 52 1 27 48
M  V30 53 1 29 49
M  V30 54 1 29 50
M  V30 55 1 29 51
M  V30 56 1 31 52
M  V30 END BOND
M  V30 END CTAB
M  END
>  <Dataset>  (871) 
ChEMBL_Kinases

>  <Ligand_Instance>  (871) 
nan

>  <PDB_ID>  (871) 
nan

>  <Standardized_SMILES>  (871) 
CSc1ccccc1NCc1nc(-c2ccc3ncnn3c2)c(-c2cccc(C)n2)[nH]1

>  <Name>  (871) 
nan

>  <Pocket>  (871) 
nan

>  <ATP_Site>  (871) 
nan

>  <Peripheral>  (871) 
nan

>  <Num_H_Atoms_ProtBoundConf>  (871) 
nan

>  <Num_Resolved_Atoms>  (871) 
nan

>  <Num_Not_Resolved_Atoms>  (871) 
nan

$$$$
CHEMBL3675524
     RDKit          3D

  0  0  0  0  0  0  0  0  0  0999 V3000
M  V30 BEGIN CTAB
M  V30 COUNTS 60 63 0 0 0
M  V30 BEGIN ATOM
M  V30 1 C 7.061587 2.124592 6.642317 0
M  V30 2 O 6.752556 1.246300 5.592789 0
M  V30 3 C 5.779994 1.400408 4.647820 0
M  V30 4 C 4.922534 2.480940 4.576062 0
M  V30 5 C 3.948272 2.598440 3.600157 0
M  V30 6 C 3.846421 1.578977 2.667077 0
M  V30 7 C 2.862529 1.539188 1.557355 0
M  V30 8 O 2.748761 0.578415 0.721928 0
M  V30 9 N 1.909994 2.581355 1.282258 0
M  V30 10 C 1.187442 2.087851 0.130412 0
M  V30 11 C 1.499369 2.291864 -1.218120 0
M  V30 12 C 0.664971 1.720791 -2.154546 0
M  V30 13 C -0.436932 0.974736 -1.796904 0
M  V30 14 C -0.770893 0.755193 -0.457911 0
M  V30 15 C -1.983232 -0.053114 -0.271538 0
M  V30 16 C -1.962818 -0.622908 1.132917 0
M  V30 17 C -0.809178 -1.516567 1.424842 0
M  V30 18 O -0.835971 -2.003910 2.744962 0
M  V30 19 N -2.085412 -1.124336 -1.254628 0
M  V30 20 C -3.222305 -1.984416 -1.282103 0
M  V30 21 N -4.220433 -1.814283 -0.403216 0
M  V30 22 C -5.325769 -2.572666 -0.353191 0
M  V30 23 N -5.470382 -3.580625 -1.232742 0
M  V30 24 C -4.522087 -3.820913 -2.144821 0
M  V30 25 C -4.596828 -4.833586 -3.076468 0
M  V30 26 C -5.807069 -5.640301 -2.983637 0
M  V30 27 N -6.287098 -6.760977 -3.712069 0
M  V30 28 O -6.692740 -5.401403 -2.122622 0
M  V30 29 C -3.628725 -5.093207 -4.020923 0
M  V30 30 C -2.489154 -4.279383 -4.042875 0
M  V30 31 C -2.429482 -3.268919 -3.101389 0
M  V30 32 C -3.390646 -3.023211 -2.175490 0
M  V30 33 C 0.076894 1.336386 0.453032 0
M  V30 34 C 4.682987 0.477770 2.698837 0
M  V30 35 C 5.630798 0.420015 3.693504 0
M  V30 36 H 6.626307 1.744606 7.614512 0
M  V30 37 H 8.160431 2.204375 6.849893 0
M  V30 38 H 6.670381 3.142167 6.531492 0
M  V30 39 H 5.007015 3.266903 5.303617 0
M  V30 40 H 3.253789 3.418563 3.497613 0
M  V30 41 H 1.916097 3.416912 1.903717 0
M  V30 42 H 2.382240 2.889973 -1.357272 0
M  V30 43 H 1.003163 1.945170 -3.159426 0
M  V30 44 H -0.939680 0.630368 -2.700681 0
M  V30 45 H -2.873171 0.583519 -0.364736 0
M  V30 46 H -1.937937 0.236260 1.838541 0
M  V30 47 H -2.889952 -1.170528 1.404582 0
M  V30 48 H 0.185896 -1.094984 1.256854 0
M  V30 49 H -0.873089 -2.433016 0.782198 0
M  V30 50 H 0.031304 -2.487282 2.860958 0
M  V30 51 H -1.286291 -1.194684 -1.897887 0
M  V30 52 H -6.123933 -2.402498 0.383063 0
M  V30 53 H -7.197518 -6.785433 -4.224180 0
M  V30 54 H -5.446988 -7.337629 -3.492141 0
M  V30 55 H -3.782355 -5.912047 -4.707084 0
M  V30 56 H -1.716131 -4.481274 -4.792142 0
M  V30 57 H -1.524592 -2.685848 -3.179628 0
M  V30 58 H -0.202764 1.172559 1.484304 0
M  V30 59 H 4.619238 -0.343517 1.967058 0
M  V30 60 H 6.287257 -0.466097 3.700568 0
M  V30 END ATOM
M  V30 BEGIN BOND
M  V30 1 1 1 2
M  V30 2 1 2 3
M  V30 3 2 3 4
M  V30 4 1 4 5
M  V30 5 2 5 6
M  V30 6 1 6 7
M  V30 7 2 7 8
M  V30 8 1 7 9
M  V30 9 1 9 10
M  V30 10 2 10 11
M  V30 11 1 11 12
M  V30 12 2 12 13
M  V30 13 1 13 14
M  V30 14 1 14 15
M  V30 15 1 15 16
M  V30 16 1 16 17
M  V30 17 1 17 18
M  V30 18 1 15 19
M  V30 19 1 19 20
M  V30 20 2 20 21
M  V30 21 1 21 22
M  V30 22 2 22 23
M  V30 23 1 23 24
M  V30 24 2 24 25
M  V30 25 1 25 26
M  V30 26 1 26 27
M  V30 27 2 26 28
M  V30 28 1 25 29
M  V30 29 2 29 30
M  V30 30 1 30 31
M  V30 31 2 31 32
M  V30 32 2 14 33
M  V30 33 1 6 34
M  V30 34 2 34 35
M  V30 35 1 35 3
M  V30 36 1 33 10
M  V30 37 1 32 20
M  V30 38 1 32 24
M  V30 39 1 1 36
M  V30 40 1 1 37
M  V30 41 1 1 38
M  V30 42 1 4 39
M  V30 43 1 5 40
M  V30 44 1 9 41
M  V30 45 1 11 42
M  V30 46 1 12 43
M  V30 47 1 13 44
M  V30 48 1 15 45
M  V30 49 1 16 46
M  V30 50 1 16 47
M  V30 51 1 17 48
M  V30 52 1 17 49
M  V30 53 1 18 50
M  V30 54 1 19 51
M  V30 55 1 22 52
M  V30 56 1 27 53
M  V30 57 1 27 54
M  V30 58 1 29 55
M  V30 59 1 30 56
M  V30 60 1 31 57
M  V30 61 1 33 58
M  V30 62 1 34 59
M  V30 63 1 35 60
M  V30 END BOND
M  V30 END CTAB
M  END
>  <Dataset>  (872) 
ChEMBL_Kinases

>  <Ligand_Instance>  (872) 
nan

>  <PDB_ID>  (872) 
nan

>  <Standardized_SMILES>  (872) 
COc1ccc(C(=O)Nc2cccc(C(CCO)Nc3ncnc4c(C(N)=O)cccc34)c2)cc1

>  <Name>  (872) 
nan

>  <Pocket>  (872) 
nan

>  <ATP_Site>  (872) 
nan

>  <Peripheral>  (872) 
nan

>  <Num_H_Atoms_ProtBoundConf>  (872) 
nan

>  <Num_Resolved_Atoms>  (872) 
nan

>  <Num_Not_Resolved_Atoms>  (872) 
nan

$$$$
CHEMBL3238164
     RDKit          3D

  0  0  0  0  0  0  0  0  0  0999 V3000
M  V30 BEGIN CTAB
M  V30 COUNTS 62 65 0 0 0
M  V30 BEGIN ATOM
M  V30 1 C 0.588477 -3.538000 4.293105 0
M  V30 2 C 1.568383 -2.410622 4.414159 0
M  V30 3 O 2.046462 -2.535883 5.598945 0
M  V30 4 N 1.959152 -1.377211 3.489266 0
M  V30 5 C 2.932176 -0.621331 4.218737 0
M  V30 6 C 3.470487 0.518837 3.409422 0
M  V30 7 O 4.079995 0.040508 2.262551 0
M  V30 8 C 2.356388 1.491932 3.096991 0
M  V30 9 N 1.397985 0.847440 2.247083 0
M  V30 10 C 1.879524 0.599695 0.927633 0
M  V30 11 C 0.840226 0.892958 -0.092104 0
M  V30 12 N -0.454823 0.302525 0.126867 0
M  V30 13 C -1.249974 -0.277412 -0.893348 0
M  V30 14 N -2.430804 0.303540 -1.224258 0
M  V30 15 C -3.220444 -0.185480 -2.197094 0
M  V30 16 C -4.467526 0.515822 -2.473160 0
M  V30 17 C -4.801056 1.639589 -1.747636 0
M  V30 18 C -5.957812 2.385360 -1.922288 0
M  V30 19 N -6.806032 1.960949 -2.879489 0
M  V30 20 C -6.549144 0.873300 -3.627944 0
M  V30 21 C -5.375912 0.138718 -3.432263 0
M  V30 22 C -2.859974 -1.309963 -2.907190 0
M  V30 23 N -1.692767 -1.904350 -2.596756 0
M  V30 24 C -0.914626 -1.394028 -1.613238 0
M  V30 25 N 0.277672 -2.119625 -1.361846 0
M  V30 26 C 0.523093 -2.822523 -0.088987 0
M  V30 27 C 0.619124 -4.252873 -0.659608 0
M  V30 28 C 1.532864 -3.987365 -1.867577 0
M  V30 29 C 1.547094 -2.480110 -2.014556 0
M  V30 30 C -0.809250 0.401986 1.526084 0
M  V30 31 C 0.098600 1.418637 2.221853 0
M  V30 32 H 0.145570 -3.564123 3.269752 0
M  V30 33 H 1.039290 -4.515795 4.522327 0
M  V30 34 H -0.220015 -3.354778 5.019286 0
M  V30 35 H 1.359102 -1.623886 2.675912 0
M  V30 36 H 3.823737 -1.277331 4.453527 0
M  V30 37 H 2.510415 -0.207800 5.164602 0
M  V30 38 H 4.263889 1.070211 4.042134 0
M  V30 39 H 5.017020 0.268371 2.152279 0
M  V30 40 H 1.910749 1.916774 4.013577 0
M  V30 41 H 2.833824 2.377908 2.582112 0
M  V30 42 H 2.278828 -0.430301 0.872357 0
M  V30 43 H 2.777204 1.259226 0.689859 0
M  V30 44 H 1.242031 0.512027 -1.075299 0
M  V30 45 H 0.663058 1.982680 -0.241619 0
M  V30 46 H -4.126911 1.990683 -0.975225 0
M  V30 47 H -6.170804 3.262743 -1.322559 0
M  V30 48 H -7.270128 0.571782 -4.391452 0
M  V30 49 H -5.189248 -0.718365 -4.033256 0
M  V30 50 H -3.467016 -1.728537 -3.692156 0
M  V30 51 H 1.508403 -2.589584 0.312399 0
M  V30 52 H -0.323670 -2.735513 0.600856 0
M  V30 53 H -0.391133 -4.578100 -0.984548 0
M  V30 54 H 1.065361 -4.933145 0.066258 0
M  V30 55 H 1.115888 -4.485345 -2.764940 0
M  V30 56 H 2.535441 -4.336570 -1.571787 0
M  V30 57 H 1.617983 -2.127163 -3.043041 0
M  V30 58 H 2.345307 -2.085566 -1.328369 0
M  V30 59 H -0.689288 -0.595277 1.983810 0
M  V30 60 H -1.860232 0.731193 1.562687 0
M  V30 61 H -0.304702 1.641588 3.242020 0
M  V30 62 H 0.031308 2.364732 1.648856 0
M  V30 END ATOM
M  V30 BEGIN BOND
M  V30 1 1 1 2
M  V30 2 2 2 3
M  V30 3 1 2 4
M  V30 4 1 4 5
M  V30 5 1 5 6
M  V30 6 1 6 7
M  V30 7 1 6 8
M  V30 8 1 8 9
M  V30 9 1 9 10
M  V30 10 1 10 11
M  V30 11 1 11 12
M  V30 12 1 12 13
M  V30 13 2 13 14
M  V30 14 1 14 15
M  V30 15 1 15 16
M  V30 16 2 16 17
M  V30 17 1 17 18
M  V30 18 2 18 19
M  V30 19 1 19 20
M  V30 20 2 20 21
M  V30 21 2 15 22
M  V30 22 1 22 23
M  V30 23 2 23 24
M  V30 24 1 24 25
M  V30 25 1 25 26
M  V30 26 1 26 27
M  V30 27 1 27 28
M  V30 28 1 28 29
M  V30 29 1 12 30
M  V30 30 1 30 31
M  V30 31 1 31 9
M  V30 32 1 24 13
M  V30 33 1 29 25
M  V30 34 1 21 16
M  V30 35 1 1 32
M  V30 36 1 1 33
M  V30 37 1 1 34
M  V30 38 1 4 35
M  V30 39 1 5 36
M  V30 40 1 5 37
M  V30 41 1 6 38
M  V30 42 1 7 39
M  V30 43 1 8 40
M  V30 44 1 8 41
M  V30 45 1 10 42
M  V30 46 1 10 43
M  V30 47 1 11 44
M  V30 48 1 11 45
M  V30 49 1 17 46
M  V30 50 1 18 47
M  V30 51 1 20 48
M  V30 52 1 21 49
M  V30 53 1 22 50
M  V30 54 1 26 51
M  V30 55 1 26 52
M  V30 56 1 27 53
M  V30 57 1 27 54
M  V30 58 1 28 55
M  V30 59 1 28 56
M  V30 60 1 29 57
M  V30 61 1 29 58
M  V30 62 1 30 59
M  V30 63 1 30 60
M  V30 64 1 31 61
M  V30 65 1 31 62
M  V30 END BOND
M  V30 END CTAB
M  END
>  <Dataset>  (873) 
ChEMBL_Kinases

>  <Ligand_Instance>  (873) 
nan

>  <PDB_ID>  (873) 
nan

>  <Standardized_SMILES>  (873) 
CC(=O)NCC(O)CN1CCN(c2nc(-c3ccncc3)cnc2N2CCCC2)CC1

>  <Name>  (873) 
nan

>  <Pocket>  (873) 
nan

>  <ATP_Site>  (873) 
nan

>  <Peripheral>  (873) 
nan

>  <Num_H_Atoms_ProtBoundConf>  (873) 
nan

>  <Num_Resolved_Atoms>  (873) 
nan

>  <Num_Not_Resolved_Atoms>  (873) 
nan

$$$$
CHEMBL3238165
     RDKit          3D

  0  0  0  0  0  0  0  0  0  0999 V3000
M  V30 BEGIN CTAB
M  V30 COUNTS 61 64 0 0 0
M  V30 BEGIN ATOM
M  V30 1 C 2.999423 -3.056417 5.852305 0
M  V30 2 C 3.320977 -2.467591 4.532576 0
M  V30 3 O 3.369766 -1.216584 4.524338 0
M  V30 4 N 3.557654 -3.229988 3.364249 0
M  V30 5 C 3.874105 -2.688765 2.057877 0
M  V30 6 C 2.773132 -1.790137 1.547841 0
M  V30 7 C 3.084263 -1.218201 0.188158 0
M  V30 8 N 1.987733 -0.393682 -0.224147 0
M  V30 9 C 2.146804 0.243026 -1.478277 0
M  V30 10 C 0.801573 0.659393 -2.015783 0
M  V30 11 N -0.230361 0.600457 -1.042821 0
M  V30 12 C -1.544063 0.167759 -0.839663 0
M  V30 13 N -2.442752 1.089326 -0.443043 0
M  V30 14 C -3.730786 0.781236 -0.193920 0
M  V30 15 C -4.677874 1.805326 0.235005 0
M  V30 16 C -6.009723 1.580333 0.510912 0
M  V30 17 C -6.817771 2.638594 0.913594 0
M  V30 18 N -6.322562 3.892031 1.041369 0
M  V30 19 C -5.023795 4.144827 0.778888 0
M  V30 20 C -4.232447 3.102008 0.383257 0
M  V30 21 C -4.091221 -0.539307 -0.366129 0
M  V30 22 N -3.199685 -1.493471 -0.767841 0
M  V30 23 C -1.907878 -1.144844 -1.010478 0
M  V30 24 N -1.106556 -2.230129 -1.446145 0
M  V30 25 C -0.441685 -2.658088 -2.686687 0
M  V30 26 C 0.815223 -3.332834 -2.269053 0
M  V30 27 C 0.477027 -3.922160 -0.915999 0
M  V30 28 C -0.790565 -3.270047 -0.468082 0
M  V30 29 C 0.311186 1.240985 0.148892 0
M  V30 30 C 1.422261 0.417784 0.787077 0
M  V30 31 H 1.922609 -2.822274 6.082853 0
M  V30 32 H 3.587643 -2.633089 6.675929 0
M  V30 33 H 3.049789 -4.172988 5.840891 0
M  V30 34 H 3.485137 -4.261193 3.514733 0
M  V30 35 H 4.166040 -3.490963 1.385795 0
M  V30 36 H 4.809051 -2.075339 2.216803 0
M  V30 37 H 2.699131 -0.956815 2.308338 0
M  V30 38 H 1.825177 -2.341696 1.607411 0
M  V30 39 H 3.230941 -2.002802 -0.576750 0
M  V30 40 H 4.005414 -0.590829 0.272712 0
M  V30 41 H 2.612007 -0.469295 -2.216557 0
M  V30 42 H 2.879270 1.085030 -1.418800 0
M  V30 43 H 0.586680 0.204956 -2.998511 0
M  V30 44 H 0.916358 1.763699 -2.269120 0
M  V30 45 H -6.394590 0.594898 0.409345 0
M  V30 46 H -7.854566 2.465461 1.128821 0
M  V30 47 H -4.656606 5.165618 0.891610 0
M  V30 48 H -3.190142 3.307187 0.172951 0
M  V30 49 H -5.109348 -0.861370 -0.184252 0
M  V30 50 H -0.375070 -1.890245 -3.443850 0
M  V30 51 H -1.121655 -3.459521 -3.116064 0
M  V30 52 H 1.048914 -4.190832 -2.950295 0
M  V30 53 H 1.697454 -2.695763 -2.268601 0
M  V30 54 H 0.273296 -5.012295 -0.981828 0
M  V30 55 H 1.336888 -3.781551 -0.232886 0
M  V30 56 H -0.585060 -2.834347 0.527809 0
M  V30 57 H -1.654242 -3.957824 -0.371537 0
M  V30 58 H 0.738764 2.246700 -0.099028 0
M  V30 59 H -0.443503 1.444121 0.935358 0
M  V30 60 H 0.963785 -0.223168 1.583761 0
M  V30 61 H 2.151211 1.075076 1.310117 0
M  V30 END ATOM
M  V30 BEGIN BOND
M  V30 1 1 1 2
M  V30 2 2 2 3
M  V30 3 1 2 4
M  V30 4 1 4 5
M  V30 5 1 5 6
M  V30 6 1 6 7
M  V30 7 1 7 8
M  V30 8 1 8 9
M  V30 9 1 9 10
M  V30 10 1 10 11
M  V30 11 1 11 12
M  V30 12 2 12 13
M  V30 13 1 13 14
M  V30 14 1 14 15
M  V30 15 2 15 16
M  V30 16 1 16 17
M  V30 17 2 17 18
M  V30 18 1 18 19
M  V30 19 2 19 20
M  V30 20 2 14 21
M  V30 21 1 21 22
M  V30 22 2 22 23
M  V30 23 1 23 24
M  V30 24 1 24 25
M  V30 25 1 25 26
M  V30 26 1 26 27
M  V30 27 1 27 28
M  V30 28 1 11 29
M  V30 29 1 29 30
M  V30 30 1 30 8
M  V30 31 1 23 12
M  V30 32 1 28 24
M  V30 33 1 20 15
M  V30 34 1 1 31
M  V30 35 1 1 32
M  V30 36 1 1 33
M  V30 37 1 4 34
M  V30 38 1 5 35
M  V30 39 1 5 36
M  V30 40 1 6 37
M  V30 41 1 6 38
M  V30 42 1 7 39
M  V30 43 1 7 40
M  V30 44 1 9 41
M  V30 45 1 9 42
M  V30 46 1 10 43
M  V30 47 1 10 44
M  V30 48 1 16 45
M  V30 49 1 17 46
M  V30 50 1 19 47
M  V30 51 1 20 48
M  V30 52 1 21 49
M  V30 53 1 25 50
M  V30 54 1 25 51
M  V30 55 1 26 52
M  V30 56 1 26 53
M  V30 57 1 27 54
M  V30 58 1 27 55
M  V30 59 1 28 56
M  V30 60 1 28 57
M  V30 61 1 29 58
M  V30 62 1 29 59
M  V30 63 1 30 60
M  V30 64 1 30 61
M  V30 END BOND
M  V30 END CTAB
M  END
>  <Dataset>  (874) 
ChEMBL_Kinases

>  <Ligand_Instance>  (874) 
nan

>  <PDB_ID>  (874) 
nan

>  <Standardized_SMILES>  (874) 
CC(=O)NCCCN1CCN(c2nc(-c3ccncc3)cnc2N2CCCC2)CC1

>  <Name>  (874) 
nan

>  <Pocket>  (874) 
nan

>  <ATP_Site>  (874) 
nan

>  <Peripheral>  (874) 
nan

>  <Num_H_Atoms_ProtBoundConf>  (874) 
nan

>  <Num_Resolved_Atoms>  (874) 
nan

>  <Num_Not_Resolved_Atoms>  (874) 
nan

$$$$
CHEMBL3238166
     RDKit          3D

  0  0  0  0  0  0  0  0  0  0999 V3000
M  V30 BEGIN CTAB
M  V30 COUNTS 51 55 0 0 0
M  V30 BEGIN ATOM
M  V30 1 C 0.551541 -3.491218 0.733767 0
M  V30 2 N 1.712445 -2.808396 0.683933 0
M  V30 3 C 1.731150 -1.459942 0.619527 0
M  V30 4 N 2.894649 -0.645075 0.553272 0
M  V30 5 C 3.382950 0.286470 -0.443155 0
M  V30 6 C 4.330229 1.172393 0.293288 0
M  V30 7 C 4.783869 0.367103 1.466336 0
M  V30 8 C 3.786297 -0.743199 1.676512 0
M  V30 9 C 0.530523 -0.781456 0.605861 0
M  V30 10 N 0.265936 0.612711 0.554992 0
M  V30 11 C 0.750430 1.365392 1.690432 0
M  V30 12 C 0.247454 2.793498 1.649504 0
M  V30 13 C 0.642783 3.400471 0.343847 0
M  V30 14 N -0.443957 3.420531 -0.613812 0
M  V30 15 C -1.247805 2.222309 -0.552080 0
M  V30 16 C -0.447662 0.967463 -0.653948 0
M  V30 17 N -0.639199 -1.484960 0.656731 0
M  V30 18 C -0.658528 -2.828940 0.720526 0
M  V30 19 C -1.912760 -3.593470 0.774031 0
M  V30 20 C -3.114313 -2.916679 0.759686 0
M  V30 21 C -4.219002 -3.738831 0.812989 0
M  V30 22 C -5.578084 -3.416724 0.817055 0
M  V30 23 N -6.280690 -4.579784 0.880438 0
M  V30 24 N -5.442552 -5.600907 0.915931 0
M  V30 25 C -4.178721 -5.135578 0.876799 0
M  V30 26 C -2.912406 -5.727348 0.886413 0
M  V30 27 N -1.809094 -4.934964 0.834494 0
M  V30 28 H 0.622009 -4.573441 0.784706 0
M  V30 29 H 2.524655 0.817242 -0.911692 0
M  V30 30 H 3.950151 -0.259706 -1.229344 0
M  V30 31 H 3.882801 2.150556 0.581850 0
M  V30 32 H 5.171858 1.433788 -0.393575 0
M  V30 33 H 5.799727 -0.039264 1.238322 0
M  V30 34 H 4.904225 0.996240 2.386573 0
M  V30 35 H 3.245157 -0.559997 2.606149 0
M  V30 36 H 4.324792 -1.712239 1.696597 0
M  V30 37 H 1.844773 1.399807 1.739589 0
M  V30 38 H 0.386137 0.950778 2.653861 0
M  V30 39 H 0.744963 3.378522 2.466215 0
M  V30 40 H -0.832035 2.858127 1.885960 0
M  V30 41 H 1.448964 2.808303 -0.113850 0
M  V30 42 H 1.027210 4.431120 0.494078 0
M  V30 43 H -1.032211 4.266612 -0.565903 0
M  V30 44 H -1.915386 2.238674 -1.454191 0
M  V30 45 H -1.921242 2.178880 0.309098 0
M  V30 46 H -1.201294 0.141749 -0.824630 0
M  V30 47 H 0.180052 0.952110 -1.557380 0
M  V30 48 H -3.203881 -1.850740 0.711635 0
M  V30 49 H -6.007109 -2.410470 0.776419 0
M  V30 50 H -5.596691 -6.642509 0.965916 0
M  V30 51 H -2.825406 -6.801717 0.934889 0
M  V30 END ATOM
M  V30 BEGIN BOND
M  V30 1 2 1 2
M  V30 2 1 2 3
M  V30 3 1 3 4
M  V30 4 1 4 5
M  V30 5 1 5 6
M  V30 6 1 6 7
M  V30 7 1 7 8
M  V30 8 2 3 9
M  V30 9 1 9 10
M  V30 10 1 10 11
M  V30 11 1 11 12
M  V30 12 1 12 13
M  V30 13 1 13 14
M  V30 14 1 14 15
M  V30 15 1 15 16
M  V30 16 1 9 17
M  V30 17 2 17 18
M  V30 18 1 18 19
M  V30 19 2 19 20
M  V30 20 1 20 21
M  V30 21 1 21 22
M  V30 22 2 22 23
M  V30 23 1 23 24
M  V30 24 1 24 25
M  V30 25 1 25 26
M  V30 26 2 26 27
M  V30 27 1 18 1
M  V30 28 1 27 19
M  V30 29 1 8 4
M  V30 30 1 16 10
M  V30 31 2 25 21
M  V30 32 1 1 28
M  V30 33 1 5 29
M  V30 34 1 5 30
M  V30 35 1 6 31
M  V30 36 1 6 32
M  V30 37 1 7 33
M  V30 38 1 7 34
M  V30 39 1 8 35
M  V30 40 1 8 36
M  V30 41 1 11 37
M  V30 42 1 11 38
M  V30 43 1 12 39
M  V30 44 1 12 40
M  V30 45 1 13 41
M  V30 46 1 13 42
M  V30 47 1 14 43
M  V30 48 1 15 44
M  V30 49 1 15 45
M  V30 50 1 16 46
M  V30 51 1 16 47
M  V30 52 1 20 48
M  V30 53 1 22 49
M  V30 54 1 24 50
M  V30 55 1 26 51
M  V30 END BOND
M  V30 END CTAB
M  END
>  <Dataset>  (875) 
ChEMBL_Kinases

>  <Ligand_Instance>  (875) 
nan

>  <PDB_ID>  (875) 
nan

>  <Standardized_SMILES>  (875) 
c1nc(N2CCCC2)c(N2CCCNCC2)nc1-c1cc2cn[nH]c2cn1

>  <Name>  (875) 
nan

>  <Pocket>  (875) 
nan

>  <ATP_Site>  (875) 
nan

>  <Peripheral>  (875) 
nan

>  <Num_H_Atoms_ProtBoundConf>  (875) 
nan

>  <Num_Resolved_Atoms>  (875) 
nan

>  <Num_Not_Resolved_Atoms>  (875) 
nan

$$$$
CHEMBL3238167
     RDKit          3D

  0  0  0  0  0  0  0  0  0  0999 V3000
M  V30 BEGIN CTAB
M  V30 COUNTS 40 43 0 0 0
M  V30 BEGIN ATOM
M  V30 1 C 1.388631 -2.272745 1.995102 0
M  V30 2 C 1.671928 -3.445700 2.658801 0
M  V30 3 C 2.870413 -4.072614 2.364677 0
M  V30 4 N 3.430804 -5.210984 2.831931 0
M  V30 5 N 4.596245 -5.377904 2.229127 0
M  V30 6 C 4.817256 -4.371271 1.371955 0
M  V30 7 C 3.717082 -3.529211 1.451204 0
M  V30 8 C 3.389238 -2.351728 0.811836 0
M  V30 9 C 2.225294 -1.689995 1.059639 0
M  V30 10 C 1.802690 -0.444484 0.429796 0
M  V30 11 C 2.573714 0.200069 -0.508918 0
M  V30 12 N 2.090143 1.344022 -1.028377 0
M  V30 13 C 0.897095 1.835970 -0.641865 0
M  V30 14 C 0.116057 1.211846 0.288480 0
M  V30 15 N -1.155282 1.691015 0.734179 0
M  V30 16 C -1.640180 2.922533 0.199471 0
M  V30 17 C -2.484192 2.600464 -1.016480 0
M  V30 18 C -2.769529 1.113842 -1.091065 0
M  V30 19 N -3.599788 0.757914 0.013354 0
M  V30 20 C -2.927858 0.029702 1.070762 0
M  V30 21 C -1.822644 0.841474 1.702876 0
M  V30 22 N 0.620012 0.071735 0.792537 0
M  V30 23 H 0.430289 -1.813363 2.260320 0
M  V30 24 H 0.994815 -3.874410 3.385174 0
M  V30 25 H 3.011175 -5.841353 3.542940 0
M  V30 26 H 5.669862 -4.214126 0.730994 0
M  V30 27 H 4.070010 -1.932735 0.090037 0
M  V30 28 H 3.527633 -0.192449 -0.818407 0
M  V30 29 H 0.557904 2.756512 -1.092157 0
M  V30 30 H -0.885571 3.688518 -0.019064 0
M  V30 31 H -2.307519 3.395932 0.978532 0
M  V30 32 H -3.464856 3.112098 -0.932422 0
M  V30 33 H -2.013435 2.983202 -1.960548 0
M  V30 34 H -1.852689 0.510568 -1.215154 0
M  V30 35 H -3.374613 0.956118 -2.015938 0
M  V30 36 H -4.469811 0.256292 -0.206284 0
M  V30 37 H -3.692719 -0.154660 1.854065 0
M  V30 38 H -2.565602 -0.975432 0.746073 0
M  V30 39 H -1.070703 0.146944 2.124069 0
M  V30 40 H -2.167820 1.489950 2.534573 0
M  V30 END ATOM
M  V30 BEGIN BOND
M  V30 1 2 1 2
M  V30 2 1 2 3
M  V30 3 1 3 4
M  V30 4 1 4 5
M  V30 5 2 5 6
M  V30 6 1 6 7
M  V30 7 1 7 8
M  V30 8 2 8 9
M  V30 9 1 9 10
M  V30 10 2 10 11
M  V30 11 1 11 12
M  V30 12 2 12 13
M  V30 13 1 13 14
M  V30 14 1 14 15
M  V30 15 1 15 16
M  V30 16 1 16 17
M  V30 17 1 17 18
M  V30 18 1 18 19
M  V30 19 1 19 20
M  V30 20 1 20 21
M  V30 21 2 14 22
M  V30 22 1 9 1
M  V30 23 1 22 10
M  V30 24 2 7 3
M  V30 25 1 21 15
M  V30 26 1 1 23
M  V30 27 1 2 24
M  V30 28 1 4 25
M  V30 29 1 6 26
M  V30 30 1 8 27
M  V30 31 1 11 28
M  V30 32 1 13 29
M  V30 33 1 16 30
M  V30 34 1 16 31
M  V30 35 1 17 32
M  V30 36 1 17 33
M  V30 37 1 18 34
M  V30 38 1 18 35
M  V30 39 1 19 36
M  V30 40 1 20 37
M  V30 41 1 20 38
M  V30 42 1 21 39
M  V30 43 1 21 40
M  V30 END BOND
M  V30 END CTAB
M  END
>  <Dataset>  (876) 
ChEMBL_Kinases

>  <Ligand_Instance>  (876) 
nan

>  <PDB_ID>  (876) 
nan

>  <Standardized_SMILES>  (876) 
c1cc2[nH]ncc2cc1-c1cncc(N2CCCNCC2)n1

>  <Name>  (876) 
nan

>  <Pocket>  (876) 
nan

>  <ATP_Site>  (876) 
nan

>  <Peripheral>  (876) 
nan

>  <Num_H_Atoms_ProtBoundConf>  (876) 
nan

>  <Num_Resolved_Atoms>  (876) 
nan

>  <Num_Not_Resolved_Atoms>  (876) 
nan

$$$$
CHEMBL3238168
     RDKit          3D

  0  0  0  0  0  0  0  0  0  0999 V3000
M  V30 BEGIN CTAB
M  V30 COUNTS 43 46 0 0 0
M  V30 BEGIN ATOM
M  V30 1 C -0.413094 -3.866238 6.193345 0
M  V30 2 C 0.738336 -3.930972 5.253642 0
M  V30 3 N 1.787895 -4.767252 5.306794 0
M  V30 4 N 2.624308 -4.541715 4.305154 0
M  V30 5 C 2.112666 -3.529653 3.571850 0
M  V30 6 C 2.540323 -2.875680 2.429247 0
M  V30 7 C 1.755781 -1.851082 1.921946 0
M  V30 8 C 0.567167 -1.429371 2.476658 0
M  V30 9 C -0.171414 -0.339326 1.852194 0
M  V30 10 C -1.349013 0.139304 2.330573 0
M  V30 11 N -1.962768 1.159386 1.677931 0
M  V30 12 C -1.386009 1.675784 0.564838 0
M  V30 13 C -0.199808 1.213575 0.059649 0
M  V30 14 N 0.410641 1.745746 -1.101634 0
M  V30 15 C -0.259334 2.816988 -1.764796 0
M  V30 16 C -1.284947 2.225841 -2.709106 0
M  V30 17 C -0.731225 0.888316 -3.158463 0
M  V30 18 N 0.582616 1.122390 -3.685434 0
M  V30 19 C 1.637734 0.566558 -2.869301 0
M  V30 20 C 1.665330 1.116582 -1.471591 0
M  V30 21 N 0.366496 0.201337 0.744964 0
M  V30 22 C 0.161684 -2.093902 3.612061 0
M  V30 23 C 0.911883 -3.120454 4.151936 0
M  V30 24 H -0.684540 -4.913143 6.495343 0
M  V30 25 H -0.097760 -3.323277 7.117862 0
M  V30 26 H -1.255823 -3.333708 5.740862 0
M  V30 27 H 3.526731 -5.011664 4.059317 0
M  V30 28 H 3.465601 -3.155950 1.941242 0
M  V30 29 H 2.151934 -1.373378 1.013434 0
M  V30 30 H -1.795714 -0.278381 3.213430 0
M  V30 31 H -1.907840 2.470586 0.094797 0
M  V30 32 H 0.470560 3.374884 -2.421300 0
M  V30 33 H -0.695138 3.589423 -1.104521 0
M  V30 34 H -1.404963 2.858768 -3.614142 0
M  V30 35 H -2.275007 2.109893 -2.249264 0
M  V30 36 H -0.726790 0.210105 -2.276889 0
M  V30 37 H -1.426021 0.457612 -3.900396 0
M  V30 38 H 0.712716 0.721200 -4.640901 0
M  V30 39 H 2.598096 0.814008 -3.370773 0
M  V30 40 H 1.580496 -0.543336 -2.840634 0
M  V30 41 H 1.951724 0.314679 -0.758778 0
M  V30 42 H 2.437094 1.909277 -1.383126 0
M  V30 43 H -0.755636 -1.803143 4.080775 0
M  V30 END ATOM
M  V30 BEGIN BOND
M  V30 1 1 1 2
M  V30 2 2 2 3
M  V30 3 1 3 4
M  V30 4 1 4 5
M  V30 5 2 5 6
M  V30 6 1 6 7
M  V30 7 2 7 8
M  V30 8 1 8 9
M  V30 9 2 9 10
M  V30 10 1 10 11
M  V30 11 2 11 12
M  V30 12 1 12 13
M  V30 13 1 13 14
M  V30 14 1 14 15
M  V30 15 1 15 16
M  V30 16 1 16 17
M  V30 17 1 17 18
M  V30 18 1 18 19
M  V30 19 1 19 20
M  V30 20 2 13 21
M  V30 21 1 8 22
M  V30 22 2 22 23
M  V30 23 1 23 2
M  V30 24 1 23 5
M  V30 25 1 21 9
M  V30 26 1 20 14
M  V30 27 1 1 24
M  V30 28 1 1 25
M  V30 29 1 1 26
M  V30 30 1 4 27
M  V30 31 1 6 28
M  V30 32 1 7 29
M  V30 33 1 10 30
M  V30 34 1 12 31
M  V30 35 1 15 32
M  V30 36 1 15 33
M  V30 37 1 16 34
M  V30 38 1 16 35
M  V30 39 1 17 36
M  V30 40 1 17 37
M  V30 41 1 18 38
M  V30 42 1 19 39
M  V30 43 1 19 40
M  V30 44 1 20 41
M  V30 45 1 20 42
M  V30 46 1 22 43
M  V30 END BOND
M  V30 END CTAB
M  END
>  <Dataset>  (877) 
ChEMBL_Kinases

>  <Ligand_Instance>  (877) 
nan

>  <PDB_ID>  (877) 
nan

>  <Standardized_SMILES>  (877) 
Cc1n[nH]c2ccc(-c3cncc(N4CCCNCC4)n3)cc12

>  <Name>  (877) 
nan

>  <Pocket>  (877) 
nan

>  <ATP_Site>  (877) 
nan

>  <Peripheral>  (877) 
nan

>  <Num_H_Atoms_ProtBoundConf>  (877) 
nan

>  <Num_Resolved_Atoms>  (877) 
nan

>  <Num_Not_Resolved_Atoms>  (877) 
nan

$$$$
CHEMBL3675523
     RDKit          3D

  0  0  0  0  0  0  0  0  0  0999 V3000
M  V30 BEGIN CTAB
M  V30 COUNTS 49 50 0 0 0
M  V30 BEGIN ATOM
M  V30 1 N 0.852779 -5.327872 3.048701 0
M  V30 2 C 0.080437 -5.338924 1.839070 0
M  V30 3 O -0.476005 -6.454176 1.638202 0
M  V30 4 C -0.050766 -4.199719 0.938999 0
M  V30 5 C 0.534779 -2.987947 1.242430 0
M  V30 6 C 1.569090 -2.373643 0.584312 0
M  V30 7 C 2.137382 -1.557666 -0.336376 0
M  V30 8 C 1.526905 -0.756404 -1.249103 0
M  V30 9 C 0.280778 -0.300185 -1.608083 0
M  V30 10 N -0.384204 0.948792 -1.561915 0
M  V30 11 C -0.847646 1.816708 -0.495855 0 CFG=2
M  V30 12 C 0.207906 2.432559 0.308870 0
M  V30 13 N 1.128648 1.658000 1.009400 0
M  V30 14 C 2.046688 2.435689 1.773642 0
M  V30 15 C 3.105796 1.668850 2.492206 0
M  V30 16 S 4.161931 0.738274 1.326796 0
M  V30 17 C -1.943885 1.139509 0.209050 0
M  V30 18 C -2.923271 0.570779 -0.582970 0
M  V30 19 C -3.972436 -0.068348 0.014348 0
M  V30 20 C -4.054777 -0.147151 1.393195 0
M  V30 21 C -3.103506 0.403199 2.227467 0
M  V30 22 C -2.064230 1.038160 1.578664 0
M  V30 23 N -0.275179 -1.419982 -2.101201 0
M  V30 24 C -0.813598 -2.357866 -1.330224 0
M  V30 25 N -0.398973 -3.643947 -1.235233 0
M  V30 26 C -0.774217 -4.403110 -0.211878 0
M  V30 27 H 1.875483 -5.570033 2.943438 0
M  V30 28 H 0.667421 -5.134773 4.068982 0
M  V30 29 H 0.014938 -2.608793 2.112244 0
M  V30 30 H 2.220516 -2.930627 1.276685 0
M  V30 31 H 3.191020 -1.524738 -0.363060 0
M  V30 32 H 2.041494 -0.217893 -2.027688 0
M  V30 33 H -0.485312 1.144224 -2.588754 0
M  V30 34 H -1.364328 2.665624 -1.059172 0
M  V30 35 H -0.242415 3.155903 1.054655 0
M  V30 36 H 0.787579 3.128601 -0.368559 0
M  V30 37 H 0.989762 0.695225 1.233883 0
M  V30 38 H 2.545276 3.150890 1.077666 0
M  V30 39 H 1.506811 3.109633 2.496566 0
M  V30 40 H 2.709390 0.942846 3.231947 0
M  V30 41 H 3.771156 2.369615 3.036765 0
M  V30 42 H 5.101480 -0.043280 2.049151 0
M  V30 43 H -2.958994 0.576723 -1.679215 0
M  V30 44 H -4.772461 -0.536069 -0.569020 0
M  V30 45 H -4.898084 -0.665258 1.879074 0
M  V30 46 H -3.157661 0.346006 3.305277 0
M  V30 47 H -1.253007 1.509280 2.155919 0
M  V30 48 H -1.669244 -2.044285 -0.722229 0
M  V30 49 H -1.578351 -5.139852 -0.211469 0
M  V30 END ATOM
M  V30 BEGIN BOND
M  V30 1 1 1 2
M  V30 2 2 2 3
M  V30 3 1 2 4
M  V30 4 2 4 5
M  V30 5 1 5 6
M  V30 6 2 6 7
M  V30 7 1 7 8
M  V30 8 2 8 9
M  V30 9 1 9 10
M  V30 10 1 10 11
M  V30 11 1 11 12
M  V30 12 1 12 13
M  V30 13 1 13 14
M  V30 14 1 14 15
M  V30 15 1 15 16
M  V30 16 1 11 17
M  V30 17 2 17 18
M  V30 18 1 18 19
M  V30 19 2 19 20
M  V30 20 1 20 21
M  V30 21 2 21 22
M  V30 22 1 9 23
M  V30 23 2 23 24
M  V30 24 1 24 25
M  V30 25 2 25 26
M  V30 26 1 26 4
M  V30 27 1 22 17
M  V30 28 1 1 27
M  V30 29 1 1 28
M  V30 30 1 5 29
M  V30 31 1 6 30
M  V30 32 1 7 31
M  V30 33 1 8 32
M  V30 34 1 10 33
M  V30 35 1 11 34 CFG=3
M  V30 36 1 12 35
M  V30 37 1 12 36
M  V30 38 1 13 37
M  V30 39 1 14 38
M  V30 40 1 14 39
M  V30 41 1 15 40
M  V30 42 1 15 41
M  V30 43 1 16 42
M  V30 44 1 18 43
M  V30 45 1 19 44
M  V30 46 1 20 45
M  V30 47 1 21 46
M  V30 48 1 22 47
M  V30 49 1 24 48
M  V30 50 1 26 49
M  V30 END BOND
M  V30 END CTAB
M  END
>  <Dataset>  (878) 
ChEMBL_Kinases

>  <Ligand_Instance>  (878) 
nan

>  <PDB_ID>  (878) 
nan

>  <Standardized_SMILES>  (878) 
NC(=O)c1ccccc(N[C@H](CNCCS)c2ccccc2)ncnc1

>  <Name>  (878) 
nan

>  <Pocket>  (878) 
nan

>  <ATP_Site>  (878) 
nan

>  <Peripheral>  (878) 
nan

>  <Num_H_Atoms_ProtBoundConf>  (878) 
nan

>  <Num_Resolved_Atoms>  (878) 
nan

>  <Num_Not_Resolved_Atoms>  (878) 
nan

$$$$
CHEMBL3675522
     RDKit          3D

  0  0  0  0  0  0  0  0  0  0999 V3000
M  V30 BEGIN CTAB
M  V30 COUNTS 47 49 0 0 0
M  V30 BEGIN ATOM
M  V30 1 C -0.295304 -1.747685 5.429660 0
M  V30 2 N -0.977793 -2.075014 4.177700 0
M  V30 3 C -1.198982 -3.519759 4.231335 0
M  V30 4 C -0.065005 -1.724106 3.105342 0
M  V30 5 C -0.633038 -2.005195 1.767351 0
M  V30 6 N 0.236266 -1.698957 0.645777 0
M  V30 7 C 0.657982 -0.336458 0.443324 0
M  V30 8 N 0.231154 0.615838 1.289650 0
M  V30 9 C 0.627993 1.881998 1.085663 0
M  V30 10 N 1.445086 2.288014 0.069501 0
M  V30 11 C 1.893446 1.352978 -0.801609 0
M  V30 12 C 2.712826 1.683179 -1.840758 0
M  V30 13 C 3.102059 3.076556 -2.000526 0
M  V30 14 N 3.948884 3.561896 -3.034049 0
M  V30 15 O 2.655252 3.926346 -1.157344 0
M  V30 16 C 3.182097 0.748475 -2.739908 0
M  V30 17 C 2.782637 -0.577652 -2.548424 0
M  V30 18 O 3.235112 -1.549708 -3.434501 0
M  V30 19 C 1.953789 -0.867572 -1.485312 0
M  V30 20 C 1.478142 0.057624 -0.580168 0
M  V30 21 C -1.945329 -1.321667 1.624334 0
M  V30 22 C -2.398206 -1.615008 0.328441 0
M  V30 23 C -3.616104 -1.123923 -0.161628 0
M  V30 24 C -4.410364 -0.318729 0.653169 0
M  V30 25 C -3.945762 -0.044114 1.920490 0
M  V30 26 F -4.596385 0.724284 2.842231 0
M  V30 27 C -2.751669 -0.524070 2.404189 0
M  V30 28 H 0.799890 -1.844845 5.291892 0
M  V30 29 H -0.471483 -0.660034 5.594147 0
M  V30 30 H -0.642145 -2.389047 6.261092 0
M  V30 31 H -0.242274 -3.996639 3.927276 0
M  V30 32 H -2.049634 -3.838875 3.615812 0
M  V30 33 H -1.426070 -3.831189 5.278894 0
M  V30 34 H 0.186940 -0.653821 3.275370 0
M  V30 35 H 0.871176 -2.276001 3.327971 0
M  V30 36 H -0.862917 -3.090242 1.727226 0
M  V30 37 H 0.519603 -2.489243 0.029735 0
M  V30 38 H 0.286771 2.666620 1.768424 0
M  V30 39 H 4.929051 3.939025 -3.115776 0
M  V30 40 H 3.691336 3.633718 -4.044842 0
M  V30 41 H 3.827783 1.003363 -3.560103 0
M  V30 42 H 3.812555 -1.304501 -4.202219 0
M  V30 43 H 1.701270 -1.912666 -1.418509 0
M  V30 44 H -1.949962 -2.213991 -0.469503 0
M  V30 45 H -4.045293 -1.292950 -1.134351 0
M  V30 46 H -5.362710 0.108302 0.370585 0
M  V30 47 H -2.292587 -0.368830 3.364547 0
M  V30 END ATOM
M  V30 BEGIN BOND
M  V30 1 1 1 2
M  V30 2 1 2 3
M  V30 3 1 2 4
M  V30 4 1 4 5
M  V30 5 1 5 6
M  V30 6 1 6 7
M  V30 7 2 7 8
M  V30 8 1 8 9
M  V30 9 2 9 10
M  V30 10 1 10 11
M  V30 11 2 11 12
M  V30 12 1 12 13
M  V30 13 1 13 14
M  V30 14 2 13 15
M  V30 15 1 12 16
M  V30 16 2 16 17
M  V30 17 1 17 18
M  V30 18 1 17 19
M  V30 19 2 19 20
M  V30 20 1 5 21
M  V30 21 2 21 22
M  V30 22 1 22 23
M  V30 23 2 23 24
M  V30 24 1 24 25
M  V30 25 1 25 26
M  V30 26 2 25 27
M  V30 27 1 20 7
M  V30 28 1 27 21
M  V30 29 1 20 11
M  V30 30 1 1 28
M  V30 31 1 1 29
M  V30 32 1 1 30
M  V30 33 1 3 31
M  V30 34 1 3 32
M  V30 35 1 3 33
M  V30 36 1 4 34
M  V30 37 1 4 35
M  V30 38 1 5 36
M  V30 39 1 6 37
M  V30 40 1 9 38
M  V30 41 1 14 39
M  V30 42 1 14 40
M  V30 43 1 16 41
M  V30 44 1 18 42
M  V30 45 1 19 43
M  V30 46 1 22 44
M  V30 47 1 23 45
M  V30 48 1 24 46
M  V30 49 1 27 47
M  V30 END BOND
M  V30 END CTAB
M  END
>  <Dataset>  (879) 
ChEMBL_Kinases

>  <Ligand_Instance>  (879) 
nan

>  <PDB_ID>  (879) 
nan

>  <Standardized_SMILES>  (879) 
CN(C)CC(Nc1ncnc2c(C(N)=O)cc(O)cc12)c1cccc(F)c1

>  <Name>  (879) 
nan

>  <Pocket>  (879) 
nan

>  <ATP_Site>  (879) 
nan

>  <Peripheral>  (879) 
nan

>  <Num_H_Atoms_ProtBoundConf>  (879) 
nan

>  <Num_Resolved_Atoms>  (879) 
nan

>  <Num_Not_Resolved_Atoms>  (879) 
nan

$$$$
CHEMBL4213970
     RDKit          3D

  0  0  0  0  0  0  0  0  0  0999 V3000
M  V30 BEGIN CTAB
M  V30 COUNTS 91 97 0 0 0
M  V30 BEGIN ATOM
M  V30 1 C -2.062683 2.518539 0.720836 0
M  V30 2 S -0.929959 1.410555 -0.155174 0
M  V30 3 C 0.721619 1.612657 0.620820 0 CFG=1
M  V30 4 C 0.633566 1.106328 1.990000 0
M  V30 5 O -0.445317 0.575099 2.410520 0
M  V30 6 N 1.669959 1.142759 2.947819 0
M  V30 7 C 1.743325 0.696359 4.290590 0
M  V30 8 C 2.915941 0.876958 4.996612 0
M  V30 9 C 3.077766 0.467995 6.294252 0
M  V30 10 C 2.045444 -0.156914 6.961309 0
M  V30 11 N 1.921993 -0.660021 8.213507 0
M  V30 12 N 0.684131 -1.162555 8.324343 0
M  V30 13 C 0.001371 -0.997898 7.175374 0
M  V30 14 C -1.366537 -1.414711 6.901637 0
M  V30 15 C -2.295757 -0.577850 6.284105 0
M  V30 16 C -3.595781 -1.023701 6.037522 0
M  V30 17 C -3.980715 -2.311610 6.405943 0
M  V30 18 O -5.301462 -2.617163 6.099772 0
M  V30 19 C -5.773751 -3.915817 6.433068 0
M  V30 20 C -6.810413 -3.759419 7.545942 0
M  V30 21 C -6.394266 -4.493175 5.181018 0
M  V30 22 N -3.078420 -3.138315 7.011056 0
M  V30 23 C -1.826186 -2.681151 7.238027 0
M  V30 24 C 0.841841 -0.359539 6.285815 0
M  V30 25 C 0.764923 0.078335 4.995775 0
M  V30 26 C 1.805463 0.935434 -0.189419 0
M  V30 27 C 2.764443 2.038754 -0.482912 0
M  V30 28 N 1.886936 3.163565 -0.677425 0
M  V30 29 C 1.166321 3.110779 -1.919621 0
M  V30 30 C 2.057734 3.291819 -3.102443 0
M  V30 31 O 3.319379 3.490075 -3.025123 0
M  V30 32 N 1.371669 3.222578 -4.365763 0
M  V30 33 C -0.071902 2.996833 -4.545044 0
M  V30 34 C -0.130888 1.600192 -5.096101 0
M  V30 35 C 0.796372 1.270529 -5.993128 0
M  V30 36 C 0.737098 -0.085565 -6.525829 0
M  V30 37 C -0.183243 -1.045394 -6.173914 0
M  V30 38 C -0.240907 -2.328909 -6.674836 0
M  V30 39 C 0.697681 -2.701507 -7.611294 0
M  V30 40 C 0.614467 -4.071899 -8.126912 0
M  V30 41 N -0.125965 -4.766547 -9.006585 0
M  V30 42 C 0.312651 -6.037767 -9.025404 0
M  V30 43 N 1.343037 -6.133620 -8.142128 0
M  V30 44 C 2.074732 -7.361565 -7.887508 0
M  V30 45 N 1.518350 -4.952743 -7.607433 0
M  V30 46 C 1.653964 -1.796817 -8.016539 0
M  V30 47 C 1.650875 -0.522686 -7.469333 0
M  V30 48 C 1.859873 2.161576 -6.480207 0
M  V30 49 C 2.091229 3.365910 -5.616928 0
M  V30 50 C 1.035059 3.082111 0.494012 0
M  V30 51 H -2.697310 1.969402 1.451059 0
M  V30 52 H -2.699600 3.092375 -0.005807 0
M  V30 53 H -1.532602 3.292019 1.307650 0
M  V30 54 H 2.538711 1.600511 2.539572 0
M  V30 55 H 3.776132 1.367256 4.524262 0
M  V30 56 H 4.020251 0.636523 6.796410 0
M  V30 57 H 2.672294 -0.652807 8.960713 0
M  V30 58 H -2.017047 0.415721 5.994635 0
M  V30 59 H -4.269926 -0.324339 5.554673 0
M  V30 60 H -4.984213 -4.563009 6.875429 0
M  V30 61 H -7.564672 -4.582046 7.505759 0
M  V30 62 H -6.294132 -3.820668 8.537945 0
M  V30 63 H -7.357209 -2.812469 7.481211 0
M  V30 64 H -5.582781 -4.803954 4.509454 0
M  V30 65 H -7.114198 -5.305815 5.406149 0
M  V30 66 H -6.913640 -3.629946 4.672246 0
M  V30 67 H -1.173752 -3.396082 7.720154 0
M  V30 68 H -0.181332 -0.110481 4.546080 0
M  V30 69 H 1.399686 0.411243 -1.076209 0
M  V30 70 H 2.317597 0.168828 0.426822 0
M  V30 71 H 3.464784 1.841183 -1.311626 0
M  V30 72 H 3.382240 2.237994 0.407792 0
M  V30 73 H 0.441577 3.947960 -1.935457 0
M  V30 74 H 0.579571 2.173945 -2.018359 0
M  V30 75 H -0.400279 3.667571 -5.360979 0
M  V30 76 H -0.622430 3.127125 -3.617354 0
M  V30 77 H -0.922997 1.018187 -4.699770 0
M  V30 78 H -0.943701 -0.817234 -5.446003 0
M  V30 79 H -0.989374 -3.033422 -6.356739 0
M  V30 80 H -0.085497 -6.831555 -9.632317 0
M  V30 81 H 3.151664 -7.211791 -7.732398 0
M  V30 82 H 1.654425 -7.802150 -6.948836 0
M  V30 83 H 1.866055 -8.113849 -8.671082 0
M  V30 84 H 2.380535 -2.118712 -8.755828 0
M  V30 85 H 2.430341 0.099635 -7.850318 0
M  V30 86 H 1.641615 2.508791 -7.534245 0
M  V30 87 H 2.851174 1.625062 -6.585031 0
M  V30 88 H 1.696324 4.279261 -6.134719 0
M  V30 89 H 3.172648 3.526832 -5.392552 0
M  V30 90 H 0.162493 3.719035 0.275349 0
M  V30 91 H 1.534436 3.487981 1.395812 0
M  V30 END ATOM
M  V30 BEGIN BOND
M  V30 1 1 1 2
M  V30 2 1 3 2 CFG=3
M  V30 3 1 3 4
M  V30 4 2 4 5
M  V30 5 1 4 6
M  V30 6 1 6 7
M  V30 7 2 7 8
M  V30 8 1 8 9
M  V30 9 2 9 10
M  V30 10 1 10 11
M  V30 11 1 11 12
M  V30 12 2 12 13
M  V30 13 1 13 14
M  V30 14 2 14 15
M  V30 15 1 15 16
M  V30 16 2 16 17
M  V30 17 1 17 18
M  V30 18 1 18 19
M  V30 19 1 19 20
M  V30 20 1 19 21
M  V30 21 1 17 22
M  V30 22 2 22 23
M  V30 23 1 13 24
M  V30 24 2 24 25
M  V30 25 1 3 26
M  V30 26 1 26 27
M  V30 27 1 27 28
M  V30 28 1 28 29
M  V30 29 1 29 30
M  V30 30 2 30 31
M  V30 31 1 30 32
M  V30 32 1 32 33
M  V30 33 1 33 34
M  V30 34 2 34 35
M  V30 35 1 35 36
M  V30 36 2 36 37
M  V30 37 1 37 38
M  V30 38 2 38 39
M  V30 39 1 39 40
M  V30 40 1 40 41
M  V30 41 2 41 42
M  V30 42 1 42 43
M  V30 43 1 43 44
M  V30 44 1 43 45
M  V30 45 1 39 46
M  V30 46 2 46 47
M  V30 47 1 35 48
M  V30 48 1 48 49
M  V30 49 1 28 50
M  V30 50 1 50 3
M  V30 51 1 25 7
M  V30 52 1 49 32
M  V30 53 1 24 10
M  V30 54 1 47 36
M  V30 55 1 23 14
M  V30 56 2 45 40
M  V30 57 1 1 51
M  V30 58 1 1 52
M  V30 59 1 1 53
M  V30 60 1 6 54
M  V30 61 1 8 55
M  V30 62 1 9 56
M  V30 63 1 11 57
M  V30 64 1 15 58
M  V30 65 1 16 59
M  V30 66 1 19 60
M  V30 67 1 20 61
M  V30 68 1 20 62
M  V30 69 1 20 63
M  V30 70 1 21 64
M  V30 71 1 21 65
M  V30 72 1 21 66
M  V30 73 1 23 67
M  V30 74 1 25 68
M  V30 75 1 26 69
M  V30 76 1 26 70
M  V30 77 1 27 71
M  V30 78 1 27 72
M  V30 79 1 29 73
M  V30 80 1 29 74
M  V30 81 1 33 75
M  V30 82 1 33 76
M  V30 83 1 34 77
M  V30 84 1 37 78
M  V30 85 1 38 79
M  V30 86 1 42 80
M  V30 87 1 44 81
M  V30 88 1 44 82
M  V30 89 1 44 83
M  V30 90 1 46 84
M  V30 91 1 47 85
M  V30 92 1 48 86
M  V30 93 1 48 87
M  V30 94 1 49 88
M  V30 95 1 49 89
M  V30 96 1 50 90
M  V30 97 1 50 91
M  V30 END BOND
M  V30 END CTAB
M  END
>  <Dataset>  (880) 
ChEMBL_Kinases

>  <Ligand_Instance>  (880) 
nan

>  <PDB_ID>  (880) 
nan

>  <Standardized_SMILES>  (880) 
CS[C@@]1(C(=O)Nc2ccc3[nH]nc(-c4ccc(OC(C)C)nc4)c3c2)CCN(CC(=O)N2CC=C(c3ccc(-c4ncn(C)n4)cc3)CC2)C1

>  <Name>  (880) 
MK-8353

>  <Pocket>  (880) 
nan

>  <ATP_Site>  (880) 
nan

>  <Peripheral>  (880) 
nan

>  <Num_H_Atoms_ProtBoundConf>  (880) 
nan

>  <Num_Resolved_Atoms>  (880) 
nan

>  <Num_Not_Resolved_Atoms>  (880) 
nan

$$$$
CHEMBL3260566
     RDKit          3D

  0  0  0  0  0  0  0  0  0  0999 V3000
M  V30 BEGIN CTAB
M  V30 COUNTS 48 52 0 0 0
M  V30 BEGIN ATOM
M  V30 1 C -0.658200 -1.992495 4.773949 0
M  V30 2 C 0.333879 -2.247167 3.694484 0
M  V30 3 C 1.421852 -3.096274 3.928099 0
M  V30 4 C 2.343285 -3.333021 2.926453 0
M  V30 5 C 2.220531 -2.746695 1.680266 0
M  V30 6 C 1.137604 -1.913623 1.477789 0
M  V30 7 C 0.773022 -1.174263 0.267483 0
M  V30 8 N 1.591022 -0.244208 -0.252880 0
M  V30 9 C 1.072873 0.312592 -1.355846 0
M  V30 10 C 1.386472 1.345273 -2.376373 0
M  V30 11 N 0.767603 2.580429 -1.950975 0
M  V30 12 C 1.017990 3.420266 -0.866098 0
M  V30 13 C 2.000122 3.252491 0.083669 0
M  V30 14 C 2.243245 4.074838 1.159827 0
M  V30 15 C 1.417784 5.168238 1.288225 0
M  V30 16 C 0.413174 5.401349 0.376012 0
M  V30 17 C 0.230649 4.534347 -0.674701 0
M  V30 18 N -0.135866 -0.301378 -1.538258 0
M  V30 19 C -0.329064 -1.203922 -0.561491 0
M  V30 20 C -1.444172 -2.109818 -0.304069 0
M  V30 21 C -2.703201 -1.605115 -0.066302 0
M  V30 22 C -3.730680 -2.496339 0.173287 0
M  V30 23 C -3.382245 -3.835127 0.149530 0
M  V30 24 N -4.203442 -4.892435 0.353339 0
M  V30 25 C -3.472730 -6.018003 0.244790 0
M  V30 26 N -2.204617 -5.650312 -0.025392 0
M  V30 27 N -2.150090 -4.324802 -0.083205 0
M  V30 28 C -1.148152 -3.456367 -0.316943 0
M  V30 29 N 0.264572 -1.711920 2.483183 0
M  V30 30 H -0.220456 -1.381010 5.598283 0
M  V30 31 H -1.447798 -1.334105 4.308120 0
M  V30 32 H -1.182675 -2.884283 5.116973 0
M  V30 33 H 1.552840 -3.575402 4.893033 0
M  V30 34 H 3.215999 -3.987409 3.046854 0
M  V30 35 H 2.856169 -2.845287 0.828955 0
M  V30 36 H 2.508888 0.078093 0.055143 0
M  V30 37 H 2.491761 1.518037 -2.278973 0
M  V30 38 H 1.117437 1.043125 -3.390853 0
M  V30 39 H -0.012274 2.860209 -2.610785 0
M  V30 40 H 2.658469 2.413318 -0.000998 0
M  V30 41 H 3.024814 3.898645 1.874291 0
M  V30 42 H 1.515299 5.881176 2.092007 0
M  V30 43 H -0.231689 6.264758 0.485347 0
M  V30 44 H -0.572184 4.767077 -1.358539 0
M  V30 45 H -2.892814 -0.537612 -0.065041 0
M  V30 46 H -4.745894 -2.186410 0.368086 0
M  V30 47 H -3.797270 -7.049831 0.347207 0
M  V30 48 H -0.167815 -3.846841 -0.502236 0
M  V30 END ATOM
M  V30 BEGIN BOND
M  V30 1 1 1 2
M  V30 2 2 2 3
M  V30 3 1 3 4
M  V30 4 2 4 5
M  V30 5 1 5 6
M  V30 6 1 6 7
M  V30 7 1 7 8
M  V30 8 1 8 9
M  V30 9 1 9 10
M  V30 10 1 10 11
M  V30 11 1 11 12
M  V30 12 2 12 13
M  V30 13 1 13 14
M  V30 14 2 14 15
M  V30 15 1 15 16
M  V30 16 2 16 17
M  V30 17 2 9 18
M  V30 18 1 18 19
M  V30 19 1 19 20
M  V30 20 1 20 21
M  V30 21 2 21 22
M  V30 22 1 22 23
M  V30 23 2 23 24
M  V30 24 1 24 25
M  V30 25 2 25 26
M  V30 26 1 26 27
M  V30 27 1 27 28
M  V30 28 2 6 29
M  V30 29 1 29 2
M  V30 30 2 19 7
M  V30 31 2 28 20
M  V30 32 1 17 12
M  V30 33 1 27 23
M  V30 34 1 1 30
M  V30 35 1 1 31
M  V30 36 1 1 32
M  V30 37 1 3 33
M  V30 38 1 4 34
M  V30 39 1 5 35
M  V30 40 1 8 36
M  V30 41 1 10 37
M  V30 42 1 10 38
M  V30 43 1 11 39
M  V30 44 1 13 40
M  V30 45 1 14 41
M  V30 46 1 15 42
M  V30 47 1 16 43
M  V30 48 1 17 44
M  V30 49 1 21 45
M  V30 50 1 22 46
M  V30 51 1 25 47
M  V30 52 1 28 48
M  V30 END BOND
M  V30 END CTAB
M  END
>  <Dataset>  (881) 
ChEMBL_Kinases

>  <Ligand_Instance>  (881) 
nan

>  <PDB_ID>  (881) 
nan

>  <Standardized_SMILES>  (881) 
Cc1cccc(-c2[nH]c(CNc3ccccc3)nc2-c2ccc3ncnn3c2)n1

>  <Name>  (881) 
nan

>  <Pocket>  (881) 
nan

>  <ATP_Site>  (881) 
nan

>  <Peripheral>  (881) 
nan

>  <Num_H_Atoms_ProtBoundConf>  (881) 
nan

>  <Num_Resolved_Atoms>  (881) 
nan

>  <Num_Not_Resolved_Atoms>  (881) 
nan

$$$$
CHEMBL4213833
     RDKit          3D

  0  0  0  0  0  0  0  0  0  0999 V3000
M  V30 BEGIN CTAB
M  V30 COUNTS 58 63 0 0 0
M  V30 BEGIN ATOM
M  V30 1 C 5.872198 -3.658943 4.654688 0
M  V30 2 O 4.818364 -2.775190 4.981126 0
M  V30 3 C 4.223050 -1.935222 4.049379 0
M  V30 4 C 3.215159 -1.157467 4.581481 0
M  V30 5 C 2.535545 -0.270771 3.754195 0
M  V30 6 C 2.849579 -0.149088 2.396551 0
M  V30 7 N 2.384754 0.598005 1.371148 0
M  V30 8 C 3.090187 0.283438 0.247211 0
M  V30 9 C 2.976915 0.808810 -1.124804 0
M  V30 10 N 2.077361 0.109258 -1.979439 0
M  V30 11 C 0.698085 -0.043535 -1.737870 0
M  V30 12 N 0.139842 0.490500 -0.635849 0
M  V30 13 C -1.181544 0.365807 -0.369048 0
M  V30 14 N -1.806901 0.916269 0.785506 0
M  V30 15 C -3.220575 0.795132 1.080054 0
M  V30 16 C -3.360788 0.776324 2.588280 0
M  V30 17 N -2.261485 0.041552 3.150971 0
M  V30 18 C -1.000883 0.731926 3.017437 0
M  V30 19 C -1.128989 1.669194 1.823744 0
M  V30 20 N -1.994205 -0.305110 -1.206936 0
M  V30 21 C -1.529222 -0.871055 -2.329076 0
M  V30 22 C -0.180714 -0.733124 -2.583352 0
M  V30 23 N 0.095972 -1.353846 -3.729925 0
M  V30 24 C -1.045137 -1.882205 -4.208893 0
M  V30 25 N -2.045320 -1.586089 -3.348431 0
M  V30 26 C -3.438283 -1.945774 -3.452043 0
M  V30 27 C -4.364595 -1.002417 -3.044838 0
M  V30 28 C -5.734109 -1.252285 -3.104896 0
M  V30 29 C -6.136472 -2.484383 -3.589026 0
M  V30 30 N -5.221197 -3.406797 -3.987472 0
M  V30 31 C -3.897601 -3.167292 -3.930221 0
M  V30 32 N 3.979565 -0.666748 0.640998 0
M  V30 33 C 3.865639 -0.960736 1.950436 0
M  V30 34 C 4.565733 -1.853482 2.734977 0
M  V30 35 H 6.809315 -3.119472 4.459120 0
M  V30 36 H 5.531864 -4.282718 3.776479 0
M  V30 37 H 6.001279 -4.400713 5.469139 0
M  V30 38 H 2.899035 -1.178752 5.616906 0
M  V30 39 H 1.744428 0.343756 4.159587 0
M  V30 40 H 2.665549 1.874454 -1.122945 0
M  V30 41 H 4.003887 0.783592 -1.570444 0
M  V30 42 H 2.419186 -0.346030 -2.871370 0
M  V30 43 H -3.716638 1.744799 0.740437 0
M  V30 44 H -3.684965 -0.093122 0.608409 0
M  V30 45 H -4.310957 0.315367 2.915114 0
M  V30 46 H -3.352018 1.834381 2.968953 0
M  V30 47 H -2.366229 -0.227756 4.135773 0
M  V30 48 H -0.712422 1.249830 3.930820 0
M  V30 49 H -0.174863 0.017781 2.758709 0
M  V30 50 H -0.105092 1.880287 1.482832 0
M  V30 51 H -1.624995 2.613585 2.082339 0
M  V30 52 H -1.169352 -2.446917 -5.116307 0
M  V30 53 H -4.130371 -0.019766 -2.656170 0
M  V30 54 H -6.492952 -0.533574 -2.793136 0
M  V30 55 H -7.214170 -2.684132 -3.637489 0
M  V30 56 H -3.153947 -3.888045 -4.242357 0
M  V30 57 H 4.676807 -1.116073 -0.017124 0
M  V30 58 H 5.362301 -2.483273 2.363925 0
M  V30 END ATOM
M  V30 BEGIN BOND
M  V30 1 1 1 2
M  V30 2 1 2 3
M  V30 3 2 3 4
M  V30 4 1 4 5
M  V30 5 2 5 6
M  V30 6 1 6 7
M  V30 7 2 7 8
M  V30 8 1 8 9
M  V30 9 1 9 10
M  V30 10 1 10 11
M  V30 11 2 11 12
M  V30 12 1 12 13
M  V30 13 1 13 14
M  V30 14 1 14 15
M  V30 15 1 15 16
M  V30 16 1 16 17
M  V30 17 1 17 18
M  V30 18 1 18 19
M  V30 19 2 13 20
M  V30 20 1 20 21
M  V30 21 2 21 22
M  V30 22 1 22 23
M  V30 23 2 23 24
M  V30 24 1 24 25
M  V30 25 1 25 26
M  V30 26 2 26 27
M  V30 27 1 27 28
M  V30 28 2 28 29
M  V30 29 1 29 30
M  V30 30 2 30 31
M  V30 31 1 8 32
M  V30 32 1 32 33
M  V30 33 2 33 34
M  V30 34 1 34 3
M  V30 35 1 33 6
M  V30 36 1 22 11
M  V30 37 1 31 26
M  V30 38 1 19 14
M  V30 39 1 25 21
M  V30 40 1 1 35
M  V30 41 1 1 36
M  V30 42 1 1 37
M  V30 43 1 4 38
M  V30 44 1 5 39
M  V30 45 1 9 40
M  V30 46 1 9 41
M  V30 47 1 10 42
M  V30 48 1 15 43
M  V30 49 1 15 44
M  V30 50 1 16 45
M  V30 51 1 16 46
M  V30 52 1 17 47
M  V30 53 1 18 48
M  V30 54 1 18 49
M  V30 55 1 19 50
M  V30 56 1 19 51
M  V30 57 1 24 52
M  V30 58 1 27 53
M  V30 59 1 28 54
M  V30 60 1 29 55
M  V30 61 1 31 56
M  V30 62 1 32 57
M  V30 63 1 34 58
M  V30 END BOND
M  V30 END CTAB
M  END
>  <Dataset>  (882) 
ChEMBL_Kinases

>  <Ligand_Instance>  (882) 
nan

>  <PDB_ID>  (882) 
nan

>  <Standardized_SMILES>  (882) 
COc1ccc2nc(CNc3nc(N4CCNCC4)nc4c3ncn4-c3cccnc3)[nH]c2c1

>  <Name>  (882) 
nan

>  <Pocket>  (882) 
nan

>  <ATP_Site>  (882) 
nan

>  <Peripheral>  (882) 
nan

>  <Num_H_Atoms_ProtBoundConf>  (882) 
nan

>  <Num_Resolved_Atoms>  (882) 
nan

>  <Num_Not_Resolved_Atoms>  (882) 
nan

$$$$
CHEMBL3675521
     RDKit          3D

  0  0  0  0  0  0  0  0  0  0999 V3000
M  V30 BEGIN CTAB
M  V30 COUNTS 72 75 0 0 0
M  V30 BEGIN ATOM
M  V30 1 C -0.759568 -0.684445 3.545789 0
M  V30 2 N 0.371476 -0.924523 2.670770 0
M  V30 3 C 0.425534 -1.983582 1.711999 0
M  V30 4 C -0.116364 -1.642020 0.344321 0
M  V30 5 N 0.556749 -0.562184 -0.307960 0
M  V30 6 C 1.766393 -0.071976 -0.817227 0
M  V30 7 N 2.733139 -0.989370 -0.652058 0
M  V30 8 C 4.009713 -0.755680 -1.075424 0
M  V30 9 N 4.252526 0.428377 -1.662105 0
M  V30 10 C 3.293779 1.345899 -1.829203 0
M  V30 11 C 3.492231 2.581107 -2.422620 0
M  V30 12 C 4.837771 2.893745 -2.898908 0
M  V30 13 N 5.110647 4.168486 -3.515970 0
M  V30 14 O 5.773029 2.038124 -2.770471 0
M  V30 15 C 2.494365 3.533918 -2.591539 0
M  V30 16 C 1.250167 3.209977 -2.136396 0
M  V30 17 C 0.939911 2.017455 -1.533676 0
M  V30 18 C 1.994608 1.148035 -1.415816 0
M  V30 19 C -1.591152 -1.588396 0.314998 0
M  V30 20 C -2.199014 -0.363923 0.612382 0
M  V30 21 C -3.575367 -0.298453 0.580885 0
M  V30 22 C -4.409290 -1.354287 0.277253 0
M  V30 23 C -3.794449 -2.572489 -0.017987 0
M  V30 24 N -4.457819 -3.764112 -0.355863 0
M  V30 25 C -4.807173 -4.209169 -1.641064 0
M  V30 26 O -4.439055 -3.374377 -2.527808 0
M  V30 27 C -5.494376 -5.450000 -1.974343 0
M  V30 28 C -5.982325 -6.429787 -1.141918 0
M  V30 29 F -5.816135 -6.223699 0.168273 0
M  V30 30 C -6.613110 -7.570977 -1.574069 0
M  V30 31 C -6.796379 -7.800605 -2.942113 0
M  V30 32 C -6.305459 -6.815497 -3.771374 0
M  V30 33 C -5.674026 -5.672284 -3.341645 0
M  V30 34 F -5.242678 -4.785516 -4.298591 0
M  V30 35 C -2.426219 -2.647160 0.010759 0
M  V30 36 C 1.444524 -0.010722 2.840131 0
M  V30 37 O 2.550868 0.105218 2.293788 0
M  V30 38 O 1.485891 1.026511 3.722728 0
M  V30 39 C 2.523435 1.948675 3.918877 0
M  V30 40 C 3.834545 1.308158 4.329437 0
M  V30 41 C 2.076707 2.852796 5.062763 0
M  V30 42 C 2.677007 2.748753 2.667803 0
M  V30 43 H -0.325015 -0.564405 4.579384 0
M  V30 44 H -1.218003 0.291964 3.282257 0
M  V30 45 H -1.497830 -1.483396 3.574093 0
M  V30 46 H -0.075374 -2.880083 2.133454 0
M  V30 47 H 1.485984 -2.330117 1.526262 0
M  V30 48 H 0.147333 -2.563450 -0.278721 0
M  V30 49 H -0.196033 0.135956 -0.445195 0
M  V30 50 H 4.872556 -1.398229 -1.007325 0
M  V30 51 H 6.105884 4.380324 -3.733415 0
M  V30 52 H 6.106395 4.408566 -3.746786 0
M  V30 53 H 2.756611 4.463744 -3.065189 0
M  V30 54 H 0.493235 3.963719 -2.277774 0
M  V30 55 H -0.068360 1.845127 -1.207865 0
M  V30 56 H -1.692729 0.547798 0.867850 0
M  V30 57 H -4.082002 0.632622 0.805959 0
M  V30 58 H -5.486330 -1.320420 0.248055 0
M  V30 59 H -4.688406 -4.334997 0.479780 0
M  V30 60 H -6.962070 -8.280786 -0.838923 0
M  V30 61 H -7.291413 -8.697000 -3.283045 0
M  V30 62 H -6.440496 -6.984800 -4.831225 0
M  V30 63 H -1.852567 -3.542211 -0.197439 0
M  V30 64 H 4.381987 0.862900 3.488709 0
M  V30 65 H 4.484274 2.160874 4.682986 0
M  V30 66 H 3.722892 0.648462 5.197250 0
M  V30 67 H 2.245240 3.928595 4.798231 0
M  V30 68 H 2.608428 2.578444 6.000293 0
M  V30 69 H 0.959393 2.771746 5.217690 0
M  V30 70 H 2.205272 3.759286 2.841066 0
M  V30 71 H 2.067876 2.329186 1.825037 0
M  V30 72 H 3.720479 2.942448 2.378373 0
M  V30 END ATOM
M  V30 BEGIN BOND
M  V30 1 1 1 2
M  V30 2 1 2 3
M  V30 3 1 3 4
M  V30 4 1 4 5
M  V30 5 1 5 6
M  V30 6 2 6 7
M  V30 7 1 7 8
M  V30 8 2 8 9
M  V30 9 1 9 10
M  V30 10 2 10 11
M  V30 11 1 11 12
M  V30 12 1 12 13
M  V30 13 2 12 14
M  V30 14 1 11 15
M  V30 15 2 15 16
M  V30 16 1 16 17
M  V30 17 2 17 18
M  V30 18 1 4 19
M  V30 19 2 19 20
M  V30 20 1 20 21
M  V30 21 2 21 22
M  V30 22 1 22 23
M  V30 23 1 23 24
M  V30 24 1 24 25
M  V30 25 2 25 26
M  V30 26 1 25 27
M  V30 27 2 27 28
M  V30 28 1 28 29
M  V30 29 1 28 30
M  V30 30 2 30 31
M  V30 31 1 31 32
M  V30 32 2 32 33
M  V30 33 1 33 34
M  V30 34 2 23 35
M  V30 35 1 2 36
M  V30 36 2 36 37
M  V30 37 1 36 38
M  V30 38 1 38 39
M  V30 39 1 39 40
M  V30 40 1 39 41
M  V30 41 1 39 42
M  V30 42 1 18 6
M  V30 43 1 35 19
M  V30 44 1 18 10
M  V30 45 1 33 27
M  V30 46 1 1 43
M  V30 47 1 1 44
M  V30 48 1 1 45
M  V30 49 1 3 46
M  V30 50 1 3 47
M  V30 51 1 4 48
M  V30 52 1 5 49
M  V30 53 1 8 50
M  V30 54 1 13 51
M  V30 55 1 13 52
M  V30 56 1 15 53
M  V30 57 1 16 54
M  V30 58 1 17 55
M  V30 59 1 20 56
M  V30 60 1 21 57
M  V30 61 1 22 58
M  V30 62 1 24 59
M  V30 63 1 30 60
M  V30 64 1 31 61
M  V30 65 1 32 62
M  V30 66 1 35 63
M  V30 67 1 40 64
M  V30 68 1 40 65
M  V30 69 1 40 66
M  V30 70 1 41 67
M  V30 71 1 41 68
M  V30 72 1 41 69
M  V30 73 1 42 70
M  V30 74 1 42 71
M  V30 75 1 42 72
M  V30 END BOND
M  V30 END CTAB
M  END
>  <Dataset>  (883) 
ChEMBL_Kinases

>  <Ligand_Instance>  (883) 
nan

>  <PDB_ID>  (883) 
nan

>  <Standardized_SMILES>  (883) 
CN(CC(Nc1ncnc2c(C(N)=O)cccc12)c1cccc(NC(=O)c2c(F)cccc2F)c1)C(=O)OC(C)(C)C

>  <Name>  (883) 
nan

>  <Pocket>  (883) 
nan

>  <ATP_Site>  (883) 
nan

>  <Peripheral>  (883) 
nan

>  <Num_H_Atoms_ProtBoundConf>  (883) 
nan

>  <Num_Resolved_Atoms>  (883) 
nan

>  <Num_Not_Resolved_Atoms>  (883) 
nan

$$$$
CHEMBL4213819
     RDKit          3D

  0  0  0  0  0  0  0  0  0  0999 V3000
M  V30 BEGIN CTAB
M  V30 COUNTS 50 54 0 0 0
M  V30 BEGIN ATOM
M  V30 1 N 4.928235 -5.454338 1.059332 0
M  V30 2 C 4.756418 -4.475331 0.442653 0
M  V30 3 C 4.535313 -3.252389 -0.302549 0
M  V30 4 C 4.270601 -2.064166 0.291577 0
M  V30 5 C 4.038377 -0.838561 -0.232292 0
M  V30 6 C 4.081733 -0.808886 -1.644358 0
M  V30 7 C 3.832212 0.414735 -2.395408 0
M  V30 8 C 4.516970 1.086670 -3.407102 0
M  V30 9 N 3.796732 2.185023 -3.770548 0
M  V30 10 C 2.680090 2.165759 -2.976977 0
M  V30 11 C 1.647979 3.058950 -2.986985 0
M  V30 12 N 0.838857 2.658915 -2.128845 0
M  V30 13 C 0.327619 1.986138 -1.255458 0
M  V30 14 C -0.280821 1.180687 -0.211483 0
M  V30 15 C -0.078684 0.183677 0.711224 0
M  V30 16 C -1.198866 -0.293143 1.341831 0
M  V30 17 C -2.468319 0.153977 1.112277 0
M  V30 18 C -3.354397 -0.555455 1.944591 0
M  V30 19 O -3.859830 -1.251211 0.984141 0
M  V30 20 N -3.978142 -0.930915 3.131150 0
M  V30 21 C -3.687604 -0.390562 4.458052 0
M  V30 22 C -3.009339 -1.509215 5.208132 0
M  V30 23 O -3.133764 -2.719257 4.546718 0
M  V30 24 C -4.444454 -3.001787 4.171820 0
M  V30 25 C -5.022096 -1.934559 3.231918 0
M  V30 26 C -2.757045 1.168063 0.189603 0
M  V30 27 C -1.592274 1.650489 -0.453608 0
M  V30 28 C 1.504449 1.107300 -1.351859 0
M  V30 29 N 2.662529 1.091686 -2.116122 0
M  V30 30 C 4.347437 -1.985550 -2.332595 0
M  V30 31 C 4.578214 -3.219479 -1.684258 0
M  V30 32 H 4.240552 -2.079175 1.398361 0
M  V30 33 H 3.840524 0.075135 0.313916 0
M  V30 34 H 5.440687 0.670446 -3.732469 0
M  V30 35 H 1.484544 3.933722 -3.568304 0
M  V30 36 H 0.957815 -0.025142 0.786443 0
M  V30 37 H -0.852338 -1.073003 2.038266 0
M  V30 38 H -3.103178 0.544200 4.434054 0
M  V30 39 H -4.642452 -0.169943 4.995495 0
M  V30 40 H -1.905044 -1.297940 5.267451 0
M  V30 41 H -3.390010 -1.663879 6.251460 0
M  V30 42 H -5.047274 -2.980381 5.134145 0
M  V30 43 H -4.471172 -3.997413 3.723233 0
M  V30 44 H -5.894097 -1.438387 3.685683 0
M  V30 45 H -5.253172 -2.355952 2.247689 0
M  V30 46 H -3.820549 1.326596 0.207811 0
M  V30 47 H -2.080448 2.417651 -1.105089 0
M  V30 48 H 1.754492 0.146809 -0.803668 0
M  V30 49 H 4.381913 -1.958289 -3.433117 0
M  V30 50 H 4.782597 -4.123758 -2.246671 0
M  V30 END ATOM
M  V30 BEGIN BOND
M  V30 1 3 1 2
M  V30 2 1 2 3
M  V30 3 2 3 4
M  V30 4 1 4 5
M  V30 5 2 5 6
M  V30 6 1 6 7
M  V30 7 2 7 8
M  V30 8 1 8 9
M  V30 9 2 9 10
M  V30 10 1 10 11
M  V30 11 2 11 12
M  V30 12 1 12 13
M  V30 13 1 13 14
M  V30 14 2 14 15
M  V30 15 1 15 16
M  V30 16 2 16 17
M  V30 17 1 17 18
M  V30 18 2 18 19
M  V30 19 1 18 20
M  V30 20 1 20 21
M  V30 21 1 21 22
M  V30 22 1 22 23
M  V30 23 1 23 24
M  V30 24 1 24 25
M  V30 25 1 17 26
M  V30 26 2 26 27
M  V30 27 2 13 28
M  V30 28 1 28 29
M  V30 29 1 6 30
M  V30 30 2 30 31
M  V30 31 1 31 3
M  V30 32 1 29 7
M  V30 33 1 29 10
M  V30 34 1 27 14
M  V30 35 1 25 20
M  V30 36 1 4 32
M  V30 37 1 5 33
M  V30 38 1 8 34
M  V30 39 1 11 35
M  V30 40 1 15 36
M  V30 41 1 16 37
M  V30 42 1 21 38
M  V30 43 1 21 39
M  V30 44 1 22 40
M  V30 45 1 22 41
M  V30 46 1 24 42
M  V30 47 1 24 43
M  V30 48 1 25 44
M  V30 49 1 25 45
M  V30 50 1 26 46
M  V30 51 1 27 47
M  V30 52 1 28 48
M  V30 53 1 30 49
M  V30 54 1 31 50
M  V30 END BOND
M  V30 END CTAB
M  END
>  <Dataset>  (884) 
ChEMBL_Kinases

>  <Ligand_Instance>  (884) 
nan

>  <PDB_ID>  (884) 
nan

>  <Standardized_SMILES>  (884) 
N#Cc1ccc(-c2cnc3cnc(-c4ccc(C(=O)N5CCOCC5)cc4)cn23)cc1

>  <Name>  (884) 
nan

>  <Pocket>  (884) 
nan

>  <ATP_Site>  (884) 
nan

>  <Peripheral>  (884) 
nan

>  <Num_H_Atoms_ProtBoundConf>  (884) 
nan

>  <Num_Resolved_Atoms>  (884) 
nan

>  <Num_Not_Resolved_Atoms>  (884) 
nan

$$$$
CHEMBL4213673
     RDKit          3D

  0  0  0  0  0  0  0  0  0  0999 V3000
M  V30 BEGIN CTAB
M  V30 COUNTS 65 69 0 0 0
M  V30 BEGIN ATOM
M  V30 1 C 4.863799 3.341138 8.547424 0
M  V30 2 C 4.259709 2.911055 7.246615 0
M  V30 3 C 3.085877 2.194671 7.143030 0
M  V30 4 C 2.928621 2.031421 5.783510 0
M  V30 5 N 1.826060 1.330424 5.219149 0
M  V30 6 C 1.445963 1.034492 3.882674 0
M  V30 7 N 1.954633 -0.100645 3.320521 0
M  V30 8 C 1.624310 -0.439890 2.042514 0
M  V30 9 C 0.760439 0.378699 1.305525 0
M  V30 10 C 0.262339 1.518636 1.900138 0
M  V30 11 N 0.607008 1.824359 3.158450 0
M  V30 12 N -0.612582 2.297655 1.096786 0
M  V30 13 C -1.162692 3.508117 1.675687 0
M  V30 14 C -0.965358 1.943146 -0.234254 0
M  V30 15 O -1.738856 2.630559 -0.948174 0
M  V30 16 N -0.385627 0.743562 -0.729328 0
M  V30 17 C -0.664495 0.253023 -2.037406 0
M  V30 18 C -1.763507 -0.612240 -2.032523 0
M  V30 19 C -2.168327 -1.180337 -3.242779 0
M  V30 20 N -3.300314 -2.079981 -3.268829 0
M  V30 21 C -2.815768 -3.392431 -3.067635 0
M  V30 22 O -1.547191 -3.433932 -2.920490 0
M  V30 23 C -3.677176 -4.596623 -3.030252 0
M  V30 24 C -5.048685 -4.608059 -3.172717 0
M  V30 25 C -5.692635 -5.829677 -3.111169 0
M  V30 26 C -5.018761 -7.023201 -2.914741 0
M  V30 27 C -3.634788 -7.001825 -2.772074 0
M  V30 28 C -2.931487 -8.300670 -2.562676 0
M  V30 29 F -3.060495 -8.793082 -1.299804 0
M  V30 30 F -3.317228 -9.238147 -3.522462 0
M  V30 31 F -1.581108 -8.063169 -2.834482 0
M  V30 32 C -3.016002 -5.793519 -2.834639 0
M  V30 33 C -1.500497 -0.895976 -4.419724 0
M  V30 34 C -0.422650 -0.038231 -4.381404 0
M  V30 35 C 0.010758 0.544630 -3.208576 0
M  V30 36 C 1.157446 1.479025 -3.069510 0
M  V30 37 C 0.529360 -0.148955 -0.047567 0
M  V30 38 N 3.925265 2.600631 5.086425 0
M  V30 39 C 4.123629 2.648716 3.647107 0
M  V30 40 N 4.724594 3.130669 5.998152 0
M  V30 41 H 4.585943 4.381442 8.765273 0
M  V30 42 H 4.493931 2.653558 9.364405 0
M  V30 43 H 5.969298 3.208932 8.564982 0
M  V30 44 H 2.431357 1.837017 7.924479 0
M  V30 45 H 1.068081 0.895435 5.788049 0
M  V30 46 H 2.092819 -1.364760 1.706723 0
M  V30 47 H -2.115801 3.749974 1.145533 0
M  V30 48 H -0.465025 4.357730 1.533840 0
M  V30 49 H -1.433459 3.372355 2.751482 0
M  V30 50 H -2.342547 -0.890869 -1.173366 0
M  V30 51 H -4.325828 -1.941048 -3.399012 0
M  V30 52 H -5.517786 -3.655058 -3.322179 0
M  V30 53 H -6.779068 -5.809026 -3.228229 0
M  V30 54 H -5.553331 -7.962677 -2.871165 0
M  V30 55 H -1.928093 -5.818984 -2.717623 0
M  V30 56 H -1.800010 -1.330391 -5.379431 0
M  V30 57 H 0.146418 0.224804 -5.287105 0
M  V30 58 H 0.875432 2.373850 -2.493648 0
M  V30 59 H 2.042557 0.936588 -2.648949 0
M  V30 60 H 1.421970 1.826477 -4.110979 0
M  V30 61 H 0.149885 -1.191494 -0.019822 0
M  V30 62 H 1.526846 -0.157515 -0.578298 0
M  V30 63 H 3.200647 2.871655 3.102966 0
M  V30 64 H 4.588088 1.659603 3.369516 0
M  V30 65 H 4.923031 3.390560 3.426860 0
M  V30 END ATOM
M  V30 BEGIN BOND
M  V30 1 1 1 2
M  V30 2 1 2 3
M  V30 3 2 3 4
M  V30 4 1 4 5
M  V30 5 1 5 6
M  V30 6 2 6 7
M  V30 7 1 7 8
M  V30 8 2 8 9
M  V30 9 1 9 10
M  V30 10 2 10 11
M  V30 11 1 10 12
M  V30 12 1 12 13
M  V30 13 1 12 14
M  V30 14 2 14 15
M  V30 15 1 14 16
M  V30 16 1 16 17
M  V30 17 2 17 18
M  V30 18 1 18 19
M  V30 19 1 19 20
M  V30 20 1 20 21
M  V30 21 2 21 22
M  V30 22 1 21 23
M  V30 23 2 23 24
M  V30 24 1 24 25
M  V30 25 2 25 26
M  V30 26 1 26 27
M  V30 27 1 27 28
M  V30 28 1 28 29
M  V30 29 1 28 30
M  V30 30 1 28 31
M  V30 31 2 27 32
M  V30 32 2 19 33
M  V30 33 1 33 34
M  V30 34 2 34 35
M  V30 35 1 35 36
M  V30 36 1 16 37
M  V30 37 1 4 38
M  V30 38 1 38 39
M  V30 39 1 38 40
M  V30 40 2 40 2
M  V30 41 1 11 6
M  V30 42 1 35 17
M  V30 43 1 37 9
M  V30 44 1 32 23
M  V30 45 1 1 41
M  V30 46 1 1 42
M  V30 47 1 1 43
M  V30 48 1 3 44
M  V30 49 1 5 45
M  V30 50 1 8 46
M  V30 51 1 13 47
M  V30 52 1 13 48
M  V30 53 1 13 49
M  V30 54 1 18 50
M  V30 55 1 20 51
M  V30 56 1 24 52
M  V30 57 1 25 53
M  V30 58 1 26 54
M  V30 59 1 32 55
M  V30 60 1 33 56
M  V30 61 1 34 57
M  V30 62 1 36 58
M  V30 63 1 36 59
M  V30 64 1 36 60
M  V30 65 1 37 61
M  V30 66 1 37 62
M  V30 67 1 39 63
M  V30 68 1 39 64
M  V30 69 1 39 65
M  V30 END BOND
M  V30 END CTAB
M  END
>  <Dataset>  (885) 
ChEMBL_Kinases

>  <Ligand_Instance>  (885) 
nan

>  <PDB_ID>  (885) 
nan

>  <Standardized_SMILES>  (885) 
Cc1cc(Nc2ncc3c(n2)N(C)C(=O)N(c2cc(NC(=O)c4cccc(C(F)(F)F)c4)ccc2C)C3)n(C)n1

>  <Name>  (885) 
nan

>  <Pocket>  (885) 
nan

>  <ATP_Site>  (885) 
nan

>  <Peripheral>  (885) 
nan

>  <Num_H_Atoms_ProtBoundConf>  (885) 
nan

>  <Num_Resolved_Atoms>  (885) 
nan

>  <Num_Not_Resolved_Atoms>  (885) 
nan

$$$$
CHEMBL4213254
     RDKit          3D

  0  0  0  0  0  0  0  0  0  0999 V3000
M  V30 BEGIN CTAB
M  V30 COUNTS 57 62 0 0 0
M  V30 BEGIN ATOM
M  V30 1 C 5.380345 -2.416870 5.575558 0
M  V30 2 O 4.171302 -1.717213 5.691943 0
M  V30 3 C 3.577135 -1.015604 4.662506 0
M  V30 4 C 2.372104 -0.360184 4.906086 0
M  V30 5 C 1.693637 0.367411 3.954106 0
M  V30 6 C 2.216193 0.470141 2.673157 0
M  V30 7 N 1.802227 1.091265 1.554422 0
M  V30 8 C 2.696858 0.867253 0.576235 0
M  V30 9 C 2.759248 1.300746 -0.856853 0
M  V30 10 N 2.109964 0.348155 -1.723362 0
M  V30 11 C 0.733722 0.008829 -1.619992 0
M  V30 12 N -0.093012 0.558749 -0.693646 0
M  V30 13 C -1.385355 0.236816 -0.603804 0
M  V30 14 N -2.221103 0.834486 0.377585 0
M  V30 15 C -1.849738 1.828948 1.364911 0
M  V30 16 C -2.042398 1.151511 2.707022 0
M  V30 17 O -3.383244 0.812936 2.858331 0
M  V30 18 C -3.808353 -0.085411 1.912300 0
M  V30 19 C -3.625061 0.506085 0.521460 0
M  V30 20 N -1.962668 -0.656629 -1.425346 0
M  V30 21 C -1.219025 -1.250348 -2.372468 0
M  V30 22 C 0.116567 -0.918445 -2.466264 0
M  V30 23 N 0.676883 -1.626037 -3.478882 0
M  V30 24 C -0.290777 -2.400740 -4.024915 0
M  V30 25 N -1.436671 -2.161025 -3.341686 0
M  V30 26 C -2.704928 -2.763048 -3.582259 0
M  V30 27 C -2.706203 -4.010973 -4.171084 0
M  V30 28 C -3.972817 -4.548164 -4.381133 0
M  V30 29 C -5.143382 -3.891517 -4.031182 0
M  V30 30 N -5.076271 -2.676252 -3.460103 0
M  V30 31 C -3.867274 -2.105698 -3.232268 0
M  V30 32 N 3.665407 0.089506 1.142449 0
M  V30 33 C 3.408203 -0.179069 2.434758 0
M  V30 34 C 4.088428 -0.906715 3.383629 0
M  V30 35 H 6.222818 -1.689337 5.649734 0
M  V30 36 H 5.436568 -2.900016 4.562441 0
M  V30 37 H 5.450102 -3.187526 6.388989 0
M  V30 38 H 1.895325 -0.387849 5.873908 0
M  V30 39 H 0.760216 0.867792 4.165051 0
M  V30 40 H 2.239188 2.285669 -0.932869 0
M  V30 41 H 3.823750 1.385582 -1.153611 0
M  V30 42 H 2.642072 -0.140487 -2.479111 0
M  V30 43 H -0.782851 2.118430 1.280422 0
M  V30 44 H -2.455920 2.751809 1.275283 0
M  V30 45 H -1.448516 0.209118 2.676350 0
M  V30 46 H -1.694308 1.742669 3.560673 0
M  V30 47 H -3.219182 -1.032092 1.987840 0
M  V30 48 H -4.895843 -0.254700 2.102954 0
M  V30 49 H -4.218437 1.445682 0.480047 0
M  V30 50 H -3.972556 -0.195458 -0.262405 0
M  V30 51 H -0.132406 -3.072431 -4.853228 0
M  V30 52 H -1.805629 -4.540553 -4.451995 0
M  V30 53 H -4.043391 -5.523339 -4.838745 0
M  V30 54 H -6.099787 -4.369478 -4.223885 0
M  V30 55 H -3.870454 -1.127164 -2.770465 0
M  V30 56 H 4.528594 -0.278998 0.661066 0
M  V30 57 H 5.022716 -1.403967 3.161434 0
M  V30 END ATOM
M  V30 BEGIN BOND
M  V30 1 1 1 2
M  V30 2 1 2 3
M  V30 3 2 3 4
M  V30 4 1 4 5
M  V30 5 2 5 6
M  V30 6 1 6 7
M  V30 7 2 7 8
M  V30 8 1 8 9
M  V30 9 1 9 10
M  V30 10 1 10 11
M  V30 11 2 11 12
M  V30 12 1 12 13
M  V30 13 1 13 14
M  V30 14 1 14 15
M  V30 15 1 15 16
M  V30 16 1 16 17
M  V30 17 1 17 18
M  V30 18 1 18 19
M  V30 19 2 13 20
M  V30 20 1 20 21
M  V30 21 2 21 22
M  V30 22 1 22 23
M  V30 23 2 23 24
M  V30 24 1 24 25
M  V30 25 1 25 26
M  V30 26 2 26 27
M  V30 27 1 27 28
M  V30 28 2 28 29
M  V30 29 1 29 30
M  V30 30 2 30 31
M  V30 31 1 8 32
M  V30 32 1 32 33
M  V30 33 2 33 34
M  V30 34 1 34 3
M  V30 35 1 33 6
M  V30 36 1 22 11
M  V30 37 1 31 26
M  V30 38 1 19 14
M  V30 39 1 25 21
M  V30 40 1 1 35
M  V30 41 1 1 36
M  V30 42 1 1 37
M  V30 43 1 4 38
M  V30 44 1 5 39
M  V30 45 1 9 40
M  V30 46 1 9 41
M  V30 47 1 10 42
M  V30 48 1 15 43
M  V30 49 1 15 44
M  V30 50 1 16 45
M  V30 51 1 16 46
M  V30 52 1 18 47
M  V30 53 1 18 48
M  V30 54 1 19 49
M  V30 55 1 19 50
M  V30 56 1 24 51
M  V30 57 1 27 52
M  V30 58 1 28 53
M  V30 59 1 29 54
M  V30 60 1 31 55
M  V30 61 1 32 56
M  V30 62 1 34 57
M  V30 END BOND
M  V30 END CTAB
M  END
>  <Dataset>  (886) 
ChEMBL_Kinases

>  <Ligand_Instance>  (886) 
nan

>  <PDB_ID>  (886) 
nan

>  <Standardized_SMILES>  (886) 
COc1ccc2nc(CNc3nc(N4CCOCC4)nc4c3ncn4-c3cccnc3)[nH]c2c1

>  <Name>  (886) 
nan

>  <Pocket>  (886) 
nan

>  <ATP_Site>  (886) 
nan

>  <Peripheral>  (886) 
nan

>  <Num_H_Atoms_ProtBoundConf>  (886) 
nan

>  <Num_Resolved_Atoms>  (886) 
nan

>  <Num_Not_Resolved_Atoms>  (886) 
nan

$$$$
CHEMBL4213205
     RDKit          3D

  0  0  0  0  0  0  0  0  0  0999 V3000
M  V30 BEGIN CTAB
M  V30 COUNTS 60 65 0 0 0
M  V30 BEGIN ATOM
M  V30 1 F 4.035465 -5.529194 2.726287 0
M  V30 2 C 3.065419 -4.823913 3.322056 0
M  V30 3 C 2.494382 -5.157223 4.557942 0
M  V30 4 C 1.491987 -4.334974 5.062277 0
M  V30 5 C 1.028503 -3.206962 4.410585 0
M  V30 6 C 1.619312 -2.902005 3.178677 0
M  V30 7 N 1.127649 -1.741518 2.529855 0
M  V30 8 C 0.518801 -0.679195 3.064221 0
M  V30 9 N 0.181373 0.245818 2.159567 0
M  V30 10 C 0.567006 -0.179689 0.940055 0
M  V30 11 C 0.577286 0.187818 -0.438960 0
M  V30 12 N -0.090944 1.478097 -0.403289 0
M  V30 13 C -0.680968 2.714556 -0.680146 0
M  V30 14 C -1.159730 3.345189 0.636519 0
M  V30 15 N -2.361530 3.143538 1.214937 0
M  V30 16 C -2.441636 3.844989 2.357265 0
M  V30 17 C -3.451787 3.957605 3.284343 0
M  V30 18 F -4.639895 3.315951 3.176382 0
M  V30 19 C -3.170758 4.792877 4.370841 0
M  V30 20 F -4.179666 4.904221 5.296971 0
M  V30 21 C -1.983493 5.466657 4.532027 0
M  V30 22 C -1.007241 5.312368 3.565726 0
M  V30 23 C -1.219900 4.501996 2.466499 0
M  V30 24 N -0.440180 4.195455 1.415483 0
M  V30 25 N 1.113388 -0.623766 -1.355630 0
M  V30 26 C 1.663825 -1.804261 -1.063429 0
M  V30 27 N 2.157769 -2.533926 -2.174502 0
M  V30 28 C 1.126845 -3.485341 -2.409461 0
M  V30 29 C -0.229780 -2.982341 -2.707866 0
M  V30 30 C -1.152863 -4.194647 -2.911362 0
M  V30 31 C -2.171208 -3.963673 -3.988299 0
M  V30 32 O -1.629106 -3.673048 -5.217600 0
M  V30 33 C -0.427233 -2.989908 -5.151874 0
M  V30 34 C -0.378631 -2.123414 -3.908518 0
M  V30 35 N 1.649928 -2.136235 0.224461 0
M  V30 36 C 1.153398 -1.426238 1.224473 0
M  V30 37 C 2.613909 -3.705177 2.663085 0
M  V30 38 H 2.847020 -6.023603 5.065339 0
M  V30 39 H 1.083924 -4.640690 6.025134 0
M  V30 40 H 0.238283 -2.582444 4.836699 0
M  V30 41 H 0.287534 -0.515699 4.125509 0
M  V30 42 H 0.074779 1.469033 -1.461715 0
M  V30 43 H -1.609795 2.653556 -1.279604 0
M  V30 44 H 0.006542 3.465639 -1.099590 0
M  V30 45 H -1.912091 6.079491 5.430302 0
M  V30 46 H -0.083825 5.853487 3.714275 0
M  V30 47 H 0.532993 4.533699 1.216961 0
M  V30 48 H 3.090335 -2.256819 -2.564561 0
M  V30 49 H 1.074130 -4.183767 -1.527438 0
M  V30 50 H 1.441009 -4.145174 -3.247471 0
M  V30 51 H -0.581041 -2.372715 -1.827321 0
M  V30 52 H -0.588435 -5.110689 -3.093403 0
M  V30 53 H -1.713334 -4.317628 -1.961672 0
M  V30 54 H -2.737052 -4.921917 -4.084671 0
M  V30 55 H -2.937841 -3.205677 -3.669696 0
M  V30 56 H 0.434867 -3.683594 -5.134679 0
M  V30 57 H -0.270963 -2.287628 -6.002351 0
M  V30 58 H 0.306642 -1.289569 -4.018617 0
M  V30 59 H -1.416402 -1.675809 -3.846964 0
M  V30 60 H 3.019702 -3.396931 1.700804 0
M  V30 END ATOM
M  V30 BEGIN BOND
M  V30 1 1 1 2
M  V30 2 2 2 3
M  V30 3 1 3 4
M  V30 4 2 4 5
M  V30 5 1 5 6
M  V30 6 1 6 7
M  V30 7 1 7 8
M  V30 8 2 8 9
M  V30 9 1 9 10
M  V30 10 2 10 11
M  V30 11 1 11 12
M  V30 12 1 12 13
M  V30 13 1 13 14
M  V30 14 2 14 15
M  V30 15 1 15 16
M  V30 16 2 16 17
M  V30 17 1 17 18
M  V30 18 1 17 19
M  V30 19 1 19 20
M  V30 20 2 19 21
M  V30 21 1 21 22
M  V30 22 2 22 23
M  V30 23 1 23 24
M  V30 24 1 11 25
M  V30 25 2 25 26
M  V30 26 1 26 27
M  V30 27 1 27 28
M  V30 28 1 28 29
M  V30 29 1 29 30
M  V30 30 1 30 31
M  V30 31 1 31 32
M  V30 32 1 32 33
M  V30 33 1 33 34
M  V30 34 1 26 35
M  V30 35 2 35 36
M  V30 36 2 6 37
M  V30 37 1 37 2
M  V30 38 1 36 7
M  V30 39 1 36 10
M  V30 40 1 24 14
M  V30 41 1 34 29
M  V30 42 1 23 16
M  V30 43 1 3 38
M  V30 44 1 4 39
M  V30 45 1 5 40
M  V30 46 1 8 41
M  V30 47 1 12 42
M  V30 48 1 13 43
M  V30 49 1 13 44
M  V30 50 1 21 45
M  V30 51 1 22 46
M  V30 52 1 24 47
M  V30 53 1 27 48
M  V30 54 1 28 49
M  V30 55 1 28 50
M  V30 56 1 29 51
M  V30 57 1 30 52
M  V30 58 1 30 53
M  V30 59 1 31 54
M  V30 60 1 31 55
M  V30 61 1 33 56
M  V30 62 1 33 57
M  V30 63 1 34 58
M  V30 64 1 34 59
M  V30 65 1 37 60
M  V30 END BOND
M  V30 END CTAB
M  END
>  <Dataset>  (887) 
ChEMBL_Kinases

>  <Ligand_Instance>  (887) 
nan

>  <PDB_ID>  (887) 
nan

>  <Standardized_SMILES>  (887) 
Fc1cccc(-n2cnc3c(NCc4nc5c(F)c(F)ccc5[nH]4)nc(NCC4CCOCC4)nc32)c1

>  <Name>  (887) 
nan

>  <Pocket>  (887) 
nan

>  <ATP_Site>  (887) 
nan

>  <Peripheral>  (887) 
nan

>  <Num_H_Atoms_ProtBoundConf>  (887) 
nan

>  <Num_Resolved_Atoms>  (887) 
nan

>  <Num_Not_Resolved_Atoms>  (887) 
nan

$$$$
CHEMBL4213175
     RDKit          3D

  0  0  0  0  0  0  0  0  0  0999 V3000
M  V30 BEGIN CTAB
M  V30 COUNTS 39 41 0 0 0
M  V30 BEGIN ATOM
M  V30 1 C -1.505102 -5.287942 -0.138597 0
M  V30 2 O -0.673462 -4.145943 -0.240578 0
M  V30 3 C 0.417007 -4.101257 -1.097373 0
M  V30 4 C 0.705533 -5.216581 -1.885551 0
M  V30 5 C 1.797824 -5.113131 -2.714400 0
M  V30 6 N 2.577469 -3.997432 -2.787177 0
M  V30 7 C 2.297676 -2.915724 -2.022944 0
M  V30 8 C 1.213364 -2.956293 -1.169023 0
M  V30 9 N 0.941222 -1.808595 -0.376974 0
M  V30 10 C 0.075248 -0.879799 -1.014055 0
M  V30 11 O -0.307117 -1.219849 -2.165518 0
M  V30 12 C -0.397170 0.391971 -0.474206 0
M  V30 13 C -1.230740 1.144246 -1.273595 0
M  V30 14 C -1.647423 2.337345 -0.713227 0
M  V30 15 N -1.284453 2.755046 0.510579 0
M  V30 16 C -0.472556 2.036614 1.305997 0
M  V30 17 N -0.144916 2.557384 2.579601 0
M  V30 18 C 0.675730 2.011106 3.595778 0
M  V30 19 O 1.222603 0.899196 3.394924 0
M  V30 20 C 0.949862 2.645461 4.894365 0
M  V30 21 C 1.372851 4.103188 4.923015 0
M  V30 22 C 0.089291 3.640304 5.530300 0
M  V30 23 C -0.049926 0.854170 0.770131 0
M  V30 24 H -2.139600 -5.234602 0.767595 0
M  V30 25 H -0.844012 -6.199878 -0.078337 0
M  V30 26 H -2.132842 -5.411424 -1.029666 0
M  V30 27 H 0.125956 -6.126693 -1.871593 0
M  V30 28 H 2.078696 -5.935817 -3.350612 0
M  V30 29 H 2.964945 -2.051422 -2.130560 0
M  V30 30 H 1.272645 -1.543681 0.585627 0
M  V30 31 H -1.532864 0.826208 -2.257047 0
M  V30 32 H -2.301082 3.000743 -1.253648 0
M  V30 33 H -0.535747 3.479653 2.873426 0
M  V30 34 H 1.625402 2.022641 5.532735 0
M  V30 35 H 1.401735 4.571940 3.909576 0
M  V30 36 H 2.174574 4.447944 5.587593 0
M  V30 37 H 0.072396 3.656051 6.657923 0
M  V30 38 H -0.857989 3.902688 5.048253 0
M  V30 39 H 0.591937 0.221359 1.323376 0
M  V30 END ATOM
M  V30 BEGIN BOND
M  V30 1 1 1 2
M  V30 2 1 2 3
M  V30 3 2 3 4
M  V30 4 1 4 5
M  V30 5 2 5 6
M  V30 6 1 6 7
M  V30 7 2 7 8
M  V30 8 1 8 9
M  V30 9 1 9 10
M  V30 10 2 10 11
M  V30 11 1 10 12
M  V30 12 2 12 13
M  V30 13 1 13 14
M  V30 14 2 14 15
M  V30 15 1 15 16
M  V30 16 1 16 17
M  V30 17 1 17 18
M  V30 18 2 18 19
M  V30 19 1 18 20
M  V30 20 1 20 21
M  V30 21 1 21 22
M  V30 22 2 16 23
M  V30 23 1 8 3
M  V30 24 1 23 12
M  V30 25 1 22 20
M  V30 26 1 1 24
M  V30 27 1 1 25
M  V30 28 1 1 26
M  V30 29 1 4 27
M  V30 30 1 5 28
M  V30 31 1 7 29
M  V30 32 1 9 30
M  V30 33 1 13 31
M  V30 34 1 14 32
M  V30 35 1 17 33
M  V30 36 1 20 34
M  V30 37 1 21 35
M  V30 38 1 21 36
M  V30 39 1 22 37
M  V30 40 1 22 38
M  V30 41 1 23 39
M  V30 END BOND
M  V30 END CTAB
M  END
>  <Dataset>  (888) 
ChEMBL_Kinases

>  <Ligand_Instance>  (888) 
nan

>  <PDB_ID>  (888) 
nan

>  <Standardized_SMILES>  (888) 
COc1ccncc1NC(=O)c1ccnc(NC(=O)C2CC2)c1

>  <Name>  (888) 
nan

>  <Pocket>  (888) 
nan

>  <ATP_Site>  (888) 
nan

>  <Peripheral>  (888) 
nan

>  <Num_H_Atoms_ProtBoundConf>  (888) 
nan

>  <Num_Resolved_Atoms>  (888) 
nan

>  <Num_Not_Resolved_Atoms>  (888) 
nan

$$$$
CHEMBL3260564
     RDKit          3D

  0  0  0  0  0  0  0  0  0  0999 V3000
M  V30 BEGIN CTAB
M  V30 COUNTS 47 51 0 0 0
M  V30 BEGIN ATOM
M  V30 1 C -0.138351 -2.624180 4.695554 0
M  V30 2 C 0.661230 -2.714905 3.440327 0
M  V30 3 C 1.672499 -3.666050 3.354466 0
M  V30 4 C 2.426179 -3.769545 2.203215 0
M  V30 5 C 2.193983 -2.938534 1.122669 0
M  V30 6 C 1.169786 -1.991018 1.238016 0
M  V30 7 C 0.770111 -1.025694 0.214277 0
M  V30 8 N 1.610764 -0.087805 -0.253476 0
M  V30 9 C 1.036529 0.686670 -1.182499 0
M  V30 10 C 1.356491 1.845162 -2.049561 0
M  V30 11 O 0.971340 3.058288 -1.470849 0
M  V30 12 C 1.383213 3.634279 -0.303827 0
M  V30 13 C 0.682508 4.845814 -0.183303 0
M  V30 14 C 0.874310 5.693982 0.916583 0
M  V30 15 C 1.774738 5.309793 1.887749 0
M  V30 16 C 2.475726 4.127241 1.795321 0
M  V30 17 C 2.264848 3.318139 0.704269 0
M  V30 18 N -0.240539 0.213870 -1.312548 0
M  V30 19 C -0.409624 -0.821589 -0.471274 0
M  V30 20 C -1.591600 -1.650043 -0.247201 0
M  V30 21 C -2.802368 -1.156756 0.213734 0
M  V30 22 C -3.872994 -2.012095 0.398417 0
M  V30 23 C -3.689017 -3.351635 0.110101 0
M  V30 24 N -4.578734 -4.374189 0.209685 0
M  V30 25 C -3.912611 -5.471024 -0.186413 0
M  V30 26 N -2.649882 -5.124642 -0.518479 0
M  V30 27 N -2.500917 -3.803410 -0.336635 0
M  V30 28 C -1.438513 -2.990042 -0.525985 0
M  V30 29 N 0.450843 -1.917165 2.380859 0
M  V30 30 H 0.537167 -2.390465 5.538624 0
M  V30 31 H -0.794131 -1.715996 4.581236 0
M  V30 32 H -0.800448 -3.483499 4.852753 0
M  V30 33 H 1.901913 -4.343888 4.165066 0
M  V30 34 H 3.238282 -4.500758 2.075686 0
M  V30 35 H 2.717276 -2.928540 0.175901 0
M  V30 36 H 2.583838 0.094598 -0.006759 0
M  V30 37 H 2.491162 1.888228 -2.085128 0
M  V30 38 H 0.963266 1.719474 -3.079382 0
M  V30 39 H -0.064173 5.308809 -0.850118 0
M  V30 40 H 0.381733 6.638930 1.090944 0
M  V30 41 H 1.997555 5.887289 2.773932 0
M  V30 42 H 3.199697 3.741416 2.502127 0
M  V30 43 H 2.732079 2.379509 0.488350 0
M  V30 44 H -2.773841 -0.082669 0.390205 0
M  V30 45 H -4.783716 -1.554098 0.760238 0
M  V30 46 H -4.364802 -6.449709 -0.214962 0
M  V30 47 H -0.522721 -3.395819 -0.880307 0
M  V30 END ATOM
M  V30 BEGIN BOND
M  V30 1 1 1 2
M  V30 2 2 2 3
M  V30 3 1 3 4
M  V30 4 2 4 5
M  V30 5 1 5 6
M  V30 6 1 6 7
M  V30 7 1 7 8
M  V30 8 1 8 9
M  V30 9 1 9 10
M  V30 10 1 10 11
M  V30 11 1 11 12
M  V30 12 2 12 13
M  V30 13 1 13 14
M  V30 14 2 14 15
M  V30 15 1 15 16
M  V30 16 2 16 17
M  V30 17 2 9 18
M  V30 18 1 18 19
M  V30 19 1 19 20
M  V30 20 1 20 21
M  V30 21 2 21 22
M  V30 22 1 22 23
M  V30 23 2 23 24
M  V30 24 1 24 25
M  V30 25 2 25 26
M  V30 26 1 26 27
M  V30 27 1 27 28
M  V30 28 2 6 29
M  V30 29 1 29 2
M  V30 30 2 19 7
M  V30 31 2 28 20
M  V30 32 1 17 12
M  V30 33 1 27 23
M  V30 34 1 1 30
M  V30 35 1 1 31
M  V30 36 1 1 32
M  V30 37 1 3 33
M  V30 38 1 4 34
M  V30 39 1 5 35
M  V30 40 1 8 36
M  V30 41 1 10 37
M  V30 42 1 10 38
M  V30 43 1 13 39
M  V30 44 1 14 40
M  V30 45 1 15 41
M  V30 46 1 16 42
M  V30 47 1 17 43
M  V30 48 1 21 44
M  V30 49 1 22 45
M  V30 50 1 25 46
M  V30 51 1 28 47
M  V30 END BOND
M  V30 END CTAB
M  END
>  <Dataset>  (889) 
ChEMBL_Kinases

>  <Ligand_Instance>  (889) 
nan

>  <PDB_ID>  (889) 
nan

>  <Standardized_SMILES>  (889) 
Cc1cccc(-c2[nH]c(COc3ccccc3)nc2-c2ccc3ncnn3c2)n1

>  <Name>  (889) 
nan

>  <Pocket>  (889) 
nan

>  <ATP_Site>  (889) 
nan

>  <Peripheral>  (889) 
nan

>  <Num_H_Atoms_ProtBoundConf>  (889) 
nan

>  <Num_Resolved_Atoms>  (889) 
nan

>  <Num_Not_Resolved_Atoms>  (889) 
nan

$$$$
CHEMBL3260565
     RDKit          3D

  0  0  0  0  0  0  0  0  0  0999 V3000
M  V30 BEGIN CTAB
M  V30 COUNTS 47 51 0 0 0
M  V30 BEGIN ATOM
M  V30 1 C -0.698005 -1.567867 4.536084 0
M  V30 2 C 0.289866 -1.787228 3.446703 0
M  V30 3 C 1.418501 -2.549317 3.713819 0
M  V30 4 C 2.373154 -2.789212 2.745737 0
M  V30 5 C 2.210877 -2.262597 1.477216 0
M  V30 6 C 1.081467 -1.507843 1.233342 0
M  V30 7 C 0.662593 -0.834485 -0.009559 0
M  V30 8 N 1.456500 0.149133 -0.514418 0
M  V30 9 C 0.875569 0.624426 -1.655521 0
M  V30 10 C 1.437396 1.712376 -2.504937 0
M  V30 11 S 0.804243 3.310690 -1.925966 0
M  V30 12 C 1.432649 3.654378 -0.295512 0
M  V30 13 C 2.583734 4.312034 0.080651 0
M  V30 14 C 2.845352 4.447519 1.429820 0
M  V30 15 C 2.021844 3.963262 2.407149 0
M  V30 16 C 0.869095 3.304517 2.048564 0
M  V30 17 C 0.578169 3.152187 0.693650 0
M  V30 18 N -0.281648 -0.067054 -1.858221 0
M  V30 19 C -0.423797 -0.968072 -0.851515 0
M  V30 20 C -1.464861 -1.952066 -0.575875 0
M  V30 21 C -2.729285 -1.392362 -0.374214 0
M  V30 22 C -3.777116 -2.258196 -0.107537 0
M  V30 23 C -3.503168 -3.608007 -0.059220 0
M  V30 24 N -4.397416 -4.571567 0.184872 0
M  V30 25 C -3.682051 -5.724831 0.133363 0
M  V30 26 N -2.376000 -5.435258 -0.139828 0
M  V30 27 N -2.271477 -4.101678 -0.259483 0
M  V30 28 C -1.226227 -3.308082 -0.520324 0
M  V30 29 N 0.168122 -1.291767 2.199146 0
M  V30 30 H -0.202918 -1.176509 5.448488 0
M  V30 31 H -1.339775 -0.718477 4.179301 0
M  V30 32 H -1.305873 -2.464208 4.748460 0
M  V30 33 H 1.617487 -2.996032 4.683010 0
M  V30 34 H 3.277026 -3.369676 2.871705 0
M  V30 35 H 2.848057 -2.347720 0.608512 0
M  V30 36 H 2.360025 0.526737 -0.151875 0
M  V30 37 H 2.538188 1.746162 -2.329028 0
M  V30 38 H 1.277385 1.549236 -3.566726 0
M  V30 39 H 3.147702 4.645691 -0.757944 0
M  V30 40 H 3.761328 4.971634 1.665638 0
M  V30 41 H 2.268642 4.093609 3.449663 0
M  V30 42 H 0.251207 2.940641 2.843832 0
M  V30 43 H -0.357349 2.615786 0.544794 0
M  V30 44 H -2.922983 -0.335347 -0.416279 0
M  V30 45 H -4.769124 -1.835315 0.052232 0
M  V30 46 H -3.915697 -6.760130 0.255598 0
M  V30 47 H -0.221321 -3.683386 -0.685770 0
M  V30 END ATOM
M  V30 BEGIN BOND
M  V30 1 1 1 2
M  V30 2 2 2 3
M  V30 3 1 3 4
M  V30 4 2 4 5
M  V30 5 1 5 6
M  V30 6 1 6 7
M  V30 7 1 7 8
M  V30 8 1 8 9
M  V30 9 1 9 10
M  V30 10 1 10 11
M  V30 11 1 11 12
M  V30 12 2 12 13
M  V30 13 1 13 14
M  V30 14 2 14 15
M  V30 15 1 15 16
M  V30 16 2 16 17
M  V30 17 2 9 18
M  V30 18 1 18 19
M  V30 19 1 19 20
M  V30 20 1 20 21
M  V30 21 2 21 22
M  V30 22 1 22 23
M  V30 23 2 23 24
M  V30 24 1 24 25
M  V30 25 2 25 26
M  V30 26 1 26 27
M  V30 27 1 27 28
M  V30 28 2 6 29
M  V30 29 1 29 2
M  V30 30 2 19 7
M  V30 31 2 28 20
M  V30 32 1 17 12
M  V30 33 1 27 23
M  V30 34 1 1 30
M  V30 35 1 1 31
M  V30 36 1 1 32
M  V30 37 1 3 33
M  V30 38 1 4 34
M  V30 39 1 5 35
M  V30 40 1 8 36
M  V30 41 1 10 37
M  V30 42 1 10 38
M  V30 43 1 13 39
M  V30 44 1 14 40
M  V30 45 1 15 41
M  V30 46 1 16 42
M  V30 47 1 17 43
M  V30 48 1 21 44
M  V30 49 1 22 45
M  V30 50 1 25 46
M  V30 51 1 28 47
M  V30 END BOND
M  V30 END CTAB
M  END
>  <Dataset>  (890) 
ChEMBL_Kinases

>  <Ligand_Instance>  (890) 
nan

>  <PDB_ID>  (890) 
nan

>  <Standardized_SMILES>  (890) 
Cc1cccc(-c2[nH]c(CSc3ccccc3)nc2-c2ccc3ncnn3c2)n1

>  <Name>  (890) 
nan

>  <Pocket>  (890) 
nan

>  <ATP_Site>  (890) 
nan

>  <Peripheral>  (890) 
nan

>  <Num_H_Atoms_ProtBoundConf>  (890) 
nan

>  <Num_Resolved_Atoms>  (890) 
nan

>  <Num_Not_Resolved_Atoms>  (890) 
nan

$$$$
CHEMBL4213847
     RDKit          3D

  0  0  0  0  0  0  0  0  0  0999 V3000
M  V30 BEGIN CTAB
M  V30 COUNTS 70 75 0 0 0
M  V30 BEGIN ATOM
M  V30 1 C 3.446154 3.328600 5.219734 0
M  V30 2 C 3.635794 1.955517 5.774038 0
M  V30 3 C 2.627254 0.947436 5.255385 0
M  V30 4 C 2.999256 -0.372810 5.941341 0
M  V30 5 C 4.157496 -0.882207 5.072734 0
M  V30 6 C 3.732014 -0.438180 3.717757 0
M  V30 7 N 3.885424 -0.681405 2.403538 0
M  V30 8 C 3.136141 0.176980 1.687759 0
M  V30 9 C 3.029618 0.240344 0.321028 0
M  V30 10 F 3.702031 -0.597306 -0.493819 0
M  V30 11 C 2.193913 1.210467 -0.195938 0
M  V30 12 C 1.522473 2.049324 0.670580 0
M  V30 13 C 0.644080 3.067090 0.092643 0
M  V30 14 N -0.169496 2.648439 -0.906544 0
M  V30 15 C -1.032931 3.415014 -1.554275 0
M  V30 16 N -1.830426 2.822112 -2.595889 0
M  V30 17 C -1.638426 1.438570 -2.865358 0
M  V30 18 C -2.369609 0.786818 -3.857144 0
M  V30 19 C -2.171512 -0.561934 -4.108343 0
M  V30 20 C -1.236665 -1.303913 -3.377231 0
M  V30 21 C -1.093095 -2.744470 -3.717190 0
M  V30 22 N -1.986694 -3.497035 -2.931697 0
M  V30 23 C -1.980215 -4.918244 -3.132507 0
M  V30 24 C -3.401312 -5.397667 -2.913422 0
M  V30 25 N -3.940997 -4.767267 -1.732669 0
M  V30 26 C -4.887270 -5.573003 -1.023840 0
M  V30 27 C -5.368319 -4.796231 0.182173 0
M  V30 28 C -2.869829 -4.282314 -0.882980 0
M  V30 29 C -2.188389 -3.099410 -1.577368 0
M  V30 30 C -0.547238 -0.611736 -2.415626 0
M  V30 31 N -0.757987 0.695753 -2.191803 0
M  V30 32 N -1.125727 4.697593 -1.214842 0
M  V30 33 C -0.348611 5.199582 -0.225635 0
M  V30 34 C 0.556433 4.392363 0.452046 0
M  V30 35 F 1.374423 4.784504 1.446854 0
M  V30 36 C 1.672272 1.934525 2.037954 0
M  V30 37 C 2.494938 0.982332 2.606993 0
M  V30 38 N 2.861764 0.603989 3.863898 0
M  V30 39 H 3.032344 4.010416 6.008048 0
M  V30 40 H 2.774202 3.314644 4.337805 0
M  V30 41 H 4.435610 3.804946 4.961916 0
M  V30 42 H 4.638988 1.601664 5.395939 0
M  V30 43 H 3.699446 1.907636 6.869190 0
M  V30 44 H 1.589835 1.234293 5.427457 0
M  V30 45 H 3.348949 -0.152915 6.970066 0
M  V30 46 H 2.152387 -1.082656 5.903019 0
M  V30 47 H 4.164519 -1.981948 5.161736 0
M  V30 48 H 5.093310 -0.385789 5.317525 0
M  V30 49 H 2.050864 1.331194 -1.262064 0
M  V30 50 H -2.530856 3.352604 -3.152395 0
M  V30 51 H -3.102307 1.335241 -4.441454 0
M  V30 52 H -2.743459 -1.060661 -4.880335 0
M  V30 53 H -0.045709 -3.094538 -3.587576 0
M  V30 54 H -1.359818 -2.882227 -4.799275 0
M  V30 55 H -1.273778 -5.424886 -2.476735 0
M  V30 56 H -1.711525 -5.120354 -4.190564 0
M  V30 57 H -4.040302 -5.207601 -3.797985 0
M  V30 58 H -3.331966 -6.487402 -2.677186 0
M  V30 59 H -4.490315 -6.571242 -0.772562 0
M  V30 60 H -5.787527 -5.695669 -1.674351 0
M  V30 61 H -6.430640 -5.024632 0.412458 0
M  V30 62 H -4.695659 -5.027302 1.029721 0
M  V30 63 H -5.321462 -3.722606 -0.083949 0
M  V30 64 H -2.162197 -5.084108 -0.672282 0
M  V30 65 H -3.282964 -3.903264 0.069974 0
M  V30 66 H -2.796214 -2.198869 -1.533327 0
M  V30 67 H -1.233503 -2.942469 -1.031947 0
M  V30 68 H 0.172549 -1.178540 -1.851221 0
M  V30 69 H -0.391922 6.244130 0.084767 0
M  V30 70 H 1.134165 2.606364 2.721756 0
M  V30 END ATOM
M  V30 BEGIN BOND
M  V30 1 1 1 2
M  V30 2 1 2 3
M  V30 3 1 3 4
M  V30 4 1 4 5
M  V30 5 1 5 6
M  V30 6 2 6 7
M  V30 7 1 7 8
M  V30 8 2 8 9
M  V30 9 1 9 10
M  V30 10 1 9 11
M  V30 11 2 11 12
M  V30 12 1 12 13
M  V30 13 2 13 14
M  V30 14 1 14 15
M  V30 15 1 15 16
M  V30 16 1 16 17
M  V30 17 2 17 18
M  V30 18 1 18 19
M  V30 19 2 19 20
M  V30 20 1 20 21
M  V30 21 1 21 22
M  V30 22 1 22 23
M  V30 23 1 23 24
M  V30 24 1 24 25
M  V30 25 1 25 26
M  V30 26 1 26 27
M  V30 27 1 25 28
M  V30 28 1 28 29
M  V30 29 1 20 30
M  V30 30 2 30 31
M  V30 31 2 15 32
M  V30 32 1 32 33
M  V30 33 2 33 34
M  V30 34 1 34 35
M  V30 35 1 12 36
M  V30 36 2 36 37
M  V30 37 1 37 38
M  V30 38 1 38 3
M  V30 39 1 38 6
M  V30 40 1 37 8
M  V30 41 1 34 13
M  V30 42 1 31 17
M  V30 43 1 29 22
M  V30 44 1 1 39
M  V30 45 1 1 40
M  V30 46 1 1 41
M  V30 47 1 2 42
M  V30 48 1 2 43
M  V30 49 1 3 44
M  V30 50 1 4 45
M  V30 51 1 4 46
M  V30 52 1 5 47
M  V30 53 1 5 48
M  V30 54 1 11 49
M  V30 55 1 16 50
M  V30 56 1 18 51
M  V30 57 1 19 52
M  V30 58 1 21 53
M  V30 59 1 21 54
M  V30 60 1 23 55
M  V30 61 1 23 56
M  V30 62 1 24 57
M  V30 63 1 24 58
M  V30 64 1 26 59
M  V30 65 1 26 60
M  V30 66 1 27 61
M  V30 67 1 27 62
M  V30 68 1 27 63
M  V30 69 1 28 64
M  V30 70 1 28 65
M  V30 71 1 29 66
M  V30 72 1 29 67
M  V30 73 1 30 68
M  V30 74 1 33 69
M  V30 75 1 36 70
M  V30 END BOND
M  V30 END CTAB
M  END
>  <Dataset>  (891) 
ChEMBL_Kinases

>  <Ligand_Instance>  (891) 
nan

>  <PDB_ID>  (891) 
nan

>  <Standardized_SMILES>  (891) 
CCC1CCc2nc3c(F)cc(-c4nc(Nc5ccc(CN6CCN(CC)CC6)cn5)ncc4F)cc3n21

>  <Name>  (891) 
nan

>  <Pocket>  (891) 
nan

>  <ATP_Site>  (891) 
nan

>  <Peripheral>  (891) 
nan

>  <Num_H_Atoms_ProtBoundConf>  (891) 
nan

>  <Num_Resolved_Atoms>  (891) 
nan

>  <Num_Not_Resolved_Atoms>  (891) 
nan

$$$$
CHEMBL3675508
     RDKit          3D

  0  0  0  0  0  0  0  0  0  0999 V3000
M  V30 BEGIN CTAB
M  V30 COUNTS 59 62 0 0 0
M  V30 BEGIN ATOM
M  V30 1 C 3.431342 -3.080863 5.511137 0
M  V30 2 O 3.567737 -2.299929 4.362603 0
M  V30 3 C 3.136440 -3.092665 3.302997 0
M  V30 4 C 3.219807 -2.393088 1.978662 0
M  V30 5 C 2.360019 -1.159379 2.004170 0
M  V30 6 N 2.378681 -0.413561 0.757160 0
M  V30 7 C 1.610200 0.775719 0.638590 0
M  V30 8 N 0.876261 1.193605 1.683358 0
M  V30 9 C 0.118122 2.303411 1.668512 0
M  V30 10 N 0.051056 3.077597 0.576563 0
M  V30 11 C 0.780012 2.676779 -0.484069 0
M  V30 12 C 0.709152 3.484259 -1.620716 0
M  V30 13 C -0.078939 4.701713 -1.738899 0
M  V30 14 N -0.810007 5.043463 -0.574568 0
M  V30 15 O -0.154967 5.439302 -2.753210 0
M  V30 16 C 1.451893 3.078482 -2.705480 0
M  V30 17 C 2.254160 1.936517 -2.742098 0
M  V30 18 C 2.284212 1.186169 -1.602078 0
M  V30 19 C 1.564425 1.548245 -0.500542 0
M  V30 20 C 0.965053 -1.539272 2.367541 0
M  V30 21 C 0.385151 -1.433440 3.610708 0
M  V30 22 C -0.923360 -1.823748 3.810724 0
M  V30 23 C -1.684790 -2.329498 2.773320 0
M  V30 24 C -1.125070 -2.449704 1.498660 0
M  V30 25 N -1.856723 -2.968423 0.365908 0
M  V30 26 C -2.594807 -2.088765 -0.463123 0
M  V30 27 O -2.592911 -0.860879 -0.185975 0
M  V30 28 C -3.354994 -2.518946 -1.615675 0
M  V30 29 C -4.030860 -1.554320 -2.339712 0
M  V30 30 C -4.768542 -1.957736 -3.454968 0
M  V30 31 C -4.838200 -3.278386 -3.846504 0
M  V30 32 Br -5.875623 -3.762392 -5.396272 0
M  V30 33 C -4.161710 -4.268336 -3.127263 0
M  V30 34 C -3.428738 -3.840820 -2.013179 0
M  V30 35 C 0.198799 -2.047108 1.328221 0
M  V30 36 H 3.743478 -2.564461 6.436778 0
M  V30 37 H 2.351593 -3.367141 5.613505 0
M  V30 38 H 4.017111 -4.018900 5.437110 0
M  V30 39 H 3.775751 -3.999279 3.291026 0
M  V30 40 H 2.123638 -3.433258 3.557736 0
M  V30 41 H 2.777077 -3.075939 1.226205 0
M  V30 42 H 4.258961 -2.144422 1.758612 0
M  V30 43 H 2.761099 -0.485968 2.783162 0
M  V30 44 H 2.982884 -0.838614 0.027480 0
M  V30 45 H -0.459854 2.601124 2.541960 0
M  V30 46 H -1.251407 5.272958 0.314178 0
M  V30 47 H -1.812740 5.286945 -0.782013 0
M  V30 48 H 1.396966 3.698812 -3.576948 0
M  V30 49 H 2.819052 1.655625 -3.612021 0
M  V30 50 H 2.891328 0.309161 -1.609134 0
M  V30 51 H 1.012968 -1.035012 4.389156 0
M  V30 52 H -1.363213 -1.733584 4.794637 0
M  V30 53 H -2.723145 -2.651602 2.880857 0
M  V30 54 H -1.841374 -3.988838 0.159056 0
M  V30 55 H -4.024401 -0.499409 -2.095295 0
M  V30 56 H -5.311804 -1.217900 -4.044890 0
M  V30 57 H -4.204951 -5.308419 -3.419520 0
M  V30 58 H -2.911704 -4.606628 -1.465518 0
M  V30 59 H 0.599273 -2.154189 0.328925 0
M  V30 END ATOM
M  V30 BEGIN BOND
M  V30 1 1 1 2
M  V30 2 1 2 3
M  V30 3 1 3 4
M  V30 4 1 4 5
M  V30 5 1 5 6
M  V30 6 1 6 7
M  V30 7 2 7 8
M  V30 8 1 8 9
M  V30 9 2 9 10
M  V30 10 1 10 11
M  V30 11 2 11 12
M  V30 12 1 12 13
M  V30 13 1 13 14
M  V30 14 2 13 15
M  V30 15 1 12 16
M  V30 16 2 16 17
M  V30 17 1 17 18
M  V30 18 2 18 19
M  V30 19 1 5 20
M  V30 20 2 20 21
M  V30 21 1 21 22
M  V30 22 2 22 23
M  V30 23 1 23 24
M  V30 24 1 24 25
M  V30 25 1 25 26
M  V30 26 2 26 27
M  V30 27 1 26 28
M  V30 28 2 28 29
M  V30 29 1 29 30
M  V30 30 2 30 31
M  V30 31 1 31 32
M  V30 32 1 31 33
M  V30 33 2 33 34
M  V30 34 2 24 35
M  V30 35 1 19 7
M  V30 36 1 35 20
M  V30 37 1 19 11
M  V30 38 1 34 28
M  V30 39 1 1 36
M  V30 40 1 1 37
M  V30 41 1 1 38
M  V30 42 1 3 39
M  V30 43 1 3 40
M  V30 44 1 4 41
M  V30 45 1 4 42
M  V30 46 1 5 43
M  V30 47 1 6 44
M  V30 48 1 9 45
M  V30 49 1 14 46
M  V30 50 1 14 47
M  V30 51 1 16 48
M  V30 52 1 17 49
M  V30 53 1 18 50
M  V30 54 1 21 51
M  V30 55 1 22 52
M  V30 56 1 23 53
M  V30 57 1 25 54
M  V30 58 1 29 55
M  V30 59 1 30 56
M  V30 60 1 33 57
M  V30 61 1 34 58
M  V30 62 1 35 59
M  V30 END BOND
M  V30 END CTAB
M  END
>  <Dataset>  (892) 
ChEMBL_Kinases

>  <Ligand_Instance>  (892) 
nan

>  <PDB_ID>  (892) 
nan

>  <Standardized_SMILES>  (892) 
COCCC(Nc1ncnc2c(C(N)=O)cccc12)c1cccc(NC(=O)c2ccc(Br)cc2)c1

>  <Name>  (892) 
nan

>  <Pocket>  (892) 
nan

>  <ATP_Site>  (892) 
nan

>  <Peripheral>  (892) 
nan

>  <Num_H_Atoms_ProtBoundConf>  (892) 
nan

>  <Num_Resolved_Atoms>  (892) 
nan

>  <Num_Not_Resolved_Atoms>  (892) 
nan

$$$$
CHEMBL4213060
     RDKit          3D

  0  0  0  0  0  0  0  0  0  0999 V3000
M  V30 BEGIN CTAB
M  V30 COUNTS 54 59 0 0 0
M  V30 BEGIN ATOM
M  V30 1 F 3.374304 -5.958055 5.271203 0
M  V30 2 C 3.260304 -4.800255 4.576772 0
M  V30 3 C 3.204907 -4.862387 3.181349 0
M  V30 4 C 3.087643 -3.699109 2.420379 0
M  V30 5 C 3.028655 -2.493653 3.088087 0
M  V30 6 N 2.909935 -1.363733 2.236714 0
M  V30 7 C 3.711375 -0.285763 2.163883 0
M  V30 8 N 3.266652 0.573695 1.229790 0
M  V30 9 C 2.158153 0.007925 0.711973 0
M  V30 10 C 1.303120 0.474032 -0.290687 0
M  V30 11 N 1.553361 1.716635 -0.926936 0
M  V30 12 C 0.765636 2.331053 -1.969434 0
M  V30 13 C -0.614741 2.630642 -1.496509 0
M  V30 14 N -0.838198 3.834749 -0.905632 0
M  V30 15 C -2.114942 3.924906 -0.554858 0
M  V30 16 C -2.917111 4.887037 0.069050 0
M  V30 17 F -2.287246 6.035595 0.427630 0
M  V30 18 C -4.265367 4.708354 0.317453 0
M  V30 19 F -5.002093 5.658242 0.919995 0
M  V30 20 C -4.871567 3.508685 -0.069655 0
M  V30 21 C -4.075165 2.567220 -0.682953 0
M  V30 22 C -2.748656 2.757950 -0.920696 0
M  V30 23 N -1.794792 2.003497 -1.488979 0
M  V30 24 N 0.247837 -0.281450 -0.638682 0
M  V30 25 C 0.020402 -1.451754 -0.040380 0
M  V30 26 N -1.032374 -2.371802 -0.283501 0
M  V30 27 C -1.248648 -3.609110 0.441317 0
M  V30 28 C -1.157555 -4.745887 -0.530101 0
M  V30 29 O -2.154531 -4.591354 -1.490193 0
M  V30 30 C -1.989749 -3.441463 -2.226650 0
M  V30 31 C -2.068677 -2.246854 -1.288575 0
M  V30 32 N 0.871434 -1.842975 0.909170 0
M  V30 33 C 1.940952 -1.193724 1.339758 0
M  V30 34 C 3.081856 -2.412226 4.465033 0
M  V30 35 C 3.198185 -3.573753 5.207203 0
M  V30 36 H 3.256379 -5.847560 2.711633 0
M  V30 37 H 3.050755 -3.827101 1.344413 0
M  V30 38 H 4.594242 -0.158475 2.792462 0
M  V30 39 H 2.409963 2.257964 -0.606547 0
M  V30 40 H 1.258836 3.217604 -2.373257 0
M  V30 41 H 0.618065 1.571475 -2.794935 0
M  V30 42 H -5.923856 3.363171 0.121526 0
M  V30 43 H -4.492955 1.623225 -1.001964 0
M  V30 44 H -1.857599 1.053948 -1.898646 0
M  V30 45 H -0.489585 -3.729964 1.256471 0
M  V30 46 H -2.259327 -3.580824 0.881059 0
M  V30 47 H -1.396853 -5.696840 0.006832 0
M  V30 48 H -0.182776 -4.800605 -1.029648 0
M  V30 49 H -1.010192 -3.434896 -2.749840 0
M  V30 50 H -2.785586 -3.381102 -2.984840 0
M  V30 51 H -1.932959 -1.330869 -1.902936 0
M  V30 52 H -3.041184 -2.260274 -0.769767 0
M  V30 53 H 3.030687 -1.431818 4.933814 0
M  V30 54 H 3.241610 -3.525419 6.300530 0
M  V30 END ATOM
M  V30 BEGIN BOND
M  V30 1 1 1 2
M  V30 2 2 2 3
M  V30 3 1 3 4
M  V30 4 2 4 5
M  V30 5 1 5 6
M  V30 6 1 6 7
M  V30 7 2 7 8
M  V30 8 1 8 9
M  V30 9 2 9 10
M  V30 10 1 10 11
M  V30 11 1 11 12
M  V30 12 1 12 13
M  V30 13 2 13 14
M  V30 14 1 14 15
M  V30 15 2 15 16
M  V30 16 1 16 17
M  V30 17 1 16 18
M  V30 18 1 18 19
M  V30 19 2 18 20
M  V30 20 1 20 21
M  V30 21 2 21 22
M  V30 22 1 22 23
M  V30 23 1 10 24
M  V30 24 2 24 25
M  V30 25 1 25 26
M  V30 26 1 26 27
M  V30 27 1 27 28
M  V30 28 1 28 29
M  V30 29 1 29 30
M  V30 30 1 30 31
M  V30 31 1 25 32
M  V30 32 2 32 33
M  V30 33 1 5 34
M  V30 34 2 34 35
M  V30 35 1 35 2
M  V30 36 1 33 6
M  V30 37 1 33 9
M  V30 38 1 23 13
M  V30 39 1 31 26
M  V30 40 1 22 15
M  V30 41 1 3 36
M  V30 42 1 4 37
M  V30 43 1 7 38
M  V30 44 1 11 39
M  V30 45 1 12 40
M  V30 46 1 12 41
M  V30 47 1 20 42
M  V30 48 1 21 43
M  V30 49 1 23 44
M  V30 50 1 27 45
M  V30 51 1 27 46
M  V30 52 1 28 47
M  V30 53 1 28 48
M  V30 54 1 30 49
M  V30 55 1 30 50
M  V30 56 1 31 51
M  V30 57 1 31 52
M  V30 58 1 34 53
M  V30 59 1 35 54
M  V30 END BOND
M  V30 END CTAB
M  END
>  <Dataset>  (893) 
ChEMBL_Kinases

>  <Ligand_Instance>  (893) 
nan

>  <PDB_ID>  (893) 
nan

>  <Standardized_SMILES>  (893) 
Fc1ccc(-n2cnc3c(NCc4nc5c(F)c(F)ccc5[nH]4)nc(N4CCOCC4)nc32)cc1

>  <Name>  (893) 
nan

>  <Pocket>  (893) 
nan

>  <ATP_Site>  (893) 
nan

>  <Peripheral>  (893) 
nan

>  <Num_H_Atoms_ProtBoundConf>  (893) 
nan

>  <Num_Resolved_Atoms>  (893) 
nan

>  <Num_Not_Resolved_Atoms>  (893) 
nan

$$$$
CHEMBL3675507
     RDKit          3D

  0  0  0  0  0  0  0  0  0  0999 V3000
M  V30 BEGIN CTAB
M  V30 COUNTS 48 50 0 0 0
M  V30 BEGIN ATOM
M  V30 1 C -0.444354 -3.708708 4.081651 0
M  V30 2 N -0.443110 -2.824542 2.958923 0
M  V30 3 C -0.485044 -3.512858 1.735118 0
M  V30 4 C -1.023692 -1.573789 3.101007 0
M  V30 5 C -1.038255 -0.631112 1.911669 0
M  V30 6 N 0.324754 -0.373020 1.478705 0
M  V30 7 C 0.747263 0.773818 0.727907 0
M  V30 8 N -0.058093 1.790810 0.376331 0
M  V30 9 C 0.328817 2.884763 -0.294906 0
M  V30 10 N 1.608075 3.044242 -0.678740 0
M  V30 11 C 2.464214 2.069115 -0.361328 0
M  V30 12 C 3.779109 2.218650 -0.748974 0
M  V30 13 C 4.182958 3.415909 -1.478452 0
M  V30 14 N 3.252565 4.442330 -1.803005 0
M  V30 15 O 5.367775 3.602987 -1.856709 0
M  V30 16 C 4.749770 1.273598 -0.475127 0
M  V30 17 C 4.331106 0.154385 0.216872 0
M  V30 18 C 3.012090 0.021903 0.596445 0
M  V30 19 C 2.056226 0.948501 0.328972 0
M  V30 20 C -1.934577 -1.113042 0.844059 0
M  V30 21 C -1.852411 -0.893766 -0.509727 0
M  V30 22 C -2.738113 -1.339762 -1.459632 0
M  V30 23 C -3.829366 -2.082757 -1.068243 0
M  V30 24 C -3.971773 -2.339997 0.276356 0
M  V30 25 N -5.125869 -3.115170 0.599663 0
M  V30 26 C -3.054750 -1.869321 1.191191 0
M  V30 27 H -1.212454 -4.506467 3.921787 0
M  V30 28 H 0.517259 -4.242628 4.255481 0
M  V30 29 H -0.669485 -3.175082 5.035257 0
M  V30 30 H -1.410121 -4.141130 1.657383 0
M  V30 31 H -0.304800 -2.878832 0.865883 0
M  V30 32 H 0.349557 -4.300557 1.671022 0
M  V30 33 H -0.440465 -1.033929 3.932432 0
M  V30 34 H -2.039317 -1.638863 3.552182 0
M  V30 35 H -1.453905 0.336129 2.305390 0
M  V30 36 H 0.997565 -1.100154 1.761052 0
M  V30 37 H -0.441561 3.629753 -0.510271 0
M  V30 38 H 2.781992 4.863059 -2.633880 0
M  V30 39 H 2.808916 5.060271 -1.087527 0
M  V30 40 H 5.762905 1.451159 -0.806869 0
M  V30 41 H 5.121527 -0.571878 0.416816 0
M  V30 42 H 2.821886 -0.888137 1.123198 0
M  V30 43 H -1.027663 -0.339485 -0.898459 0
M  V30 44 H -2.601480 -1.122583 -2.510071 0
M  V30 45 H -4.517653 -2.427827 -1.819972 0
M  V30 46 H -5.076341 -4.156151 0.434405 0
M  V30 47 H -6.093263 -3.079147 0.967364 0
M  V30 48 H -3.334393 -2.167901 2.172099 0
M  V30 END ATOM
M  V30 BEGIN BOND
M  V30 1 1 1 2
M  V30 2 1 2 3
M  V30 3 1 2 4
M  V30 4 1 4 5
M  V30 5 1 5 6
M  V30 6 1 6 7
M  V30 7 2 7 8
M  V30 8 1 8 9
M  V30 9 2 9 10
M  V30 10 1 10 11
M  V30 11 2 11 12
M  V30 12 1 12 13
M  V30 13 1 13 14
M  V30 14 2 13 15
M  V30 15 1 12 16
M  V30 16 2 16 17
M  V30 17 1 17 18
M  V30 18 2 18 19
M  V30 19 1 5 20
M  V30 20 2 20 21
M  V30 21 1 21 22
M  V30 22 2 22 23
M  V30 23 1 23 24
M  V30 24 1 24 25
M  V30 25 2 24 26
M  V30 26 1 19 7
M  V30 27 1 26 20
M  V30 28 1 19 11
M  V30 29 1 1 27
M  V30 30 1 1 28
M  V30 31 1 1 29
M  V30 32 1 3 30
M  V30 33 1 3 31
M  V30 34 1 3 32
M  V30 35 1 4 33
M  V30 36 1 4 34
M  V30 37 1 5 35
M  V30 38 1 6 36
M  V30 39 1 9 37
M  V30 40 1 14 38
M  V30 41 1 14 39
M  V30 42 1 16 40
M  V30 43 1 17 41
M  V30 44 1 18 42
M  V30 45 1 21 43
M  V30 46 1 22 44
M  V30 47 1 23 45
M  V30 48 1 25 46
M  V30 49 1 25 47
M  V30 50 1 26 48
M  V30 END BOND
M  V30 END CTAB
M  END
>  <Dataset>  (894) 
ChEMBL_Kinases

>  <Ligand_Instance>  (894) 
nan

>  <PDB_ID>  (894) 
nan

>  <Standardized_SMILES>  (894) 
CN(C)CC(Nc1ncnc2c(C(N)=O)cccc12)c1cccc(N)c1

>  <Name>  (894) 
nan

>  <Pocket>  (894) 
nan

>  <ATP_Site>  (894) 
nan

>  <Peripheral>  (894) 
nan

>  <Num_H_Atoms_ProtBoundConf>  (894) 
nan

>  <Num_Resolved_Atoms>  (894) 
nan

>  <Num_Not_Resolved_Atoms>  (894) 
nan

$$$$
CHEMBL4213046
     RDKit          3D

  0  0  0  0  0  0  0  0  0  0999 V3000
M  V30 BEGIN CTAB
M  V30 COUNTS 60 64 0 0 0
M  V30 BEGIN ATOM
M  V30 1 C 1.201011 -1.243772 5.180253 0
M  V30 2 O 1.304043 -0.310544 4.119739 0
M  V30 3 C 0.176737 0.107254 3.418956 0
M  V30 4 C -1.054958 -0.398413 3.760852 0
M  V30 5 C -2.150191 0.055273 3.027519 0
M  V30 6 C -1.961999 0.966188 2.017018 0
M  V30 7 C -0.731549 1.520370 1.618320 0
M  V30 8 C -0.784892 2.448952 0.529992 0
M  V30 9 N -0.527967 2.131857 -0.825824 0
M  V30 10 C 0.539349 2.149944 -1.687635 0
M  V30 11 S 2.105511 2.422881 -0.878634 0
M  V30 12 C 2.956087 0.826766 -0.839116 0
M  V30 13 C 2.109606 -0.317660 -0.494504 0
M  V30 14 O 0.867995 -0.207328 -0.445108 0
M  V30 15 N 2.841399 -1.483437 -0.246170 0
M  V30 16 C 1.949143 -2.661392 0.093043 0
M  V30 17 N 0.468631 -2.568095 0.129677 0
M  V30 18 C 0.047852 -3.791398 0.450268 0
M  V30 19 C -1.351152 -3.884454 0.526546 0
M  V30 20 C -1.931660 -5.095948 0.848963 0
M  V30 21 C -1.248445 -6.248141 1.108760 0
M  V30 22 C -1.796246 -7.561849 1.455904 0
M  V30 23 F -1.873573 -8.408679 0.390950 0
M  V30 24 F -1.093662 -8.122425 2.530284 0
M  V30 25 F -3.099205 -7.352403 1.926878 0
M  V30 26 C 0.122127 -6.125657 1.025467 0
M  V30 27 C 0.743116 -4.980250 0.717661 0
M  V30 28 S 2.390663 -4.339274 0.492037 0
M  V30 29 N 0.577611 1.893808 -2.972058 0
M  V30 30 C -0.536445 1.545885 -3.659239 0
M  V30 31 C -1.689087 1.486795 -2.903625 0
M  V30 32 C -1.621045 1.774252 -1.572453 0
M  V30 33 O -2.772825 1.668708 -1.045530 0
M  V30 34 S -2.941684 1.007694 -4.089589 0
M  V30 35 C -2.015727 1.472675 -5.585191 0
M  V30 36 C -0.604728 1.223174 -5.101919 0
M  V30 37 C 0.272753 1.011423 2.398880 0
M  V30 38 O 1.548799 1.468461 2.127177 0
M  V30 39 C 2.133649 2.605075 2.729631 0
M  V30 40 H 0.602222 -0.854977 6.021990 0
M  V30 41 H 0.702284 -2.164654 4.822161 0
M  V30 42 H 2.199568 -1.538950 5.556774 0
M  V30 43 H -1.106009 -1.103909 4.563652 0
M  V30 44 H -3.071104 -0.391914 3.364969 0
M  V30 45 H -2.955489 1.174447 1.595667 0
M  V30 46 H -1.805057 2.973084 0.535586 0
M  V30 47 H -0.126764 3.376831 0.775016 0
M  V30 48 H 3.396466 0.702588 -1.876801 0
M  V30 49 H 3.864411 0.889310 -0.167753 0
M  V30 50 H 3.813257 -1.764256 -0.231017 0
M  V30 51 H -2.161872 -3.151755 0.375989 0
M  V30 52 H -3.017611 -5.278842 0.935663 0
M  V30 53 H 0.824630 -6.900546 1.189819 0
M  V30 54 H -2.230276 0.757796 -6.432077 0
M  V30 55 H -2.206712 2.524705 -5.875807 0
M  V30 56 H -0.374388 0.140213 -5.250046 0
M  V30 57 H 0.107597 1.874457 -5.647690 0
M  V30 58 H 3.234281 2.570586 2.546314 0
M  V30 59 H 2.013211 2.597617 3.844043 0
M  V30 60 H 1.684991 3.536888 2.340244 0
M  V30 END ATOM
M  V30 BEGIN BOND
M  V30 1 1 1 2
M  V30 2 1 2 3
M  V30 3 2 3 4
M  V30 4 1 4 5
M  V30 5 2 5 6
M  V30 6 1 6 7
M  V30 7 1 7 8
M  V30 8 1 8 9
M  V30 9 1 9 10
M  V30 10 1 10 11
M  V30 11 1 11 12
M  V30 12 1 12 13
M  V30 13 2 13 14
M  V30 14 1 13 15
M  V30 15 1 15 16
M  V30 16 2 16 17
M  V30 17 1 17 18
M  V30 18 2 18 19
M  V30 19 1 19 20
M  V30 20 2 20 21
M  V30 21 1 21 22
M  V30 22 1 22 23
M  V30 23 1 22 24
M  V30 24 1 22 25
M  V30 25 1 21 26
M  V30 26 2 26 27
M  V30 27 1 27 28
M  V30 28 2 10 29
M  V30 29 1 29 30
M  V30 30 2 30 31
M  V30 31 1 31 32
M  V30 32 2 32 33
M  V30 33 1 31 34
M  V30 34 1 34 35
M  V30 35 1 35 36
M  V30 36 2 7 37
M  V30 37 1 37 38
M  V30 38 1 38 39
M  V30 39 1 37 3
M  V30 40 1 32 9
M  V30 41 1 28 16
M  V30 42 1 36 30
M  V30 43 1 27 18
M  V30 44 1 1 40
M  V30 45 1 1 41
M  V30 46 1 1 42
M  V30 47 1 4 43
M  V30 48 1 5 44
M  V30 49 1 6 45
M  V30 50 1 8 46
M  V30 51 1 8 47
M  V30 52 1 12 48
M  V30 53 1 12 49
M  V30 54 1 15 50
M  V30 55 1 19 51
M  V30 56 1 20 52
M  V30 57 1 26 53
M  V30 58 1 35 54
M  V30 59 1 35 55
M  V30 60 1 36 56
M  V30 61 1 36 57
M  V30 62 1 39 58
M  V30 63 1 39 59
M  V30 64 1 39 60
M  V30 END BOND
M  V30 END CTAB
M  END
>  <Dataset>  (895) 
ChEMBL_Kinases

>  <Ligand_Instance>  (895) 
nan

>  <PDB_ID>  (895) 
nan

>  <Standardized_SMILES>  (895) 
COc1cccc(Cn2c(SCC(=O)Nc3nc4ccc(C(F)(F)F)cc4s3)nc3c(c2=O)SCC3)c1OC

>  <Name>  (895) 
nan

>  <Pocket>  (895) 
nan

>  <ATP_Site>  (895) 
nan

>  <Peripheral>  (895) 
nan

>  <Num_H_Atoms_ProtBoundConf>  (895) 
nan

>  <Num_Resolved_Atoms>  (895) 
nan

>  <Num_Not_Resolved_Atoms>  (895) 
nan

$$$$
CHEMBL4213023
     RDKit          3D

  0  0  0  0  0  0  0  0  0  0999 V3000
M  V30 BEGIN CTAB
M  V30 COUNTS 35 38 0 0 0
M  V30 BEGIN ATOM
M  V30 1 O -0.076478 -4.676223 4.812012 0
M  V30 2 C 0.166438 -4.098897 3.571546 0
M  V30 3 C -0.210821 -4.740287 2.416377 0
M  V30 4 C 0.007154 -4.209614 1.150962 0
M  V30 5 C 0.638499 -2.966159 1.030594 0
M  V30 6 C 0.875865 -2.393014 -0.292249 0
M  V30 7 C 1.377939 -3.188532 -1.296003 0
M  V30 8 N 1.493975 -2.403847 -2.393771 0
M  V30 9 C 1.082279 -1.155567 -2.103452 0
M  V30 10 C 0.965836 0.043688 -2.777853 0
M  V30 11 N 0.491544 1.149175 -2.146202 0
M  V30 12 C 0.117992 1.130838 -0.853947 0
M  V30 13 C -0.379078 2.367987 -0.262314 0
M  V30 14 C -0.433339 3.482203 -1.073137 0
M  V30 15 C -0.896715 4.686023 -0.566880 0
M  V30 16 C -1.303750 4.778106 0.740888 0
M  V30 17 C -1.261503 3.667373 1.589625 0
M  V30 18 C -0.789990 2.470648 1.049236 0
M  V30 19 C 0.234998 -0.067754 -0.182040 0
M  V30 20 N 0.705007 -1.161620 -0.809440 0
M  V30 21 C 1.007986 -2.341586 2.205434 0
M  V30 22 C 0.789599 -2.872174 3.460117 0
M  V30 23 H -0.095856 -4.048353 5.615309 0
M  V30 24 H -0.705455 -5.716401 2.533891 0
M  V30 25 H -0.312367 -4.759453 0.252385 0
M  V30 26 H 1.665587 -4.232282 -1.345476 0
M  V30 27 H 1.268906 0.048435 -3.817232 0
M  V30 28 H -0.129487 3.475712 -2.105056 0
M  V30 29 H -0.952577 5.589452 -1.183807 0
M  V30 30 H -1.663183 5.719721 1.126589 0
M  V30 31 H -1.582444 3.730423 2.629294 0
M  V30 32 H -0.754459 1.617909 1.690240 0
M  V30 33 H -0.059729 -0.104575 0.857363 0
M  V30 34 H 1.499429 -1.378090 2.163299 0
M  V30 35 H 1.112359 -2.314719 4.342987 0
M  V30 END ATOM
M  V30 BEGIN BOND
M  V30 1 1 1 2
M  V30 2 2 2 3
M  V30 3 1 3 4
M  V30 4 2 4 5
M  V30 5 1 5 6
M  V30 6 2 6 7
M  V30 7 1 7 8
M  V30 8 2 8 9
M  V30 9 1 9 10
M  V30 10 2 10 11
M  V30 11 1 11 12
M  V30 12 1 12 13
M  V30 13 2 13 14
M  V30 14 1 14 15
M  V30 15 2 15 16
M  V30 16 1 16 17
M  V30 17 2 17 18
M  V30 18 2 12 19
M  V30 19 1 19 20
M  V30 20 1 5 21
M  V30 21 2 21 22
M  V30 22 1 22 2
M  V30 23 1 20 6
M  V30 24 1 20 9
M  V30 25 1 18 13
M  V30 26 1 1 23
M  V30 27 1 3 24
M  V30 28 1 4 25
M  V30 29 1 7 26
M  V30 30 1 10 27
M  V30 31 1 14 28
M  V30 32 1 15 29
M  V30 33 1 16 30
M  V30 34 1 17 31
M  V30 35 1 18 32
M  V30 36 1 19 33
M  V30 37 1 21 34
M  V30 38 1 22 35
M  V30 END BOND
M  V30 END CTAB
M  END
>  <Dataset>  (896) 
ChEMBL_Kinases

>  <Ligand_Instance>  (896) 
nan

>  <PDB_ID>  (896) 
nan

>  <Standardized_SMILES>  (896) 
Oc1ccc(-c2cnc3cnc(-c4ccccc4)cn23)cc1

>  <Name>  (896) 
nan

>  <Pocket>  (896) 
nan

>  <ATP_Site>  (896) 
nan

>  <Peripheral>  (896) 
nan

>  <Num_H_Atoms_ProtBoundConf>  (896) 
nan

>  <Num_Resolved_Atoms>  (896) 
nan

>  <Num_Not_Resolved_Atoms>  (896) 
nan

$$$$
CHEMBL3260607
     RDKit          3D

  0  0  0  0  0  0  0  0  0  0999 V3000
M  V30 BEGIN CTAB
M  V30 COUNTS 49 53 0 0 0
M  V30 BEGIN ATOM
M  V30 1 C -1.484466 -2.146933 4.989124 0
M  V30 2 C -0.204962 -2.089557 4.229844 0
M  V30 3 C 1.020097 -2.440566 4.759856 0
M  V30 4 C 2.195351 -2.377304 4.029107 0
M  V30 5 C 2.129990 -1.940750 2.706337 0
M  V30 6 C 0.882753 -1.592177 2.194068 0
M  V30 7 C 0.949683 -1.154279 0.804712 0
M  V30 8 N 1.645239 -0.102006 0.386952 0
M  V30 9 C 1.569972 0.119796 -0.919128 0
M  V30 10 C 2.060327 1.064186 -1.932984 0
M  V30 11 N 1.070865 2.097899 -2.133247 0
M  V30 12 C 0.609409 3.122723 -1.278407 0
M  V30 13 C 1.067011 3.372932 -0.007171 0
M  V30 14 C 0.623591 4.361111 0.844824 0
M  V30 15 C -0.374939 5.163546 0.353236 0
M  V30 16 C -0.922021 6.228427 1.143264 0
M  V30 17 N -1.373351 7.080681 1.780048 0
M  V30 18 C -0.884004 4.973696 -0.912170 0
M  V30 19 C -0.391051 3.965507 -1.705841 0
M  V30 20 N 0.754174 -0.880415 -1.374394 0
M  V30 21 C 0.374600 -1.653764 -0.344701 0
M  V30 22 C -0.496942 -2.836989 -0.357169 0
M  V30 23 C -1.703727 -2.825069 0.309541 0
M  V30 24 C -2.567791 -3.901322 0.339443 0
M  V30 25 C -2.174621 -5.044655 -0.347710 0
M  V30 26 N -2.800458 -6.221605 -0.489595 0
M  V30 27 C -2.006654 -7.013712 -1.251477 0
M  V30 28 N -0.916168 -6.272923 -1.544269 0
M  V30 29 N -1.005627 -5.072675 -1.000366 0
M  V30 30 C -0.166908 -4.000385 -1.018069 0
M  V30 31 N -0.222205 -1.673722 2.949557 0
M  V30 32 H -2.238221 -2.524272 4.245799 0
M  V30 33 H -1.450066 -2.920252 5.780993 0
M  V30 34 H -1.828798 -1.171623 5.346033 0
M  V30 35 H 1.047902 -2.781586 5.804199 0
M  V30 36 H 3.144152 -2.657873 4.465912 0
M  V30 37 H 3.051025 -1.902922 2.170472 0
M  V30 38 H 2.217668 0.521055 0.979329 0
M  V30 39 H 2.324922 0.553028 -2.873681 0
M  V30 40 H 3.016563 1.563098 -1.606787 0
M  V30 41 H 0.627072 2.057499 -3.100836 0
M  V30 42 H 1.857889 2.752785 0.385015 0
M  V30 43 H 1.033023 4.497667 1.835285 0
M  V30 44 H -1.671089 5.617516 -1.281039 0
M  V30 45 H -0.842553 3.870265 -2.704019 0
M  V30 46 H -2.054137 -1.964370 0.856035 0
M  V30 47 H -3.508869 -3.875717 0.866004 0
M  V30 48 H -2.162920 -8.023202 -1.582000 0
M  V30 49 H 0.772168 -4.028242 -1.544331 0
M  V30 END ATOM
M  V30 BEGIN BOND
M  V30 1 1 1 2
M  V30 2 2 2 3
M  V30 3 1 3 4
M  V30 4 2 4 5
M  V30 5 1 5 6
M  V30 6 1 6 7
M  V30 7 1 7 8
M  V30 8 1 8 9
M  V30 9 1 9 10
M  V30 10 1 10 11
M  V30 11 1 11 12
M  V30 12 2 12 13
M  V30 13 1 13 14
M  V30 14 2 14 15
M  V30 15 1 15 16
M  V30 16 3 16 17
M  V30 17 1 15 18
M  V30 18 2 18 19
M  V30 19 2 9 20
M  V30 20 1 20 21
M  V30 21 1 21 22
M  V30 22 1 22 23
M  V30 23 2 23 24
M  V30 24 1 24 25
M  V30 25 2 25 26
M  V30 26 1 26 27
M  V30 27 2 27 28
M  V30 28 1 28 29
M  V30 29 1 29 30
M  V30 30 2 6 31
M  V30 31 1 31 2
M  V30 32 2 21 7
M  V30 33 2 30 22
M  V30 34 1 19 12
M  V30 35 1 29 25
M  V30 36 1 1 32
M  V30 37 1 1 33
M  V30 38 1 1 34
M  V30 39 1 3 35
M  V30 40 1 4 36
M  V30 41 1 5 37
M  V30 42 1 8 38
M  V30 43 1 10 39
M  V30 44 1 10 40
M  V30 45 1 11 41
M  V30 46 1 13 42
M  V30 47 1 14 43
M  V30 48 1 18 44
M  V30 49 1 19 45
M  V30 50 1 23 46
M  V30 51 1 24 47
M  V30 52 1 27 48
M  V30 53 1 30 49
M  V30 END BOND
M  V30 END CTAB
M  END
>  <Dataset>  (897) 
ChEMBL_Kinases

>  <Ligand_Instance>  (897) 
nan

>  <PDB_ID>  (897) 
nan

>  <Standardized_SMILES>  (897) 
Cc1cccc(-c2[nH]c(CNc3ccc(C#N)cc3)nc2-c2ccc3ncnn3c2)n1

>  <Name>  (897) 
nan

>  <Pocket>  (897) 
nan

>  <ATP_Site>  (897) 
nan

>  <Peripheral>  (897) 
nan

>  <Num_H_Atoms_ProtBoundConf>  (897) 
nan

>  <Num_Resolved_Atoms>  (897) 
nan

>  <Num_Not_Resolved_Atoms>  (897) 
nan

$$$$
CHEMBL3675505
     RDKit          3D

  0  0  0  0  0  0  0  0  0  0999 V3000
M  V30 BEGIN CTAB
M  V30 COUNTS 67 71 0 0 0
M  V30 BEGIN ATOM
M  V30 1 N 3.482990 -3.512368 5.492828 0
M  V30 2 C 4.430384 -2.645231 4.903432 0
M  V30 3 O 5.046062 -2.642969 5.973741 0
M  V30 4 C 4.315998 -2.192456 3.530614 0
M  V30 5 C 5.314149 -1.353649 3.098133 0
M  V30 6 C 5.223859 -0.907164 1.781070 0
M  V30 7 C 4.171066 -1.316424 1.003044 0
M  V30 8 C 3.223717 -2.147166 1.503742 0
M  V30 9 C 2.154359 -2.555345 0.697065 0
M  V30 10 N 2.009502 -2.132369 -0.659176 0
M  V30 11 C 0.873129 -2.605183 -1.409766 0
M  V30 12 C 0.863781 -2.087954 -2.791423 0
M  V30 13 C 0.813818 -0.617659 -2.980466 0
M  V30 14 N -0.337449 0.049459 -2.437122 0
M  V30 15 C -1.556929 -0.264715 -3.115422 0
M  V30 16 C -1.622383 0.637490 -4.339642 0
M  V30 17 C -0.770274 1.809549 -3.971208 0
M  V30 18 C -0.164452 1.475811 -2.636855 0
M  V30 19 C -0.415318 -2.466416 -0.752874 0
M  V30 20 C -1.404134 -3.448306 -0.880958 0
M  V30 21 C -2.656556 -3.450578 -0.305893 0
M  V30 22 C -2.969104 -2.376514 0.476046 0
M  V30 23 C -2.065606 -1.352234 0.668992 0
M  V30 24 N -2.444369 -0.264853 1.492527 0
M  V30 25 C -3.072319 0.982462 1.324406 0
M  V30 26 O -3.366655 1.157291 0.113498 0
M  V30 27 C -3.331118 1.911762 2.401160 0
M  V30 28 C -3.951146 3.090951 1.972706 0
M  V30 29 C -4.276347 4.096622 2.851078 0
M  V30 30 C -4.005274 3.987665 4.196576 0
M  V30 31 F -4.282504 4.915900 5.145349 0
M  V30 32 C -3.387138 2.823315 4.655284 0
M  V30 33 C -3.078128 1.841309 3.746115 0
M  V30 34 F -2.488712 0.717895 4.149991 0
M  V30 35 C -0.816486 -1.420300 0.053734 0
M  V30 36 N 1.261853 -3.365330 1.242093 0
M  V30 37 C 1.294323 -3.828637 2.501626 0
M  V30 38 N 2.308909 -3.463070 3.323414 0
M  V30 39 C 3.240563 -2.638742 2.809382 0
M  V30 40 H 2.816887 -4.304529 5.531278 0
M  V30 41 H 2.793948 -4.128462 5.951340 0
M  V30 42 H 6.101284 -1.090567 3.790386 0
M  V30 43 H 5.992569 -0.248424 1.414436 0
M  V30 44 H 4.156246 -0.942033 0.005805 0
M  V30 45 H 2.659645 -1.501367 -1.170711 0
M  V30 46 H 1.052613 -3.731653 -1.492663 0
M  V30 47 H -0.036469 -2.510541 -3.319746 0
M  V30 48 H 1.721720 -2.478122 -3.391606 0
M  V30 49 H 0.753828 -0.450047 -4.097424 0
M  V30 50 H 1.753155 -0.093813 -2.693999 0
M  V30 51 H -1.652662 -1.296294 -3.479617 0
M  V30 52 H -2.431959 -0.032611 -2.469979 0
M  V30 53 H -2.678738 0.971421 -4.523694 0
M  V30 54 H -1.317439 0.131854 -5.264200 0
M  V30 55 H -1.375893 2.753544 -3.901536 0
M  V30 56 H 0.006702 1.973306 -4.748614 0
M  V30 57 H 0.928349 1.683998 -2.641129 0
M  V30 58 H -0.604116 2.070451 -1.811948 0
M  V30 59 H -1.137113 -4.307668 -1.514864 0
M  V30 60 H -3.311798 -4.292542 -0.504004 0
M  V30 61 H -3.929542 -2.335409 0.942585 0
M  V30 62 H -2.116857 -0.614541 2.409865 0
M  V30 63 H -4.216670 3.291344 0.924359 0
M  V30 64 H -4.749925 4.997008 2.522941 0
M  V30 65 H -3.137966 2.648933 5.681988 0
M  V30 66 H -0.123834 -0.608919 0.228387 0
M  V30 67 H 0.528736 -4.496382 2.900297 0
M  V30 END ATOM
M  V30 BEGIN BOND
M  V30 1 1 1 2
M  V30 2 2 2 3
M  V30 3 1 2 4
M  V30 4 2 4 5
M  V30 5 1 5 6
M  V30 6 2 6 7
M  V30 7 1 7 8
M  V30 8 2 8 9
M  V30 9 1 9 10
M  V30 10 1 10 11
M  V30 11 1 11 12
M  V30 12 1 12 13
M  V30 13 1 13 14
M  V30 14 1 14 15
M  V30 15 1 15 16
M  V30 16 1 16 17
M  V30 17 1 17 18
M  V30 18 1 11 19
M  V30 19 2 19 20
M  V30 20 1 20 21
M  V30 21 2 21 22
M  V30 22 1 22 23
M  V30 23 1 23 24
M  V30 24 1 24 25
M  V30 25 2 25 26
M  V30 26 1 25 27
M  V30 27 2 27 28
M  V30 28 1 28 29
M  V30 29 2 29 30
M  V30 30 1 30 31
M  V30 31 1 30 32
M  V30 32 2 32 33
M  V30 33 1 33 34
M  V30 34 2 23 35
M  V30 35 1 9 36
M  V30 36 2 36 37
M  V30 37 1 37 38
M  V30 38 2 38 39
M  V30 39 1 39 4
M  V30 40 1 39 8
M  V30 41 1 18 14
M  V30 42 1 35 19
M  V30 43 1 33 27
M  V30 44 1 1 40
M  V30 45 1 1 41
M  V30 46 1 5 42
M  V30 47 1 6 43
M  V30 48 1 7 44
M  V30 49 1 10 45
M  V30 50 1 11 46
M  V30 51 1 12 47
M  V30 52 1 12 48
M  V30 53 1 13 49
M  V30 54 1 13 50
M  V30 55 1 15 51
M  V30 56 1 15 52
M  V30 57 1 16 53
M  V30 58 1 16 54
M  V30 59 1 17 55
M  V30 60 1 17 56
M  V30 61 1 18 57
M  V30 62 1 18 58
M  V30 63 1 20 59
M  V30 64 1 21 60
M  V30 65 1 22 61
M  V30 66 1 24 62
M  V30 67 1 28 63
M  V30 68 1 29 64
M  V30 69 1 32 65
M  V30 70 1 35 66
M  V30 71 1 37 67
M  V30 END BOND
M  V30 END CTAB
M  END
>  <Dataset>  (898) 
ChEMBL_Kinases

>  <Ligand_Instance>  (898) 
nan

>  <PDB_ID>  (898) 
nan

>  <Standardized_SMILES>  (898) 
NC(=O)c1cccc2c(NC(CCN3CCCC3)c3cccc(NC(=O)c4ccc(F)cc4F)c3)ncnc12

>  <Name>  (898) 
nan

>  <Pocket>  (898) 
nan

>  <ATP_Site>  (898) 
nan

>  <Peripheral>  (898) 
nan

>  <Num_H_Atoms_ProtBoundConf>  (898) 
nan

>  <Num_Resolved_Atoms>  (898) 
nan

>  <Num_Not_Resolved_Atoms>  (898) 
nan

$$$$
CHEMBL3675503
     RDKit          3D

  0  0  0  0  0  0  0  0  0  0999 V3000
M  V30 BEGIN CTAB
M  V30 COUNTS 65 69 0 0 0
M  V30 BEGIN ATOM
M  V30 1 C 4.714152 2.607242 7.660822 0
M  V30 2 N 4.107304 1.307287 7.435678 0
M  V30 3 C 2.708031 1.350324 7.754279 0
M  V30 4 C 1.866592 1.858053 6.593080 0
M  V30 5 N 2.137545 0.996426 5.478173 0
M  V30 6 C 1.348869 1.068050 4.302976 0
M  V30 7 C 0.293017 1.950870 4.215277 0
M  V30 8 C -0.494036 2.047500 3.086306 0
M  V30 9 C -0.190066 1.217591 2.020793 0
M  V30 10 C -0.873159 1.132120 0.721798 0
M  V30 11 O -0.553720 0.357440 -0.243943 0
M  V30 12 N -2.010753 1.924453 0.363284 0
M  V30 13 C -2.397559 1.570154 -0.966149 0
M  V30 14 C -1.778015 2.342030 -1.931861 0
M  V30 15 C -2.073390 2.090031 -3.256971 0
M  V30 16 C -2.967285 1.085691 -3.551702 0
M  V30 17 C -3.606211 0.293371 -2.624956 0
M  V30 18 C -4.562978 -0.809206 -2.903979 0
M  V30 19 N -3.915158 -2.105774 -2.934889 0
M  V30 20 C -2.886425 -2.493165 -3.836074 0
M  V30 21 N -2.398274 -1.697718 -4.769823 0
M  V30 22 C -1.431617 -2.049419 -5.626308 0
M  V30 23 N -0.872819 -3.275987 -5.594312 0
M  V30 24 C -1.321083 -4.143977 -4.666097 0
M  V30 25 C -0.756460 -5.393874 -4.628131 0
M  V30 26 C 0.281878 -5.764713 -5.551644 0
M  V30 27 N 0.831095 -4.937692 -6.567586 0
M  V30 28 O 0.833764 -6.888709 -5.564901 0
M  V30 29 C -1.160735 -6.334921 -3.709230 0
M  V30 30 C -2.166250 -5.960944 -2.822404 0
M  V30 31 C -2.702322 -4.696276 -2.898602 0
M  V30 32 C -2.316579 -3.744673 -3.803151 0
M  V30 33 C -3.288276 0.571960 -1.301196 0
M  V30 34 C 0.872577 0.344070 2.137281 0
M  V30 35 N 1.631158 0.261157 3.244910 0
M  V30 36 C 3.228892 0.044258 5.558608 0
M  V30 37 C 4.416239 0.771869 6.144942 0
M  V30 38 H 5.801119 2.434907 7.764854 0
M  V30 39 H 4.340085 3.023358 8.611964 0
M  V30 40 H 4.553297 3.315556 6.835338 0
M  V30 41 H 2.369858 0.312543 7.984041 0
M  V30 42 H 2.580327 1.945702 8.662426 0
M  V30 43 H 0.811591 1.817757 6.924573 0
M  V30 44 H 2.172816 2.908469 6.414905 0
M  V30 45 H 0.017641 2.617171 5.017899 0
M  V30 46 H -1.333097 2.691273 2.906932 0
M  V30 47 H -2.378958 2.613565 1.085150 0
M  V30 48 H -1.077046 3.131275 -1.726147 0
M  V30 49 H -1.618616 2.663094 -4.061362 0
M  V30 50 H -3.184491 0.921421 -4.588025 0
M  V30 51 H -5.057885 -0.582111 -3.879216 0
M  V30 52 H -5.287434 -0.790145 -2.073514 0
M  V30 53 H -4.264201 -2.778019 -2.220032 0
M  V30 54 H -1.123552 -1.284096 -6.350774 0
M  V30 55 H 1.260169 -4.007552 -6.509348 0
M  V30 56 H 0.867118 -5.204430 -7.594717 0
M  V30 57 H -0.711714 -7.309243 -3.689369 0
M  V30 58 H -2.471335 -6.717538 -2.105180 0
M  V30 59 H -3.461189 -4.529766 -2.169453 0
M  V30 60 H -3.698158 0.047881 -0.455877 0
M  V30 61 H 1.197579 -0.352051 1.360865 0
M  V30 62 H 2.992228 -0.796276 6.250024 0
M  V30 63 H 3.501094 -0.363901 4.564260 0
M  V30 64 H 5.322684 0.137155 6.220867 0
M  V30 65 H 4.651065 1.631297 5.459411 0
M  V30 END ATOM
M  V30 BEGIN BOND
M  V30 1 1 1 2
M  V30 2 1 2 3
M  V30 3 1 3 4
M  V30 4 1 4 5
M  V30 5 1 5 6
M  V30 6 2 6 7
M  V30 7 1 7 8
M  V30 8 2 8 9
M  V30 9 1 9 10
M  V30 10 2 10 11
M  V30 11 1 10 12
M  V30 12 1 12 13
M  V30 13 2 13 14
M  V30 14 1 14 15
M  V30 15 2 15 16
M  V30 16 1 16 17
M  V30 17 1 17 18
M  V30 18 1 18 19
M  V30 19 1 19 20
M  V30 20 2 20 21
M  V30 21 1 21 22
M  V30 22 2 22 23
M  V30 23 1 23 24
M  V30 24 2 24 25
M  V30 25 1 25 26
M  V30 26 1 26 27
M  V30 27 2 26 28
M  V30 28 1 25 29
M  V30 29 2 29 30
M  V30 30 1 30 31
M  V30 31 2 31 32
M  V30 32 2 17 33
M  V30 33 1 9 34
M  V30 34 2 34 35
M  V30 35 1 5 36
M  V30 36 1 36 37
M  V30 37 1 37 2
M  V30 38 1 35 6
M  V30 39 1 33 13
M  V30 40 1 32 20
M  V30 41 1 32 24
M  V30 42 1 1 38
M  V30 43 1 1 39
M  V30 44 1 1 40
M  V30 45 1 3 41
M  V30 46 1 3 42
M  V30 47 1 4 43
M  V30 48 1 4 44
M  V30 49 1 7 45
M  V30 50 1 8 46
M  V30 51 1 12 47
M  V30 52 1 14 48
M  V30 53 1 15 49
M  V30 54 1 16 50
M  V30 55 1 18 51
M  V30 56 1 18 52
M  V30 57 1 19 53
M  V30 58 1 22 54
M  V30 59 1 27 55
M  V30 60 1 27 56
M  V30 61 1 29 57
M  V30 62 1 30 58
M  V30 63 1 31 59
M  V30 64 1 33 60
M  V30 65 1 34 61
M  V30 66 1 36 62
M  V30 67 1 36 63
M  V30 68 1 37 64
M  V30 69 1 37 65
M  V30 END BOND
M  V30 END CTAB
M  END
>  <Dataset>  (899) 
ChEMBL_Kinases

>  <Ligand_Instance>  (899) 
nan

>  <PDB_ID>  (899) 
nan

>  <Standardized_SMILES>  (899) 
CN1CCN(c2ccc(C(=O)Nc3cccc(CNc4ncnc5c(C(N)=O)cccc45)c3)cn2)CC1

>  <Name>  (899) 
nan

>  <Pocket>  (899) 
nan

>  <ATP_Site>  (899) 
nan

>  <Peripheral>  (899) 
nan

>  <Num_H_Atoms_ProtBoundConf>  (899) 
nan

>  <Num_Resolved_Atoms>  (899) 
nan

>  <Num_Not_Resolved_Atoms>  (899) 
nan

$$$$
CHEMBL4212803
     RDKit          3D

  0  0  0  0  0  0  0  0  0  0999 V3000
M  V30 BEGIN CTAB
M  V30 COUNTS 52 56 0 0 0
M  V30 BEGIN ATOM
M  V30 1 O -0.323268 -2.667851 1.020456 0
M  V30 2 C 0.935818 -2.808115 0.871378 0
M  V30 3 C 1.788492 -2.428799 2.050490 0
M  V30 4 S 2.236334 -0.678426 1.928363 0
M  V30 5 C 0.796971 0.372005 2.094572 0
M  V30 6 N -0.374769 -0.248587 2.280321 0
M  V30 7 C -1.542838 0.426813 2.407706 0
M  V30 8 C -1.407390 1.796819 2.328057 0
M  V30 9 C -0.190715 2.376728 2.138194 0
M  V30 10 O -0.257804 3.628565 2.090391 0
M  V30 11 N 0.965357 1.701879 2.012884 0
M  V30 12 C 2.204262 2.385051 1.810558 0
M  V30 13 C 2.911455 2.764646 3.042719 0
M  V30 14 C 3.853011 2.039975 3.734174 0
M  V30 15 C 4.500625 2.417675 4.884817 0
M  V30 16 C 4.184598 3.665459 5.426269 0
M  V30 17 C 3.245705 4.443991 4.779448 0
M  V30 18 C 2.621681 4.002811 3.611201 0
M  V30 19 S -3.107546 2.393617 2.527062 0
M  V30 20 C -3.899982 0.818067 1.998675 0
M  V30 21 C -2.897704 -0.136179 2.617915 0
M  V30 22 N 1.494009 -3.295974 -0.344149 0
M  V30 23 C 0.519277 -3.599428 -1.342431 0
M  V30 24 N -0.117818 -4.541671 -1.657863 0
M  V30 25 C -0.998221 -4.597468 -2.657390 0
M  V30 26 C -1.746487 -5.695247 -3.031662 0
M  V30 27 C -2.615098 -5.580870 -4.094157 0
M  V30 28 C -2.817471 -4.443207 -4.844105 0
M  V30 29 C -3.742003 -4.287482 -5.990129 0
M  V30 30 F -4.540609 -3.154222 -5.860357 0
M  V30 31 F -4.506264 -5.449493 -6.083266 0
M  V30 32 F -2.967432 -4.133042 -7.123609 0
M  V30 33 C -2.080767 -3.338319 -4.486448 0
M  V30 34 C -1.199004 -3.437451 -3.415615 0
M  V30 35 S -0.057919 -2.274896 -2.613096 0
M  V30 36 H 2.754445 -2.996516 2.009256 0
M  V30 37 H 1.218742 -2.649806 2.970332 0
M  V30 38 H 2.890186 1.793337 1.161448 0
M  V30 39 H 1.950205 3.323793 1.237641 0
M  V30 40 H 4.124170 1.087944 3.352271 0
M  V30 41 H 5.230503 1.780497 5.362491 0
M  V30 42 H 4.678004 3.975830 6.320653 0
M  V30 43 H 3.058364 5.391430 5.260518 0
M  V30 44 H 1.935822 4.728637 3.253085 0
M  V30 45 H -3.887207 0.713647 0.895998 0
M  V30 46 H -4.883839 0.686407 2.467659 0
M  V30 47 H -3.113462 -0.180219 3.721939 0
M  V30 48 H -2.950617 -1.139509 2.186452 0
M  V30 49 H 2.539784 -3.385481 -0.395426 0
M  V30 50 H -1.724527 -6.673542 -2.563692 0
M  V30 51 H -3.227478 -6.438082 -4.418906 0
M  V30 52 H -2.095241 -2.352281 -4.949403 0
M  V30 END ATOM
M  V30 BEGIN BOND
M  V30 1 2 1 2
M  V30 2 1 2 3
M  V30 3 1 3 4
M  V30 4 1 4 5
M  V30 5 2 5 6
M  V30 6 1 6 7
M  V30 7 2 7 8
M  V30 8 1 8 9
M  V30 9 2 9 10
M  V30 10 1 9 11
M  V30 11 1 11 12
M  V30 12 1 12 13
M  V30 13 2 13 14
M  V30 14 1 14 15
M  V30 15 2 15 16
M  V30 16 1 16 17
M  V30 17 2 17 18
M  V30 18 1 8 19
M  V30 19 1 19 20
M  V30 20 1 20 21
M  V30 21 1 2 22
M  V30 22 1 22 23
M  V30 23 2 23 24
M  V30 24 1 24 25
M  V30 25 2 25 26
M  V30 26 1 26 27
M  V30 27 2 27 28
M  V30 28 1 28 29
M  V30 29 1 29 30
M  V30 30 1 29 31
M  V30 31 1 29 32
M  V30 32 1 28 33
M  V30 33 2 33 34
M  V30 34 1 34 35
M  V30 35 1 11 5
M  V30 36 1 18 13
M  V30 37 1 35 23
M  V30 38 1 21 7
M  V30 39 1 34 25
M  V30 40 1 3 36
M  V30 41 1 3 37
M  V30 42 1 12 38
M  V30 43 1 12 39
M  V30 44 1 14 40
M  V30 45 1 15 41
M  V30 46 1 16 42
M  V30 47 1 17 43
M  V30 48 1 18 44
M  V30 49 1 20 45
M  V30 50 1 20 46
M  V30 51 1 21 47
M  V30 52 1 21 48
M  V30 53 1 22 49
M  V30 54 1 26 50
M  V30 55 1 27 51
M  V30 56 1 33 52
M  V30 END BOND
M  V30 END CTAB
M  END
>  <Dataset>  (900) 
ChEMBL_Kinases

>  <Ligand_Instance>  (900) 
nan

>  <PDB_ID>  (900) 
nan

>  <Standardized_SMILES>  (900) 
O=C(CSc1nc2c(c(=O)n1Cc1ccccc1)SCC2)Nc1nc2ccc(C(F)(F)F)cc2s1

>  <Name>  (900) 
nan

>  <Pocket>  (900) 
nan

>  <ATP_Site>  (900) 
nan

>  <Peripheral>  (900) 
nan

>  <Num_H_Atoms_ProtBoundConf>  (900) 
nan

>  <Num_Resolved_Atoms>  (900) 
nan

>  <Num_Not_Resolved_Atoms>  (900) 
nan

$$$$
CHEMBL3675514
     RDKit          3D

  0  0  0  0  0  0  0  0  0  0999 V3000
M  V30 BEGIN CTAB
M  V30 COUNTS 47 49 0 0 0
M  V30 BEGIN ATOM
M  V30 1 C -0.032847 -4.526848 2.403507 0
M  V30 2 N -1.018002 -3.506149 2.004549 0
M  V30 3 C -2.024691 -4.139457 1.155691 0
M  V30 4 C -0.355637 -2.429861 1.311702 0
M  V30 5 C -1.381955 -1.316883 1.069303 0
M  V30 6 N -0.818206 -0.224032 0.391702 0
M  V30 7 C -0.440571 0.986586 -0.278834 0
M  V30 8 N -1.153417 2.089736 -0.550309 0
M  V30 9 C -0.641030 3.136136 -1.188757 0
M  V30 10 N 0.624336 3.115954 -1.584907 0
M  V30 11 C 1.392298 2.057517 -1.350922 0
M  V30 12 C 2.690657 2.198542 -1.829693 0
M  V30 13 C 3.156365 3.392134 -2.517081 0
M  V30 14 N 4.498570 3.463670 -2.977312 0
M  V30 15 O 2.437552 4.383227 -2.735618 0
M  V30 16 C 3.554211 1.146365 -1.628301 0
M  V30 17 C 3.131027 0.016917 -0.981076 0
M  V30 18 O 3.970934 -1.048001 -0.766597 0
M  V30 19 C 1.826890 -0.020769 -0.547480 0
M  V30 20 C 0.879812 0.965897 -0.692334 0
M  V30 21 C -1.896082 -1.023652 2.458981 0
M  V30 22 C -0.956120 -0.351713 3.217997 0
M  V30 23 C -1.343439 -0.021629 4.519702 0
M  V30 24 C -2.570202 -0.316447 5.077631 0
M  V30 25 C -3.451468 -0.988238 4.255070 0
M  V30 26 Cl -5.043074 -1.428882 4.825978 0
M  V30 27 C -3.142568 -1.354371 2.942781 0
M  V30 28 H 0.705800 -4.738725 1.634837 0
M  V30 29 H 0.422225 -4.147263 3.347295 0
M  V30 30 H -0.615743 -5.445500 2.612790 0
M  V30 31 H -2.014730 -3.731951 0.134899 0
M  V30 32 H -2.999421 -4.006233 1.651460 0
M  V30 33 H -1.857084 -5.242335 1.100314 0
M  V30 34 H 0.458677 -2.053470 1.958603 0
M  V30 35 H 0.108857 -2.782333 0.367743 0
M  V30 36 H -2.219902 -1.788852 0.521270 0
M  V30 37 H -1.809063 0.153126 0.553448 0
M  V30 38 H -1.315290 3.964737 -1.348029 0
M  V30 39 H 5.386364 3.083320 -2.528062 0
M  V30 40 H 5.306561 3.056190 -2.460108 0
M  V30 41 H 4.577455 1.180324 -1.970915 0
M  V30 42 H 4.295264 -1.313254 0.157734 0
M  V30 43 H 1.522402 -0.914630 -0.044511 0
M  V30 44 H 0.032707 -0.070975 2.883740 0
M  V30 45 H -0.646419 0.514528 5.181845 0
M  V30 46 H -2.832862 -0.042910 6.089395 0
M  V30 47 H -3.809057 -1.873812 2.272475 0
M  V30 END ATOM
M  V30 BEGIN BOND
M  V30 1 1 1 2
M  V30 2 1 2 3
M  V30 3 1 2 4
M  V30 4 1 4 5
M  V30 5 1 5 6
M  V30 6 1 6 7
M  V30 7 2 7 8
M  V30 8 1 8 9
M  V30 9 2 9 10
M  V30 10 1 10 11
M  V30 11 2 11 12
M  V30 12 1 12 13
M  V30 13 1 13 14
M  V30 14 2 13 15
M  V30 15 1 12 16
M  V30 16 2 16 17
M  V30 17 1 17 18
M  V30 18 1 17 19
M  V30 19 2 19 20
M  V30 20 1 5 21
M  V30 21 2 21 22
M  V30 22 1 22 23
M  V30 23 2 23 24
M  V30 24 1 24 25
M  V30 25 1 25 26
M  V30 26 2 25 27
M  V30 27 1 20 7
M  V30 28 1 27 21
M  V30 29 1 20 11
M  V30 30 1 1 28
M  V30 31 1 1 29
M  V30 32 1 1 30
M  V30 33 1 3 31
M  V30 34 1 3 32
M  V30 35 1 3 33
M  V30 36 1 4 34
M  V30 37 1 4 35
M  V30 38 1 5 36
M  V30 39 1 6 37
M  V30 40 1 9 38
M  V30 41 1 14 39
M  V30 42 1 14 40
M  V30 43 1 16 41
M  V30 44 1 18 42
M  V30 45 1 19 43
M  V30 46 1 22 44
M  V30 47 1 23 45
M  V30 48 1 24 46
M  V30 49 1 27 47
M  V30 END BOND
M  V30 END CTAB
M  END
>  <Dataset>  (901) 
ChEMBL_Kinases

>  <Ligand_Instance>  (901) 
nan

>  <PDB_ID>  (901) 
nan

>  <Standardized_SMILES>  (901) 
CN(C)CC(Nc1ncnc2c(C(N)=O)cc(O)cc12)c1cccc(Cl)c1

>  <Name>  (901) 
nan

>  <Pocket>  (901) 
nan

>  <ATP_Site>  (901) 
nan

>  <Peripheral>  (901) 
nan

>  <Num_H_Atoms_ProtBoundConf>  (901) 
nan

>  <Num_Resolved_Atoms>  (901) 
nan

>  <Num_Not_Resolved_Atoms>  (901) 
nan

$$$$
CHEMBL3260615
     RDKit          3D

  0  0  0  0  0  0  0  0  0  0999 V3000
M  V30 BEGIN CTAB
M  V30 COUNTS 48 52 0 0 0
M  V30 BEGIN ATOM
M  V30 1 C 1.542556 -1.650766 5.124605 0
M  V30 2 C 1.530570 -2.245539 3.763424 0
M  V30 3 C 2.148465 -3.472967 3.638586 0
M  V30 4 C 2.221532 -4.152538 2.428631 0
M  V30 5 C 1.646506 -3.559456 1.315704 0
M  V30 6 C 1.034489 -2.332364 1.464587 0
M  V30 7 C 0.384752 -1.556270 0.386425 0
M  V30 8 N 1.243023 -1.016118 -0.526637 0
M  V30 9 C 0.429805 -0.352044 -1.399338 0
M  V30 10 C 0.926486 0.418316 -2.577826 0
M  V30 11 N 1.150779 1.766296 -2.229035 0
M  V30 12 C 1.372833 3.096531 -1.884113 0
M  V30 13 C 2.156336 3.786551 -1.009870 0
M  V30 14 C 2.067715 5.146995 -0.974493 0
M  V30 15 C 1.198850 5.816164 -1.810754 0
M  V30 16 C 0.390188 5.176354 -2.706097 0
M  V30 17 Cl -0.606068 6.250797 -3.636510 0
M  V30 18 C 0.488109 3.782678 -2.734889 0
M  V30 19 Cl -0.639076 3.169854 -3.957312 0
M  V30 20 N -0.844165 -0.474760 -1.048756 0
M  V30 21 C -0.918258 -1.231379 0.079301 0
M  V30 22 C -1.928151 -1.758513 0.990746 0
M  V30 23 C -2.467167 -1.014737 2.016579 0
M  V30 24 C -3.412273 -1.651255 2.790450 0
M  V30 25 C -3.806951 -2.944024 2.571046 0
M  V30 26 N -4.703619 -3.762938 3.189680 0
M  V30 27 C -4.717056 -4.957357 2.573585 0
M  V30 28 N -3.823345 -4.878657 1.566687 0
M  V30 29 N -3.271304 -3.676249 1.555082 0
M  V30 30 C -2.334826 -3.072343 0.774324 0
M  V30 31 N 0.990476 -1.717104 2.655360 0
M  V30 32 H 0.873754 -0.780220 5.209064 0
M  V30 33 H 1.278634 -2.404556 5.871226 0
M  V30 34 H 2.608502 -1.377006 5.317589 0
M  V30 35 H 2.613463 -3.989912 4.455502 0
M  V30 36 H 2.690020 -5.098918 2.304655 0
M  V30 37 H 1.625962 -3.965970 0.319768 0
M  V30 38 H 2.278791 -1.037008 -0.633103 0
M  V30 39 H 1.761122 -0.156022 -3.020117 0
M  V30 40 H 0.131317 0.339674 -3.404339 0
M  V30 41 H 1.893542 1.386096 -1.552184 0
M  V30 42 H 2.775286 3.135741 -0.430241 0
M  V30 43 H 2.739774 5.584271 -0.239138 0
M  V30 44 H 1.257228 6.867381 -1.652002 0
M  V30 45 H -2.147319 0.001317 2.177258 0
M  V30 46 H -3.875939 -1.129709 3.611508 0
M  V30 47 H -5.307600 -5.829193 2.805432 0
M  V30 48 H -1.903722 -3.646335 -0.035323 0
M  V30 END ATOM
M  V30 BEGIN BOND
M  V30 1 1 1 2
M  V30 2 2 2 3
M  V30 3 1 3 4
M  V30 4 2 4 5
M  V30 5 1 5 6
M  V30 6 1 6 7
M  V30 7 1 7 8
M  V30 8 1 8 9
M  V30 9 1 9 10
M  V30 10 1 10 11
M  V30 11 1 11 12
M  V30 12 2 12 13
M  V30 13 1 13 14
M  V30 14 2 14 15
M  V30 15 1 15 16
M  V30 16 1 16 17
M  V30 17 2 16 18
M  V30 18 1 18 19
M  V30 19 2 9 20
M  V30 20 1 20 21
M  V30 21 1 21 22
M  V30 22 1 22 23
M  V30 23 2 23 24
M  V30 24 1 24 25
M  V30 25 2 25 26
M  V30 26 1 26 27
M  V30 27 2 27 28
M  V30 28 1 28 29
M  V30 29 1 29 30
M  V30 30 2 6 31
M  V30 31 1 31 2
M  V30 32 2 21 7
M  V30 33 2 30 22
M  V30 34 1 18 12
M  V30 35 1 29 25
M  V30 36 1 1 32
M  V30 37 1 1 33
M  V30 38 1 1 34
M  V30 39 1 3 35
M  V30 40 1 4 36
M  V30 41 1 5 37
M  V30 42 1 8 38
M  V30 43 1 10 39
M  V30 44 1 10 40
M  V30 45 1 11 41
M  V30 46 1 13 42
M  V30 47 1 14 43
M  V30 48 1 15 44
M  V30 49 1 23 45
M  V30 50 1 24 46
M  V30 51 1 27 47
M  V30 52 1 30 48
M  V30 END BOND
M  V30 END CTAB
M  END
>  <Dataset>  (902) 
ChEMBL_Kinases

>  <Ligand_Instance>  (902) 
nan

>  <PDB_ID>  (902) 
nan

>  <Standardized_SMILES>  (902) 
Cc1cccc(-c2[nH]c(CNc3cccc(Cl)c3Cl)nc2-c2ccc3ncnn3c2)n1

>  <Name>  (902) 
nan

>  <Pocket>  (902) 
nan

>  <ATP_Site>  (902) 
nan

>  <Peripheral>  (902) 
nan

>  <Num_H_Atoms_ProtBoundConf>  (902) 
nan

>  <Num_Resolved_Atoms>  (902) 
nan

>  <Num_Not_Resolved_Atoms>  (902) 
nan

$$$$
CHEMBL3675502
     RDKit          3D

  0  0  0  0  0  0  0  0  0  0999 V3000
M  V30 BEGIN CTAB
M  V30 COUNTS 64 67 0 0 0
M  V30 BEGIN ATOM
M  V30 1 C 5.893934 1.271468 6.321693 0
M  V30 2 O 5.980447 0.371146 5.237902 0
M  V30 3 C 5.445511 0.732588 4.017925 0
M  V30 4 C 4.838386 1.963148 3.881667 0
M  V30 5 C 4.299150 2.342594 2.675013 0
M  V30 6 C 4.311580 1.572932 1.547209 0
M  V30 7 C 3.809286 1.710544 0.177357 0
M  V30 8 O 2.599900 1.115251 -0.102332 0
M  V30 9 C 1.382686 1.352237 0.419135 0
M  V30 10 C 0.906155 2.230106 1.362056 0
M  V30 11 C -0.388435 2.355052 1.799918 0
M  V30 12 C -0.724770 3.344067 2.813234 0
M  V30 13 N -2.075754 3.424480 3.223634 0
M  V30 14 O 0.198385 4.068520 3.265694 0
M  V30 15 C -1.306188 1.507551 1.230020 0
M  V30 16 N -2.580108 1.607410 1.639399 0
M  V30 17 C -3.556126 0.820670 1.141258 0
M  V30 18 N -3.137030 -0.049725 0.218954 0
M  V30 19 C -1.915740 -0.217339 -0.241107 0
M  V30 20 N -1.690952 -1.193481 -1.218658 0
M  V30 21 C -2.452510 -2.152589 -1.931039 0
M  V30 22 C -1.602437 -2.936563 -2.924103 0
M  V30 23 N -2.396923 -3.894296 -3.628941 0
M  V30 24 C -1.574468 -4.625563 -4.562472 0
M  V30 25 C -3.470698 -3.190822 -4.305649 0
M  V30 26 C -3.352127 -3.016026 -1.174824 0
M  V30 27 C -2.878034 -4.329306 -1.036712 0
M  V30 28 C -3.562799 -5.330398 -0.380239 0
M  V30 29 C -4.783249 -5.076021 0.187723 0
M  V30 30 C -5.278642 -3.803258 0.072411 0
M  V30 31 F -6.476189 -3.429264 0.592974 0
M  V30 32 C -4.578259 -2.818992 -0.587745 0
M  V30 33 C -0.926929 0.593391 0.276460 0
M  V30 34 C 0.383725 0.521131 -0.115570 0
M  V30 35 C 4.937221 0.326002 1.718588 0
M  V30 36 C 5.492989 -0.094606 2.916278 0
M  V30 37 H 4.881014 1.682355 6.463753 0
M  V30 38 H 6.273681 0.761160 7.230963 0
M  V30 39 H 6.572039 2.156814 6.176574 0
M  V30 40 H 4.743815 2.690093 4.674893 0
M  V30 41 H 3.821637 3.292398 2.493048 0
M  V30 42 H 4.613915 1.359568 -0.547551 0
M  V30 43 H 3.793817 2.831552 -0.057281 0
M  V30 44 H 1.642216 2.885048 1.782041 0
M  V30 45 H -2.839228 3.890970 2.714105 0
M  V30 46 H -2.529458 3.040551 4.084996 0
M  V30 47 H -4.603169 0.837067 1.415964 0
M  V30 48 H -0.710613 -1.272033 -1.539861 0
M  V30 49 H -3.136588 -1.542292 -2.615413 0
M  V30 50 H -0.698126 -3.349870 -2.461901 0
M  V30 51 H -1.250236 -2.186680 -3.678296 0
M  V30 52 H -2.189008 -4.875812 -5.463690 0
M  V30 53 H -1.211428 -5.592404 -4.169336 0
M  V30 54 H -0.679616 -4.020854 -4.847847 0
M  V30 55 H -3.132721 -2.220028 -4.745892 0
M  V30 56 H -3.805276 -3.814495 -5.180360 0
M  V30 57 H -4.304526 -2.966366 -3.609990 0
M  V30 58 H -1.914755 -4.673973 -1.440893 0
M  V30 59 H -3.186068 -6.338260 -0.281080 0
M  V30 60 H -5.422044 -5.745198 0.722350 0
M  V30 61 H -4.962606 -1.817707 -0.700240 0
M  V30 62 H 0.637865 -0.194747 -0.851542 0
M  V30 63 H 5.061029 -0.444545 0.955478 0
M  V30 64 H 5.973917 -1.029733 3.083614 0
M  V30 END ATOM
M  V30 BEGIN BOND
M  V30 1 1 1 2
M  V30 2 1 2 3
M  V30 3 2 3 4
M  V30 4 1 4 5
M  V30 5 2 5 6
M  V30 6 1 6 7
M  V30 7 1 7 8
M  V30 8 1 8 9
M  V30 9 2 9 10
M  V30 10 1 10 11
M  V30 11 1 11 12
M  V30 12 1 12 13
M  V30 13 2 12 14
M  V30 14 2 11 15
M  V30 15 1 15 16
M  V30 16 2 16 17
M  V30 17 1 17 18
M  V30 18 2 18 19
M  V30 19 1 19 20
M  V30 20 1 20 21
M  V30 21 1 21 22
M  V30 22 1 22 23
M  V30 23 1 23 24
M  V30 24 1 23 25
M  V30 25 1 21 26
M  V30 26 2 26 27
M  V30 27 1 27 28
M  V30 28 2 28 29
M  V30 29 1 29 30
M  V30 30 1 30 31
M  V30 31 2 30 32
M  V30 32 1 19 33
M  V30 33 2 33 34
M  V30 34 1 6 35
M  V30 35 2 35 36
M  V30 36 1 36 3
M  V30 37 1 34 9
M  V30 38 1 33 15
M  V30 39 1 32 26
M  V30 40 1 1 37
M  V30 41 1 1 38
M  V30 42 1 1 39
M  V30 43 1 4 40
M  V30 44 1 5 41
M  V30 45 1 7 42
M  V30 46 1 7 43
M  V30 47 1 10 44
M  V30 48 1 13 45
M  V30 49 1 13 46
M  V30 50 1 17 47
M  V30 51 1 20 48
M  V30 52 1 21 49
M  V30 53 1 22 50
M  V30 54 1 22 51
M  V30 55 1 24 52
M  V30 56 1 24 53
M  V30 57 1 24 54
M  V30 58 1 25 55
M  V30 59 1 25 56
M  V30 60 1 25 57
M  V30 61 1 27 58
M  V30 62 1 28 59
M  V30 63 1 29 60
M  V30 64 1 32 61
M  V30 65 1 34 62
M  V30 66 1 35 63
M  V30 67 1 36 64
M  V30 END BOND
M  V30 END CTAB
M  END
>  <Dataset>  (903) 
ChEMBL_Kinases

>  <Ligand_Instance>  (903) 
nan

>  <PDB_ID>  (903) 
nan

>  <Standardized_SMILES>  (903) 
COc1ccc(COc2cc(C(N)=O)c3ncnc(NC(CN(C)C)c4cccc(F)c4)c3c2)cc1

>  <Name>  (903) 
nan

>  <Pocket>  (903) 
nan

>  <ATP_Site>  (903) 
nan

>  <Peripheral>  (903) 
nan

>  <Num_H_Atoms_ProtBoundConf>  (903) 
nan

>  <Num_Resolved_Atoms>  (903) 
nan

>  <Num_Not_Resolved_Atoms>  (903) 
nan

$$$$
CHEMBL3260616
     RDKit          3D

  0  0  0  0  0  0  0  0  0  0999 V3000
M  V30 BEGIN CTAB
M  V30 COUNTS 54 58 0 0 0
M  V30 BEGIN ATOM
M  V30 1 C -0.557249 -2.332994 5.545990 0
M  V30 2 C 0.607914 -2.041276 4.664907 0
M  V30 3 C 1.908509 -1.971687 5.122611 0
M  V30 4 C 2.986774 -1.701546 4.305921 0
M  V30 5 C 2.704798 -1.493461 2.950360 0
M  V30 6 C 1.390595 -1.564105 2.489807 0
M  V30 7 C 1.283535 -1.321145 1.057194 0
M  V30 8 N 1.648302 -0.177707 0.478973 0
M  V30 9 C 1.448092 -0.212014 -0.848251 0
M  V30 10 C 1.637368 0.724147 -1.989885 0
M  V30 11 N 0.412461 1.438280 -2.267264 0
M  V30 12 C -0.385817 2.395874 -1.596368 0
M  V30 13 C 0.020192 2.849169 -0.366529 0
M  V30 14 C -0.662177 3.783278 0.376009 0
M  V30 15 C -1.835725 4.307704 -0.140150 0
M  V30 16 C -2.242624 3.855550 -1.369605 0
M  V30 17 C -3.488664 4.348531 -2.023187 0
M  V30 18 C -1.571304 2.932008 -2.107504 0
M  V30 19 C -2.016584 2.439814 -3.449010 0
M  V30 20 N 0.927037 -1.434475 -1.165404 0
M  V30 21 C 0.836093 -2.088708 0.003174 0
M  V30 22 C 0.326372 -3.463042 0.199059 0
M  V30 23 C -0.810984 -3.599867 0.956286 0
M  V30 24 C -1.347732 -4.852554 1.184627 0
M  V30 25 C -0.759710 -5.972386 0.663842 0
M  V30 26 N -1.009384 -7.294924 0.689637 0
M  V30 27 C -0.040805 -7.908096 -0.034574 0
M  V30 28 N 0.822260 -6.988370 -0.520574 0
M  V30 29 N 0.360732 -5.810539 -0.079191 0
M  V30 30 C 0.900178 -4.597706 -0.313701 0
M  V30 31 N 0.394976 -1.832966 3.353361 0
M  V30 32 H -1.228860 -2.997614 4.930575 0
M  V30 33 H -0.262306 -2.920196 6.435517 0
M  V30 34 H -1.152503 -1.431866 5.784185 0
M  V30 35 H 2.098225 -2.136957 6.177410 0
M  V30 36 H 3.993378 -1.653259 4.690778 0
M  V30 37 H 3.573806 -1.283315 2.334735 0
M  V30 38 H 2.042580 0.649562 0.937600 0
M  V30 39 H 2.008497 0.209765 -2.877257 0
M  V30 40 H 2.363291 1.540251 -1.664671 0
M  V30 41 H -0.010563 1.189463 -3.216198 0
M  V30 42 H 0.910934 2.540847 0.159320 0
M  V30 43 H -0.384419 4.170818 1.346227 0
M  V30 44 H -2.452556 5.040847 0.346760 0
M  V30 45 H -4.155799 3.503886 -2.309814 0
M  V30 46 H -3.228027 5.014892 -2.860291 0
M  V30 47 H -4.004087 5.016936 -1.273254 0
M  V30 48 H -1.184239 2.567811 -4.180922 0
M  V30 49 H -2.206709 1.347470 -3.418986 0
M  V30 50 H -2.887732 2.981635 -3.819214 0
M  V30 51 H -1.378532 -2.813237 1.426231 0
M  V30 52 H -2.236629 -5.040756 1.767494 0
M  V30 53 H -0.010473 -8.972069 -0.170809 0
M  V30 54 H 1.796254 -4.463154 -0.907284 0
M  V30 END ATOM
M  V30 BEGIN BOND
M  V30 1 1 1 2
M  V30 2 2 2 3
M  V30 3 1 3 4
M  V30 4 2 4 5
M  V30 5 1 5 6
M  V30 6 1 6 7
M  V30 7 1 7 8
M  V30 8 1 8 9
M  V30 9 1 9 10
M  V30 10 1 10 11
M  V30 11 1 11 12
M  V30 12 2 12 13
M  V30 13 1 13 14
M  V30 14 2 14 15
M  V30 15 1 15 16
M  V30 16 1 16 17
M  V30 17 2 16 18
M  V30 18 1 18 19
M  V30 19 2 9 20
M  V30 20 1 20 21
M  V30 21 1 21 22
M  V30 22 1 22 23
M  V30 23 2 23 24
M  V30 24 1 24 25
M  V30 25 2 25 26
M  V30 26 1 26 27
M  V30 27 2 27 28
M  V30 28 1 28 29
M  V30 29 1 29 30
M  V30 30 2 6 31
M  V30 31 1 31 2
M  V30 32 2 21 7
M  V30 33 2 30 22
M  V30 34 1 18 12
M  V30 35 1 29 25
M  V30 36 1 1 32
M  V30 37 1 1 33
M  V30 38 1 1 34
M  V30 39 1 3 35
M  V30 40 1 4 36
M  V30 41 1 5 37
M  V30 42 1 8 38
M  V30 43 1 10 39
M  V30 44 1 10 40
M  V30 45 1 11 41
M  V30 46 1 13 42
M  V30 47 1 14 43
M  V30 48 1 15 44
M  V30 49 1 17 45
M  V30 50 1 17 46
M  V30 51 1 17 47
M  V30 52 1 19 48
M  V30 53 1 19 49
M  V30 54 1 19 50
M  V30 55 1 23 51
M  V30 56 1 24 52
M  V30 57 1 27 53
M  V30 58 1 30 54
M  V30 END BOND
M  V30 END CTAB
M  END
>  <Dataset>  (904) 
ChEMBL_Kinases

>  <Ligand_Instance>  (904) 
nan

>  <PDB_ID>  (904) 
nan

>  <Standardized_SMILES>  (904) 
Cc1cccc(-c2[nH]c(CNc3cccc(C)c3C)nc2-c2ccc3ncnn3c2)n1

>  <Name>  (904) 
nan

>  <Pocket>  (904) 
nan

>  <ATP_Site>  (904) 
nan

>  <Peripheral>  (904) 
nan

>  <Num_H_Atoms_ProtBoundConf>  (904) 
nan

>  <Num_Resolved_Atoms>  (904) 
nan

>  <Num_Not_Resolved_Atoms>  (904) 
nan

$$$$
CHEMBL4212734
     RDKit          3D

  0  0  0  0  0  0  0  0  0  0999 V3000
M  V30 BEGIN CTAB
M  V30 COUNTS 56 61 0 0 0
M  V30 BEGIN ATOM
M  V30 1 O 2.722526 -2.313893 4.901988 0
M  V30 2 S 1.536015 -1.999903 4.038484 0
M  V30 3 O 0.333325 -1.915034 4.950982 0
M  V30 4 C 1.692847 -0.428522 3.228102 0
M  V30 5 C 2.374046 -0.587658 1.872206 0
M  V30 6 N 1.729059 -1.634546 1.097089 0
M  V30 7 C 0.967979 -1.270079 -0.047558 0
M  V30 8 N 0.879217 0.010278 -0.443241 0
M  V30 9 C 0.165328 0.377319 -1.520259 0
M  V30 10 N 0.042525 1.707160 -1.981625 0
M  V30 11 C 0.658543 2.850187 -1.363106 0
M  V30 12 C 0.232896 3.105629 0.021523 0
M  V30 13 N 0.658774 2.740702 1.245797 0
M  V30 14 C -0.105412 3.264596 2.211453 0
M  V30 15 C -0.138433 3.233620 3.584272 0
M  V30 16 F 0.800389 2.518356 4.218810 0
M  V30 17 C -1.073221 3.892475 4.350827 0
M  V30 18 F -1.120034 3.872874 5.691737 0
M  V30 19 C -2.037267 4.629836 3.707866 0
M  V30 20 C -2.033589 4.682868 2.329892 0
M  V30 21 C -1.084234 4.012343 1.587206 0
M  V30 22 N -0.851002 3.894249 0.282931 0
M  V30 23 C -0.463599 -0.688995 -2.174089 0
M  V30 24 N -1.246796 -0.668696 -3.274274 0
M  V30 25 C -1.652416 -1.915754 -3.577332 0
M  V30 26 N -1.113640 -2.727918 -2.651198 0
M  V30 27 C -1.245888 -4.143430 -2.536005 0
M  V30 28 C -0.277336 -5.099580 -2.786089 0
M  V30 29 C -0.584779 -6.438685 -2.620574 0
M  V30 30 C -1.844948 -6.834246 -2.209220 0
M  V30 31 C -2.825037 -5.875660 -1.955688 0
M  V30 32 F -4.052100 -6.295895 -1.553304 0
M  V30 33 C -2.508397 -4.536214 -2.124072 0
M  V30 34 C -0.383084 -2.005886 -1.782127 0
M  V30 35 N 0.347268 -2.260427 -0.706190 0
M  V30 36 C 1.894638 -2.989072 1.526448 0
M  V30 37 C 1.316157 -3.313570 2.863606 0
M  V30 38 H 0.708759 0.067837 3.112429 0
M  V30 39 H 2.315731 0.225274 3.868014 0
M  V30 40 H 2.298421 0.371384 1.356980 0
M  V30 41 H 3.417807 -0.852110 2.094201 0
M  V30 42 H -0.554825 1.840504 -2.850523 0
M  V30 43 H 1.773378 2.711515 -1.438267 0
M  V30 44 H 0.459515 3.744797 -1.995620 0
M  V30 45 H -2.820286 5.186250 4.236246 0
M  V30 46 H -2.803404 5.271608 1.819862 0
M  V30 47 H -1.476616 4.384885 -0.424120 0
M  V30 48 H -2.278532 -2.311365 -4.369505 0
M  V30 49 H 0.672646 -4.691893 -3.101934 0
M  V30 50 H 0.210848 -7.143896 -2.830225 0
M  V30 51 H -2.068144 -7.886918 -2.084829 0
M  V30 52 H -3.332669 -3.874964 -1.903243 0
M  V30 53 H 2.973453 -3.311936 1.476962 0
M  V30 54 H 1.396986 -3.664223 0.771093 0
M  V30 55 H 0.220001 -3.474358 2.738220 0
M  V30 56 H 1.800114 -4.247081 3.241837 0
M  V30 END ATOM
M  V30 BEGIN BOND
M  V30 1 2 1 2
M  V30 2 2 2 3
M  V30 3 1 2 4
M  V30 4 1 4 5
M  V30 5 1 5 6
M  V30 6 1 6 7
M  V30 7 2 7 8
M  V30 8 1 8 9
M  V30 9 1 9 10
M  V30 10 1 10 11
M  V30 11 1 11 12
M  V30 12 2 12 13
M  V30 13 1 13 14
M  V30 14 2 14 15
M  V30 15 1 15 16
M  V30 16 1 15 17
M  V30 17 1 17 18
M  V30 18 2 17 19
M  V30 19 1 19 20
M  V30 20 2 20 21
M  V30 21 1 21 22
M  V30 22 2 9 23
M  V30 23 1 23 24
M  V30 24 2 24 25
M  V30 25 1 25 26
M  V30 26 1 26 27
M  V30 27 2 27 28
M  V30 28 1 28 29
M  V30 29 2 29 30
M  V30 30 1 30 31
M  V30 31 1 31 32
M  V30 32 2 31 33
M  V30 33 1 26 34
M  V30 34 2 34 35
M  V30 35 1 6 36
M  V30 36 1 36 37
M  V30 37 1 37 2
M  V30 38 1 35 7
M  V30 39 1 22 12
M  V30 40 1 34 23
M  V30 41 1 21 14
M  V30 42 1 33 27
M  V30 43 1 4 38
M  V30 44 1 4 39
M  V30 45 1 5 40
M  V30 46 1 5 41
M  V30 47 1 10 42
M  V30 48 1 11 43
M  V30 49 1 11 44
M  V30 50 1 19 45
M  V30 51 1 20 46
M  V30 52 1 22 47
M  V30 53 1 25 48
M  V30 54 1 28 49
M  V30 55 1 29 50
M  V30 56 1 30 51
M  V30 57 1 33 52
M  V30 58 1 36 53
M  V30 59 1 36 54
M  V30 60 1 37 55
M  V30 61 1 37 56
M  V30 END BOND
M  V30 END CTAB
M  END
>  <Dataset>  (905) 
ChEMBL_Kinases

>  <Ligand_Instance>  (905) 
nan

>  <PDB_ID>  (905) 
nan

>  <Standardized_SMILES>  (905) 
O=S1(=O)CCN(c2nc(NCc3nc4c(F)c(F)ccc4[nH]3)c3ncn(-c4cccc(F)c4)c3n2)CC1

>  <Name>  (905) 
nan

>  <Pocket>  (905) 
nan

>  <ATP_Site>  (905) 
nan

>  <Peripheral>  (905) 
nan

>  <Num_H_Atoms_ProtBoundConf>  (905) 
nan

>  <Num_Resolved_Atoms>  (905) 
nan

>  <Num_Not_Resolved_Atoms>  (905) 
nan

$$$$
CHEMBL3675500
     RDKit          3D

  0  0  0  0  0  0  0  0  0  0999 V3000
M  V30 BEGIN CTAB
M  V30 COUNTS 52 55 0 0 0
M  V30 BEGIN ATOM
M  V30 1 C 1.534573 -0.074940 4.294304 0
M  V30 2 C 0.392106 0.728691 3.702401 0
M  V30 3 N 0.825463 1.500958 2.576820 0
M  V30 4 C 1.601233 1.105113 1.460760 0
M  V30 5 N 2.114908 -0.115930 1.267071 0
M  V30 6 C 2.854584 -0.462304 0.218827 0
M  V30 7 N 3.157545 0.401100 -0.758170 0
M  V30 8 C 2.669513 1.658805 -0.627005 0
M  V30 9 C 2.990069 2.533359 -1.638295 0
M  V30 10 C 3.803479 2.113609 -2.771904 0
M  V30 11 N 4.323465 0.806573 -2.931303 0
M  V30 12 O 4.106385 2.885585 -3.699357 0
M  V30 13 C 2.548337 3.835366 -1.606537 0
M  V30 14 C 1.777041 4.216600 -0.523748 0
M  V30 15 C 1.491617 3.297160 0.452711 0
M  V30 16 C 1.909910 1.998467 0.458487 0
M  V30 17 C -0.776852 -0.137504 3.464550 0
M  V30 18 C -1.746350 -0.203403 4.481530 0
M  V30 19 C -2.910164 -0.941624 4.459577 0
M  V30 20 C -3.154031 -1.693142 3.329936 0
M  V30 21 C -2.253196 -1.684375 2.285710 0
M  V30 22 N -2.461724 -2.443596 1.099595 0
M  V30 23 C -3.070234 -2.258816 -0.151729 0
M  V30 24 O -3.627374 -1.171653 -0.451777 0
M  V30 25 C -2.977815 -3.441019 -1.025774 0
M  V30 26 C -2.403466 -4.704569 -0.839583 0
M  V30 27 C -2.622125 -5.402446 -2.001832 0
M  V30 28 C -2.173807 -6.809272 -2.244907 0
M  V30 29 F -1.262406 -6.800763 -3.273359 0
M  V30 30 F -3.233372 -7.648910 -2.476385 0
M  V30 31 N -3.289983 -4.607262 -2.842374 0
M  V30 32 N -3.517166 -3.417828 -2.277886 0
M  V30 33 C -1.117150 -0.914585 2.399392 0
M  V30 34 H 1.091211 -0.805859 5.035148 0
M  V30 35 H 2.264465 0.543991 4.850724 0
M  V30 36 H 2.064579 -0.684301 3.548401 0
M  V30 37 H 0.129165 1.442198 4.570921 0
M  V30 38 H 0.495771 2.467350 2.639751 0
M  V30 39 H 3.166677 -1.493117 0.258552 0
M  V30 40 H 5.311042 0.594138 -2.728433 0
M  V30 41 H 3.473128 0.297185 -3.260212 0
M  V30 42 H 2.790390 4.534369 -2.391577 0
M  V30 43 H 1.431308 5.254903 -0.508706 0
M  V30 44 H 0.889548 3.702377 1.240509 0
M  V30 45 H -1.600645 0.372518 5.395999 0
M  V30 46 H -3.600483 -0.932083 5.289998 0
M  V30 47 H -4.047816 -2.292325 3.253018 0
M  V30 48 H -1.976856 -3.336598 1.410202 0
M  V30 49 H -1.915951 -4.965366 0.069517 0
M  V30 50 H -1.642633 -7.201232 -1.348276 0
M  V30 51 H -4.021575 -2.621804 -2.731284 0
M  V30 52 H -0.439997 -0.920332 1.579690 0
M  V30 END ATOM
M  V30 BEGIN BOND
M  V30 1 1 1 2
M  V30 2 1 2 3
M  V30 3 1 3 4
M  V30 4 2 4 5
M  V30 5 1 5 6
M  V30 6 2 6 7
M  V30 7 1 7 8
M  V30 8 2 8 9
M  V30 9 1 9 10
M  V30 10 1 10 11
M  V30 11 2 10 12
M  V30 12 1 9 13
M  V30 13 2 13 14
M  V30 14 1 14 15
M  V30 15 2 15 16
M  V30 16 1 2 17
M  V30 17 2 17 18
M  V30 18 1 18 19
M  V30 19 2 19 20
M  V30 20 1 20 21
M  V30 21 1 21 22
M  V30 22 1 22 23
M  V30 23 2 23 24
M  V30 24 1 23 25
M  V30 25 2 25 26
M  V30 26 1 26 27
M  V30 27 1 27 28
M  V30 28 1 28 29
M  V30 29 1 28 30
M  V30 30 2 27 31
M  V30 31 1 31 32
M  V30 32 2 21 33
M  V30 33 1 16 4
M  V30 34 1 33 17
M  V30 35 1 16 8
M  V30 36 1 32 25
M  V30 37 1 1 34
M  V30 38 1 1 35
M  V30 39 1 1 36
M  V30 40 1 2 37
M  V30 41 1 3 38
M  V30 42 1 6 39
M  V30 43 1 11 40
M  V30 44 1 11 41
M  V30 45 1 13 42
M  V30 46 1 14 43
M  V30 47 1 15 44
M  V30 48 1 18 45
M  V30 49 1 19 46
M  V30 50 1 20 47
M  V30 51 1 22 48
M  V30 52 1 26 49
M  V30 53 1 28 50
M  V30 54 1 32 51
M  V30 55 1 33 52
M  V30 END BOND
M  V30 END CTAB
M  END
>  <Dataset>  (906) 
ChEMBL_Kinases

>  <Ligand_Instance>  (906) 
nan

>  <PDB_ID>  (906) 
nan

>  <Standardized_SMILES>  (906) 
CC(Nc1ncnc2c(C(N)=O)cccc12)c1cccc(NC(=O)c2cc(C(F)F)n[nH]2)c1

>  <Name>  (906) 
nan

>  <Pocket>  (906) 
nan

>  <ATP_Site>  (906) 
nan

>  <Peripheral>  (906) 
nan

>  <Num_H_Atoms_ProtBoundConf>  (906) 
nan

>  <Num_Resolved_Atoms>  (906) 
nan

>  <Num_Not_Resolved_Atoms>  (906) 
nan

$$$$
CHEMBL3260619
     RDKit          3D

  0  0  0  0  0  0  0  0  0  0999 V3000
M  V30 BEGIN CTAB
M  V30 COUNTS 48 52 0 0 0
M  V30 BEGIN ATOM
M  V30 1 C 0.202704 -2.712446 5.025041 0
M  V30 2 C 0.967460 -2.895653 3.764621 0
M  V30 3 C 1.882461 -3.919625 3.639386 0
M  V30 4 C 2.615901 -4.130537 2.490175 0
M  V30 5 C 2.376699 -3.243966 1.458533 0
M  V30 6 C 1.463583 -2.224846 1.588225 0
M  V30 7 C 1.160696 -1.261212 0.551811 0
M  V30 8 N 1.973081 -0.377219 -0.044738 0
M  V30 9 C 1.383234 0.388624 -0.983046 0
M  V30 10 C 2.153272 1.425278 -1.752048 0
M  V30 11 N 2.183197 2.707569 -1.108556 0
M  V30 12 C 1.146998 3.612365 -0.833863 0
M  V30 13 C 1.365960 4.823009 -0.163427 0
M  V30 14 C 0.344422 5.707505 0.092342 0
M  V30 15 C -0.938177 5.454682 -0.292649 0
M  V30 16 F -1.891756 6.361049 -0.012004 0
M  V30 17 C -1.213148 4.289382 -0.950801 0
M  V30 18 F -2.480982 4.035999 -1.333215 0
M  V30 19 C -0.169660 3.422873 -1.193092 0
M  V30 20 N 0.114877 -0.054776 -0.964300 0
M  V30 21 C -0.045677 -1.028407 -0.068049 0
M  V30 22 C -1.312917 -1.709912 0.183290 0
M  V30 23 C -2.512401 -1.188503 0.626857 0
M  V30 24 C -3.585468 -2.035715 0.792311 0
M  V30 25 C -3.482137 -3.378320 0.525562 0
M  V30 26 N -4.402719 -4.353753 0.623763 0
M  V30 27 C -3.795938 -5.492237 0.245319 0
M  V30 28 N -2.508360 -5.204931 -0.081698 0
M  V30 29 N -2.310185 -3.894731 0.090928 0
M  V30 30 C -1.255044 -3.080331 -0.075056 0
M  V30 31 N 0.759314 -2.048915 2.737551 0
M  V30 32 H -0.823852 -2.339131 4.842163 0
M  V30 33 H 0.181051 -3.637876 5.605614 0
M  V30 34 H 0.777596 -1.960213 5.616043 0
M  V30 35 H 2.066400 -4.619628 4.463923 0
M  V30 36 H 3.331908 -4.925189 2.380871 0
M  V30 37 H 2.890418 -3.310463 0.513898 0
M  V30 38 H 2.997498 -0.331105 0.244144 0
M  V30 39 H 3.156841 1.018607 -1.898914 0
M  V30 40 H 1.714345 1.492105 -2.787098 0
M  V30 41 H 3.147867 3.029518 -0.784290 0
M  V30 42 H 2.374034 5.079275 0.168903 0
M  V30 43 H 0.587654 6.626427 0.616415 0
M  V30 44 H -0.462690 2.528145 -1.722341 0
M  V30 45 H -2.465609 -0.114729 0.802234 0
M  V30 46 H -4.494159 -1.570443 1.140791 0
M  V30 47 H -4.067265 -6.531898 0.141821 0
M  V30 48 H -0.357301 -3.592912 -0.428628 0
M  V30 END ATOM
M  V30 BEGIN BOND
M  V30 1 1 1 2
M  V30 2 2 2 3
M  V30 3 1 3 4
M  V30 4 2 4 5
M  V30 5 1 5 6
M  V30 6 1 6 7
M  V30 7 1 7 8
M  V30 8 1 8 9
M  V30 9 1 9 10
M  V30 10 1 10 11
M  V30 11 1 11 12
M  V30 12 2 12 13
M  V30 13 1 13 14
M  V30 14 2 14 15
M  V30 15 1 15 16
M  V30 16 1 15 17
M  V30 17 1 17 18
M  V30 18 2 17 19
M  V30 19 2 9 20
M  V30 20 1 20 21
M  V30 21 1 21 22
M  V30 22 1 22 23
M  V30 23 2 23 24
M  V30 24 1 24 25
M  V30 25 2 25 26
M  V30 26 1 26 27
M  V30 27 2 27 28
M  V30 28 1 28 29
M  V30 29 1 29 30
M  V30 30 2 6 31
M  V30 31 1 31 2
M  V30 32 2 21 7
M  V30 33 2 30 22
M  V30 34 1 19 12
M  V30 35 1 29 25
M  V30 36 1 1 32
M  V30 37 1 1 33
M  V30 38 1 1 34
M  V30 39 1 3 35
M  V30 40 1 4 36
M  V30 41 1 5 37
M  V30 42 1 8 38
M  V30 43 1 10 39
M  V30 44 1 10 40
M  V30 45 1 11 41
M  V30 46 1 13 42
M  V30 47 1 14 43
M  V30 48 1 19 44
M  V30 49 1 23 45
M  V30 50 1 24 46
M  V30 51 1 27 47
M  V30 52 1 30 48
M  V30 END BOND
M  V30 END CTAB
M  END
>  <Dataset>  (907) 
ChEMBL_Kinases

>  <Ligand_Instance>  (907) 
nan

>  <PDB_ID>  (907) 
nan

>  <Standardized_SMILES>  (907) 
Cc1cccc(-c2[nH]c(CNc3ccc(F)c(F)c3)nc2-c2ccc3ncnn3c2)n1

>  <Name>  (907) 
nan

>  <Pocket>  (907) 
nan

>  <ATP_Site>  (907) 
nan

>  <Peripheral>  (907) 
nan

>  <Num_H_Atoms_ProtBoundConf>  (907) 
nan

>  <Num_Resolved_Atoms>  (907) 
nan

>  <Num_Not_Resolved_Atoms>  (907) 
nan

$$$$
CHEMBL3675499
     RDKit          3D

  0  0  0  0  0  0  0  0  0  0999 V3000
M  V30 BEGIN CTAB
M  V30 COUNTS 51 54 0 0 0
M  V30 BEGIN ATOM
M  V30 1 C 0.099427 -4.721099 7.057902 0
M  V30 2 C 0.636682 -3.551883 6.209901 0
M  V30 3 N 1.504691 -2.844334 6.375923 0
M  V30 4 C 1.975161 -1.846030 5.665539 0
M  V30 5 C 1.316956 -1.585686 4.502246 0
M  V30 6 C 1.232994 -0.723628 3.275285 0
M  V30 7 O 0.347756 -0.945140 2.455734 0
M  V30 8 N 2.133872 0.311618 3.055332 0
M  V30 9 C 2.248760 1.238458 1.993078 0
M  V30 10 C 3.253121 2.175088 2.023396 0
M  V30 11 C 3.409072 3.098364 1.017061 0
M  V30 12 C 2.526777 3.068213 -0.039444 0
M  V30 13 C 1.481056 2.161185 -0.159160 0
M  V30 14 C 0.641428 2.266884 -1.363120 0 CFG=1
M  V30 15 C 1.435110 3.023977 -2.435927 0
M  V30 16 N 0.196498 1.013760 -1.901265 0
M  V30 17 C -0.911194 0.243034 -1.427771 0
M  V30 18 N -1.727673 0.601235 -0.441889 0
M  V30 19 C -2.779338 -0.114649 -0.027209 0
M  V30 20 N -3.103603 -1.291367 -0.593804 0
M  V30 21 C -2.317328 -1.722234 -1.605531 0
M  V30 22 C -2.655469 -2.924100 -2.177542 0
M  V30 23 C -3.809166 -3.677169 -1.699082 0
M  V30 24 N -4.626822 -3.216271 -0.636461 0
M  V30 25 O -4.130399 -4.778289 -2.214285 0
M  V30 26 C -1.910951 -3.440009 -3.213451 0
M  V30 27 C -0.826073 -2.706505 -3.644642 0
M  V30 28 C -0.530370 -1.507731 -3.037161 0
M  V30 29 C -1.244368 -0.958304 -2.004222 0
M  V30 30 C 1.425871 1.293307 0.899508 0
M  V30 31 S -0.033737 -2.915488 4.541804 0
M  V30 32 H -0.299506 -4.331386 8.000459 0
M  V30 33 H -0.658002 -5.259711 6.451223 0
M  V30 34 H 1.002208 -5.302960 7.248469 0
M  V30 35 H 2.779520 -1.118431 5.725853 0
M  V30 36 H 2.850854 0.400820 3.836592 0
M  V30 37 H 3.962627 2.204842 2.866378 0
M  V30 38 H 4.222783 3.802506 1.112436 0
M  V30 39 H 2.757927 3.856274 -0.775295 0
M  V30 40 H -0.259935 2.915691 -1.174866 0
M  V30 41 H 2.489011 2.750335 -2.458680 0
M  V30 42 H 0.947370 2.901010 -3.431203 0
M  V30 43 H 1.340932 4.103015 -2.205534 0
M  V30 44 H 0.759042 0.691815 -2.687456 0
M  V30 45 H -3.424298 0.223085 0.791358 0
M  V30 46 H -5.641412 -2.934974 -0.636682 0
M  V30 47 H -4.360127 -3.070329 0.362527 0
M  V30 48 H -2.173890 -4.384136 -3.665219 0
M  V30 49 H -0.265610 -3.141659 -4.458278 0
M  V30 50 H 0.329307 -1.032226 -3.454658 0
M  V30 51 H 0.630161 0.574506 0.826493 0
M  V30 END ATOM
M  V30 BEGIN BOND
M  V30 1 1 1 2
M  V30 2 2 2 3
M  V30 3 1 3 4
M  V30 4 2 4 5
M  V30 5 1 5 6
M  V30 6 2 6 7
M  V30 7 1 6 8
M  V30 8 1 8 9
M  V30 9 2 9 10
M  V30 10 1 10 11
M  V30 11 2 11 12
M  V30 12 1 12 13
M  V30 13 1 13 14
M  V30 14 1 14 15
M  V30 15 1 14 16
M  V30 16 1 16 17
M  V30 17 2 17 18
M  V30 18 1 18 19
M  V30 19 2 19 20
M  V30 20 1 20 21
M  V30 21 2 21 22
M  V30 22 1 22 23
M  V30 23 1 23 24
M  V30 24 2 23 25
M  V30 25 1 22 26
M  V30 26 2 26 27
M  V30 27 1 27 28
M  V30 28 2 28 29
M  V30 29 2 13 30
M  V30 30 1 5 31
M  V30 31 1 31 2
M  V30 32 1 30 9
M  V30 33 1 29 17
M  V30 34 1 29 21
M  V30 35 1 1 32
M  V30 36 1 1 33
M  V30 37 1 1 34
M  V30 38 1 4 35
M  V30 39 1 8 36
M  V30 40 1 10 37
M  V30 41 1 11 38
M  V30 42 1 12 39
M  V30 43 1 14 40 CFG=1
M  V30 44 1 15 41
M  V30 45 1 15 42
M  V30 46 1 15 43
M  V30 47 1 16 44
M  V30 48 1 19 45
M  V30 49 1 24 46
M  V30 50 1 24 47
M  V30 51 1 26 48
M  V30 52 1 27 49
M  V30 53 1 28 50
M  V30 54 1 30 51
M  V30 END BOND
M  V30 END CTAB
M  END
>  <Dataset>  (908) 
ChEMBL_Kinases

>  <Ligand_Instance>  (908) 
nan

>  <PDB_ID>  (908) 
nan

>  <Standardized_SMILES>  (908) 
Cc1ncc(C(=O)Nc2cccc([C@@H](C)Nc3ncnc4c(C(N)=O)cccc34)c2)s1

>  <Name>  (908) 
nan

>  <Pocket>  (908) 
nan

>  <ATP_Site>  (908) 
nan

>  <Peripheral>  (908) 
nan

>  <Num_H_Atoms_ProtBoundConf>  (908) 
nan

>  <Num_Resolved_Atoms>  (908) 
nan

>  <Num_Not_Resolved_Atoms>  (908) 
nan

$$$$
CHEMBL3675497
     RDKit          3D

  0  0  0  0  0  0  0  0  0  0999 V3000
M  V30 BEGIN CTAB
M  V30 COUNTS 44 46 0 0 0
M  V30 BEGIN ATOM
M  V30 1 C 1.772273 -4.309574 0.804213 0
M  V30 2 N 0.846428 -3.263779 1.231096 0
M  V30 3 C -0.089807 -2.991805 0.131663 0
M  V30 4 C -1.058778 -1.895389 0.483942 0
M  V30 5 N -0.322746 -0.689694 0.764096 0
M  V30 6 C 0.439559 -0.010396 -0.251263 0
M  V30 7 N 0.486745 -0.462362 -1.513014 0
M  V30 8 C 1.177284 0.150280 -2.480648 0
M  V30 9 N 1.876150 1.274287 -2.239578 0
M  V30 10 C 1.885999 1.806856 -0.984973 0
M  V30 11 C 2.593008 2.957490 -0.709939 0
M  V30 12 C 3.334356 3.599316 -1.789061 0
M  V30 13 N 4.082502 4.791991 -1.554908 0
M  V30 14 O 3.296317 3.074917 -2.927142 0
M  V30 15 C 2.606135 3.505289 0.568392 0
M  V30 16 C 1.879201 2.843339 1.545862 0
M  V30 17 O 1.918472 3.422453 2.806936 0
M  V30 18 C 1.188212 1.695546 1.220757 0
M  V30 19 C 1.161854 1.141184 -0.026515 0
M  V30 20 C -1.922034 -2.207700 1.649548 0
M  V30 21 C -1.573538 -2.081972 2.974848 0
M  V30 22 C -2.444596 -2.405023 3.992176 0
M  V30 23 C -3.703851 -2.868321 3.751238 0
M  V30 24 C -4.065484 -2.998675 2.427584 0
M  V30 25 C -3.214385 -2.683050 1.403382 0
M  V30 26 H 1.216521 -4.957517 0.084882 0
M  V30 27 H 2.631903 -3.887875 0.248682 0
M  V30 28 H 2.073030 -4.970910 1.649061 0
M  V30 29 H 0.304133 -3.583402 2.071518 0
M  V30 30 H 0.542433 -2.643878 -0.698332 0
M  V30 31 H -0.608323 -3.933047 -0.157471 0
M  V30 32 H -1.700121 -1.771971 -0.432461 0
M  V30 33 H -0.363455 -0.326319 1.736259 0
M  V30 34 H 1.173352 -0.273986 -3.493908 0
M  V30 35 H 5.113142 4.720884 -1.424723 0
M  V30 36 H 3.605081 5.731606 -1.513463 0
M  V30 37 H 3.179784 4.409325 0.719619 0
M  V30 38 H 1.073256 3.408150 3.395744 0
M  V30 39 H 0.670832 1.288774 2.072159 0
M  V30 40 H -0.588352 -1.713280 3.207560 0
M  V30 41 H -2.082923 -2.273988 5.008100 0
M  V30 42 H -4.383906 -3.120593 4.545392 0
M  V30 43 H -5.072692 -3.369201 2.202822 0
M  V30 44 H -3.535085 -2.798803 0.377456 0
M  V30 END ATOM
M  V30 BEGIN BOND
M  V30 1 1 1 2
M  V30 2 1 2 3
M  V30 3 1 3 4
M  V30 4 1 4 5
M  V30 5 1 5 6
M  V30 6 2 6 7
M  V30 7 1 7 8
M  V30 8 2 8 9
M  V30 9 1 9 10
M  V30 10 2 10 11
M  V30 11 1 11 12
M  V30 12 1 12 13
M  V30 13 2 12 14
M  V30 14 1 11 15
M  V30 15 2 15 16
M  V30 16 1 16 17
M  V30 17 1 16 18
M  V30 18 2 18 19
M  V30 19 1 4 20
M  V30 20 2 20 21
M  V30 21 1 21 22
M  V30 22 2 22 23
M  V30 23 1 23 24
M  V30 24 2 24 25
M  V30 25 1 19 6
M  V30 26 1 25 20
M  V30 27 1 19 10
M  V30 28 1 1 26
M  V30 29 1 1 27
M  V30 30 1 1 28
M  V30 31 1 2 29
M  V30 32 1 3 30
M  V30 33 1 3 31
M  V30 34 1 4 32
M  V30 35 1 5 33
M  V30 36 1 8 34
M  V30 37 1 13 35
M  V30 38 1 13 36
M  V30 39 1 15 37
M  V30 40 1 17 38
M  V30 41 1 18 39
M  V30 42 1 21 40
M  V30 43 1 22 41
M  V30 44 1 23 42
M  V30 45 1 24 43
M  V30 46 1 25 44
M  V30 END BOND
M  V30 END CTAB
M  END
>  <Dataset>  (909) 
ChEMBL_Kinases

>  <Ligand_Instance>  (909) 
nan

>  <PDB_ID>  (909) 
nan

>  <Standardized_SMILES>  (909) 
CNCC(Nc1ncnc2c(C(N)=O)cc(O)cc12)c1ccccc1

>  <Name>  (909) 
nan

>  <Pocket>  (909) 
nan

>  <ATP_Site>  (909) 
nan

>  <Peripheral>  (909) 
nan

>  <Num_H_Atoms_ProtBoundConf>  (909) 
nan

>  <Num_Resolved_Atoms>  (909) 
nan

>  <Num_Not_Resolved_Atoms>  (909) 
nan

$$$$
CHEMBL3675496
     RDKit          3D

  0  0  0  0  0  0  0  0  0  0999 V3000
M  V30 BEGIN CTAB
M  V30 COUNTS 43 45 0 0 0
M  V30 BEGIN ATOM
M  V30 1 N 1.055406 -4.848459 0.699739 0
M  V30 2 C 2.233252 -4.084994 1.065041 0
M  V30 3 C 2.076147 -2.636397 0.554720 0 CFG=2
M  V30 4 C 3.321869 -1.866826 0.952267 0
M  V30 5 C 3.250637 -0.479988 0.517484 0
M  V30 6 C 3.671781 -0.099477 -0.759528 0
M  V30 7 C 3.595078 1.239071 -1.068132 0
M  V30 8 C 3.117566 2.147244 -0.135179 0
M  V30 9 C 2.697661 1.761856 1.140353 0
M  V30 10 C 2.763410 0.409246 1.483796 0
M  V30 11 N 0.854218 -2.038013 1.037775 0
M  V30 12 C 0.094290 -0.924418 0.528957 0
M  V30 13 N 0.414077 -0.257795 -0.586807 0
M  V30 14 C -0.287832 0.753543 -1.094956 0
M  V30 15 N -1.405501 1.162741 -0.468632 0
M  V30 16 C -1.780005 0.532165 0.658719 0
M  V30 17 C -2.926899 0.963303 1.288719 0
M  V30 18 C -3.679798 2.074195 0.712534 0
M  V30 19 N -4.869959 2.556993 1.322678 0
M  V30 20 O -3.286771 2.632314 -0.346133 0
M  V30 21 C -3.402201 0.383288 2.457029 0
M  V30 22 C -2.653535 -0.661302 2.958382 0
M  V30 23 C -1.525808 -1.068063 2.318374 0
M  V30 24 C -1.048417 -0.511913 1.176405 0
M  V30 25 H 0.572201 -5.295644 1.498859 0
M  V30 26 H 1.198061 -5.455400 -0.127838 0
M  V30 27 H 2.281128 -4.025812 2.156161 0
M  V30 28 H 3.143035 -4.525049 0.659095 0
M  V30 29 H 2.079545 -2.708522 -0.547415 0
M  V30 30 H 3.525558 -1.952595 2.039842 0
M  V30 31 H 4.149754 -2.348311 0.352136 0
M  V30 32 H 4.033333 -0.857711 -1.438740 0
M  V30 33 H 3.907131 1.586708 -2.039591 0
M  V30 34 H 3.067434 3.209177 -0.408795 0
M  V30 35 H 2.343660 2.529974 1.795538 0
M  V30 36 H 2.447899 0.098547 2.450332 0
M  V30 37 H 0.538907 -2.538539 1.882903 0
M  V30 38 H 0.116159 1.173216 -1.999654 0
M  V30 39 H -5.786554 2.039361 1.400138 0
M  V30 40 H -5.567370 1.798294 1.220644 0
M  V30 41 H -4.297031 0.747832 2.914861 0
M  V30 42 H -3.034747 -1.104818 3.869575 0
M  V30 43 H -1.021799 -1.888403 2.797137 0
M  V30 END ATOM
M  V30 BEGIN BOND
M  V30 1 1 1 2
M  V30 2 1 2 3
M  V30 3 1 3 4
M  V30 4 1 4 5
M  V30 5 2 5 6
M  V30 6 1 6 7
M  V30 7 2 7 8
M  V30 8 1 8 9
M  V30 9 2 9 10
M  V30 10 1 3 11
M  V30 11 1 11 12
M  V30 12 2 12 13
M  V30 13 1 13 14
M  V30 14 2 14 15
M  V30 15 1 15 16
M  V30 16 2 16 17
M  V30 17 1 17 18
M  V30 18 1 18 19
M  V30 19 2 18 20
M  V30 20 1 17 21
M  V30 21 2 21 22
M  V30 22 1 22 23
M  V30 23 2 23 24
M  V30 24 1 10 5
M  V30 25 1 24 12
M  V30 26 1 24 16
M  V30 27 1 1 25
M  V30 28 1 1 26
M  V30 29 1 2 27
M  V30 30 1 2 28
M  V30 31 1 3 29 CFG=3
M  V30 32 1 4 30
M  V30 33 1 4 31
M  V30 34 1 6 32
M  V30 35 1 7 33
M  V30 36 1 8 34
M  V30 37 1 9 35
M  V30 38 1 10 36
M  V30 39 1 11 37
M  V30 40 1 14 38
M  V30 41 1 19 39
M  V30 42 1 19 40
M  V30 43 1 21 41
M  V30 44 1 22 42
M  V30 45 1 23 43
M  V30 END BOND
M  V30 END CTAB
M  END
>  <Dataset>  (910) 
ChEMBL_Kinases

>  <Ligand_Instance>  (910) 
nan

>  <PDB_ID>  (910) 
nan

>  <Standardized_SMILES>  (910) 
NC[C@H](Cc1ccccc1)Nc1ncnc2c(C(N)=O)cccc12

>  <Name>  (910) 
nan

>  <Pocket>  (910) 
nan

>  <ATP_Site>  (910) 
nan

>  <Peripheral>  (910) 
nan

>  <Num_H_Atoms_ProtBoundConf>  (910) 
nan

>  <Num_Resolved_Atoms>  (910) 
nan

>  <Num_Not_Resolved_Atoms>  (910) 
nan

$$$$
CHEMBL3260614
     RDKit          3D

  0  0  0  0  0  0  0  0  0  0999 V3000
M  V30 BEGIN CTAB
M  V30 COUNTS 48 52 0 0 0
M  V30 BEGIN ATOM
M  V30 1 C 0.297559 -3.513742 4.829346 0
M  V30 2 C 0.929687 -3.483783 3.480846 0
M  V30 3 C 1.621784 -4.576274 3.015511 0
M  V30 4 C 2.245458 -4.631071 1.778758 0
M  V30 5 C 2.108011 -3.468916 1.038431 0
M  V30 6 C 1.413799 -2.330517 1.468084 0
M  V30 7 C 1.348302 -1.171353 0.594627 0
M  V30 8 N 2.096109 -0.174615 0.094438 0
M  V30 9 C 1.388433 0.651304 -0.725842 0
M  V30 10 C 2.106048 1.781543 -1.369302 0
M  V30 11 N 2.174785 2.921790 -0.492366 0
M  V30 12 C 0.933553 3.400120 -0.312083 0
M  V30 13 C 1.492398 4.328305 0.750776 0
M  V30 14 C 0.893657 5.318661 1.597733 0
M  V30 15 C -0.482015 5.510514 1.460944 0
M  V30 16 C -1.129192 4.748707 0.543666 0
M  V30 17 F -2.402298 4.618052 0.104183 0
M  V30 18 C -0.354863 3.897078 -0.124587 0
M  V30 19 F -0.734977 3.009136 -1.139332 0
M  V30 20 N 0.153689 0.137071 -0.725187 0
M  V30 21 C 0.078455 -0.955356 0.049138 0
M  V30 22 C -1.276646 -1.547286 0.054107 0
M  V30 23 C -2.383603 -1.317069 0.840949 0
M  V30 24 C -3.512663 -2.061381 0.579581 0
M  V30 25 C -3.501671 -2.989453 -0.434987 0
M  V30 26 N -4.517104 -3.784261 -0.796834 0
M  V30 27 C -4.093368 -4.557371 -1.838552 0
M  V30 28 N -2.812138 -4.180913 -2.054675 0
M  V30 29 N -2.431256 -3.233706 -1.218673 0
M  V30 30 C -1.329199 -2.507249 -0.961732 0
M  V30 31 N 0.850519 -2.407186 2.697534 0
M  V30 32 H -0.624428 -2.914776 4.860280 0
M  V30 33 H 0.121551 -4.571507 5.086142 0
M  V30 34 H 1.040488 -3.111083 5.549267 0
M  V30 35 H 1.733026 -5.506245 3.595511 0
M  V30 36 H 2.796814 -5.467335 1.391787 0
M  V30 37 H 2.562080 -3.421812 0.059047 0
M  V30 38 H 3.099794 -0.210124 0.428366 0
M  V30 39 H 3.077892 1.402193 -1.725359 0
M  V30 40 H 1.578090 2.062825 -2.338680 0
M  V30 41 H 3.174292 2.971629 -0.301378 0
M  V30 42 H 2.519286 4.547220 1.217410 0
M  V30 43 H 1.185070 6.035860 2.373477 0
M  V30 44 H -1.206906 6.139731 1.911751 0
M  V30 45 H -2.184342 -0.561590 1.568440 0
M  V30 46 H -4.355927 -1.858744 1.217564 0
M  V30 47 H -4.409615 -5.334155 -2.521841 0
M  V30 48 H -0.534393 -2.800079 -1.661556 0
M  V30 END ATOM
M  V30 BEGIN BOND
M  V30 1 1 1 2
M  V30 2 2 2 3
M  V30 3 1 3 4
M  V30 4 2 4 5
M  V30 5 1 5 6
M  V30 6 1 6 7
M  V30 7 1 7 8
M  V30 8 1 8 9
M  V30 9 1 9 10
M  V30 10 1 10 11
M  V30 11 1 11 12
M  V30 12 2 12 13
M  V30 13 1 13 14
M  V30 14 2 14 15
M  V30 15 1 15 16
M  V30 16 1 16 17
M  V30 17 2 16 18
M  V30 18 1 18 19
M  V30 19 2 9 20
M  V30 20 1 20 21
M  V30 21 1 21 22
M  V30 22 1 22 23
M  V30 23 2 23 24
M  V30 24 1 24 25
M  V30 25 2 25 26
M  V30 26 1 26 27
M  V30 27 2 27 28
M  V30 28 1 28 29
M  V30 29 1 29 30
M  V30 30 2 6 31
M  V30 31 1 31 2
M  V30 32 2 21 7
M  V30 33 2 30 22
M  V30 34 1 18 12
M  V30 35 1 29 25
M  V30 36 1 1 32
M  V30 37 1 1 33
M  V30 38 1 1 34
M  V30 39 1 3 35
M  V30 40 1 4 36
M  V30 41 1 5 37
M  V30 42 1 8 38
M  V30 43 1 10 39
M  V30 44 1 10 40
M  V30 45 1 11 41
M  V30 46 1 13 42
M  V30 47 1 14 43
M  V30 48 1 15 44
M  V30 49 1 23 45
M  V30 50 1 24 46
M  V30 51 1 27 47
M  V30 52 1 30 48
M  V30 END BOND
M  V30 END CTAB
M  END
>  <Dataset>  (911) 
ChEMBL_Kinases

>  <Ligand_Instance>  (911) 
nan

>  <PDB_ID>  (911) 
nan

>  <Standardized_SMILES>  (911) 
Cc1cccc(-c2[nH]c(CNc3cccc(F)c3F)nc2-c2ccc3ncnn3c2)n1

>  <Name>  (911) 
nan

>  <Pocket>  (911) 
nan

>  <ATP_Site>  (911) 
nan

>  <Peripheral>  (911) 
nan

>  <Num_H_Atoms_ProtBoundConf>  (911) 
nan

>  <Num_Resolved_Atoms>  (911) 
nan

>  <Num_Not_Resolved_Atoms>  (911) 
nan

$$$$
CHEMBL3260585
     RDKit          3D

  0  0  0  0  0  0  0  0  0  0999 V3000
M  V30 BEGIN CTAB
M  V30 COUNTS 54 58 0 0 0
M  V30 BEGIN ATOM
M  V30 1 C 3.258316 -3.661530 0.760438 0
M  V30 2 C 4.385920 -2.723066 0.370867 0
M  V30 3 C 4.322985 -1.456956 1.134335 0
M  V30 4 C 5.001517 -1.393745 2.340919 0
M  V30 5 C 4.939734 -0.225985 3.041604 0
M  V30 6 C 4.249475 0.885445 2.626220 0
M  V30 7 C 3.555260 0.851800 1.413372 0
M  V30 8 N 2.828499 1.958023 0.917181 0
M  V30 9 C 2.032569 2.174761 -0.272050 0
M  V30 10 C 0.819650 1.316334 -0.337110 0
M  V30 11 N -0.275851 1.818318 0.308591 0
M  V30 12 C -1.319447 0.987436 0.187382 0
M  V30 13 C -2.675791 1.101786 0.703767 0
M  V30 14 C -2.662089 1.063000 2.105110 0
M  V30 15 C -3.857545 1.159337 2.817310 0
M  V30 16 C -5.038620 1.292025 2.119235 0
M  V30 17 N -6.327313 1.406497 2.482588 0
M  V30 18 C -7.065548 1.508022 1.348340 0
M  V30 19 N -6.236862 1.456960 0.271308 0
M  V30 20 N -5.009165 1.325439 0.766552 0
M  V30 21 C -3.872205 1.234705 0.059851 0
M  V30 22 C -0.883758 -0.084191 -0.560168 0
M  V30 23 C -1.517780 -1.302610 -1.041071 0
M  V30 24 C -2.528393 -1.368818 -1.977046 0
M  V30 25 C -3.109140 -2.542520 -2.407989 0
M  V30 26 C -2.613358 -3.708914 -1.835886 0
M  V30 27 C -1.598784 -3.667302 -0.894062 0
M  V30 28 C -1.065456 -4.910565 -0.279989 0
M  V30 29 N -1.068127 -2.469230 -0.512209 0
M  V30 30 N 0.405484 0.150634 -0.855690 0
M  V30 31 C 3.633488 -0.334727 0.727422 0
M  V30 32 H 3.524137 -4.726181 0.585818 0
M  V30 33 H 3.009375 -3.554822 1.849017 0
M  V30 34 H 2.371445 -3.363282 0.169616 0
M  V30 35 H 4.374558 -2.564502 -0.723286 0
M  V30 36 H 5.333369 -3.246654 0.623071 0
M  V30 37 H 5.570354 -2.192781 2.764259 0
M  V30 38 H 5.450106 -0.097838 4.004452 0
M  V30 39 H 4.219699 1.805018 3.210704 0
M  V30 40 H 2.884125 2.805476 1.564527 0
M  V30 41 H 1.812642 3.234334 -0.396752 0
M  V30 42 H 2.713416 1.847459 -1.119943 0
M  V30 43 H -1.793002 0.961505 2.770403 0
M  V30 44 H -3.911104 1.135701 3.901204 0
M  V30 45 H -8.156904 1.611106 1.419837 0
M  V30 46 H -3.771911 1.255771 -0.999554 0
M  V30 47 H -2.882043 -0.453202 -2.397566 0
M  V30 48 H -3.896213 -2.502080 -3.146352 0
M  V30 49 H -3.051308 -4.629715 -2.158316 0
M  V30 50 H -1.027054 -4.865725 0.824408 0
M  V30 51 H -0.085009 -5.212822 -0.696276 0
M  V30 52 H -1.760306 -5.734085 -0.547173 0
M  V30 53 H 1.108984 -0.390810 -1.399438 0
M  V30 54 H 3.145935 -0.485692 -0.223082 0
M  V30 END ATOM
M  V30 BEGIN BOND
M  V30 1 1 1 2
M  V30 2 1 2 3
M  V30 3 2 3 4
M  V30 4 1 4 5
M  V30 5 2 5 6
M  V30 6 1 6 7
M  V30 7 1 7 8
M  V30 8 1 8 9
M  V30 9 1 9 10
M  V30 10 2 10 11
M  V30 11 1 11 12
M  V30 12 1 12 13
M  V30 13 1 13 14
M  V30 14 2 14 15
M  V30 15 1 15 16
M  V30 16 2 16 17
M  V30 17 1 17 18
M  V30 18 2 18 19
M  V30 19 1 19 20
M  V30 20 1 20 21
M  V30 21 2 12 22
M  V30 22 1 22 23
M  V30 23 2 23 24
M  V30 24 1 24 25
M  V30 25 2 25 26
M  V30 26 1 26 27
M  V30 27 1 27 28
M  V30 28 2 27 29
M  V30 29 1 22 30
M  V30 30 2 7 31
M  V30 31 1 31 3
M  V30 32 1 30 10
M  V30 33 2 21 13
M  V30 34 1 29 23
M  V30 35 1 20 16
M  V30 36 1 1 32
M  V30 37 1 1 33
M  V30 38 1 1 34
M  V30 39 1 2 35
M  V30 40 1 2 36
M  V30 41 1 4 37
M  V30 42 1 5 38
M  V30 43 1 6 39
M  V30 44 1 8 40
M  V30 45 1 9 41
M  V30 46 1 9 42
M  V30 47 1 14 43
M  V30 48 1 15 44
M  V30 49 1 18 45
M  V30 50 1 21 46
M  V30 51 1 24 47
M  V30 52 1 25 48
M  V30 53 1 26 49
M  V30 54 1 28 50
M  V30 55 1 28 51
M  V30 56 1 28 52
M  V30 57 1 30 53
M  V30 58 1 31 54
M  V30 END BOND
M  V30 END CTAB
M  END
>  <Dataset>  (912) 
ChEMBL_Kinases

>  <Ligand_Instance>  (912) 
nan

>  <PDB_ID>  (912) 
nan

>  <Standardized_SMILES>  (912) 
CCc1cccc(NCc2nc(-c3ccc4ncnn4c3)c(-c3cccc(C)n3)[nH]2)c1

>  <Name>  (912) 
nan

>  <Pocket>  (912) 
nan

>  <ATP_Site>  (912) 
nan

>  <Peripheral>  (912) 
nan

>  <Num_H_Atoms_ProtBoundConf>  (912) 
nan

>  <Num_Resolved_Atoms>  (912) 
nan

>  <Num_Not_Resolved_Atoms>  (912) 
nan

$$$$
CHEMBL3260586
     RDKit          3D

  0  0  0  0  0  0  0  0  0  0999 V3000
M  V30 BEGIN CTAB
M  V30 COUNTS 57 61 0 0 0
M  V30 BEGIN ATOM
M  V30 1 C -4.205517 -0.372784 1.542453 0
M  V30 2 C -2.979774 -1.158090 1.804058 0
M  V30 3 C -3.013145 -2.163193 2.774366 0
M  V30 4 C -1.873727 -2.911538 3.034933 0
M  V30 5 C -0.741199 -2.605641 2.294320 0
M  V30 6 C -0.725645 -1.596965 1.327633 0
M  V30 7 C 0.459596 -1.275155 0.550690 0
M  V30 8 N 1.111939 -0.105547 0.555892 0
M  V30 9 C 2.175160 -0.095770 -0.263791 0
M  V30 10 C 3.216121 0.878262 -0.662824 0
M  V30 11 N 2.932125 1.618381 -1.848852 0
M  V30 12 C 1.979463 2.559897 -2.258089 0
M  V30 13 C 1.854237 3.169952 -3.509388 0
M  V30 14 C 0.857081 4.084813 -3.731147 0
M  V30 15 C -0.065721 4.465730 -2.785715 0
M  V30 16 C 0.044860 3.872673 -1.546076 0
M  V30 17 C -0.964063 4.299775 -0.539713 0
M  V30 18 C -2.365645 3.957540 -0.986971 0
M  V30 19 C -0.890868 5.794415 -0.335189 0
M  V30 20 C 1.046508 2.952425 -1.320023 0
M  V30 21 N 2.186520 -1.345409 -0.817593 0
M  V30 22 C 1.159629 -2.064326 -0.335794 0
M  V30 23 C 0.772970 -3.447909 -0.641293 0
M  V30 24 C 1.495135 -4.603426 -0.426208 0
M  V30 25 C 0.949569 -5.817700 -0.787722 0
M  V30 26 C -0.324581 -5.850239 -1.364742 0
M  V30 27 N -1.050375 -6.899875 -1.791622 0
M  V30 28 C -2.229195 -6.416539 -2.276448 0
M  V30 29 N -2.184738 -5.075423 -2.128658 0
M  V30 30 N -1.025283 -4.718378 -1.572450 0
M  V30 31 C -0.498220 -3.532160 -1.221871 0
M  V30 32 N -1.859459 -0.882482 1.097115 0
M  V30 33 H -4.942017 -0.523136 2.380670 0
M  V30 34 H -3.974364 0.714052 1.541518 0
M  V30 35 H -4.709369 -0.690310 0.603052 0
M  V30 36 H -3.911329 -2.380255 3.337357 0
M  V30 37 H -1.824014 -3.706521 3.771657 0
M  V30 38 H 0.182160 -3.128677 2.425745 0
M  V30 39 H 0.862601 0.730489 1.121855 0
M  V30 40 H 3.409545 1.566220 0.218961 0
M  V30 41 H 4.177542 0.342409 -0.792191 0
M  V30 42 H 3.587485 1.447624 -2.675261 0
M  V30 43 H 2.585832 2.861458 -4.243198 0
M  V30 44 H 0.883731 4.475785 -4.752367 0
M  V30 45 H -0.781443 5.194802 -3.124420 0
M  V30 46 H -0.783446 3.779518 0.424634 0
M  V30 47 H -3.057154 4.747770 -0.613241 0
M  V30 48 H -2.714600 3.004426 -0.527865 0
M  V30 49 H -2.458243 3.930205 -2.094067 0
M  V30 50 H -0.983188 6.001112 0.747694 0
M  V30 51 H 0.128532 6.136827 -0.618003 0
M  V30 52 H -1.683415 6.267426 -0.913100 0
M  V30 53 H 1.001838 2.585677 -0.304652 0
M  V30 54 H 2.463031 -4.434680 0.025849 0
M  V30 55 H 1.545722 -6.695066 -0.602975 0
M  V30 56 H -3.078680 -6.934236 -2.708357 0
M  V30 57 H -1.130796 -2.677270 -1.425015 0
M  V30 END ATOM
M  V30 BEGIN BOND
M  V30 1 1 1 2
M  V30 2 2 2 3
M  V30 3 1 3 4
M  V30 4 2 4 5
M  V30 5 1 5 6
M  V30 6 1 6 7
M  V30 7 1 7 8
M  V30 8 1 8 9
M  V30 9 1 9 10
M  V30 10 1 10 11
M  V30 11 1 11 12
M  V30 12 2 12 13
M  V30 13 1 13 14
M  V30 14 2 14 15
M  V30 15 1 15 16
M  V30 16 1 16 17
M  V30 17 1 17 18
M  V30 18 1 17 19
M  V30 19 2 16 20
M  V30 20 2 9 21
M  V30 21 1 21 22
M  V30 22 1 22 23
M  V30 23 1 23 24
M  V30 24 2 24 25
M  V30 25 1 25 26
M  V30 26 2 26 27
M  V30 27 1 27 28
M  V30 28 2 28 29
M  V30 29 1 29 30
M  V30 30 1 30 31
M  V30 31 2 6 32
M  V30 32 1 32 2
M  V30 33 2 22 7
M  V30 34 2 31 23
M  V30 35 1 20 12
M  V30 36 1 30 26
M  V30 37 1 1 33
M  V30 38 1 1 34
M  V30 39 1 1 35
M  V30 40 1 3 36
M  V30 41 1 4 37
M  V30 42 1 5 38
M  V30 43 1 8 39
M  V30 44 1 10 40
M  V30 45 1 10 41
M  V30 46 1 11 42
M  V30 47 1 13 43
M  V30 48 1 14 44
M  V30 49 1 15 45
M  V30 50 1 17 46
M  V30 51 1 18 47
M  V30 52 1 18 48
M  V30 53 1 18 49
M  V30 54 1 19 50
M  V30 55 1 19 51
M  V30 56 1 19 52
M  V30 57 1 20 53
M  V30 58 1 24 54
M  V30 59 1 25 55
M  V30 60 1 28 56
M  V30 61 1 31 57
M  V30 END BOND
M  V30 END CTAB
M  END
>  <Dataset>  (913) 
ChEMBL_Kinases

>  <Ligand_Instance>  (913) 
nan

>  <PDB_ID>  (913) 
nan

>  <Standardized_SMILES>  (913) 
Cc1cccc(-c2[nH]c(CNc3cccc(C(C)C)c3)nc2-c2ccc3ncnn3c2)n1

>  <Name>  (913) 
nan

>  <Pocket>  (913) 
nan

>  <ATP_Site>  (913) 
nan

>  <Peripheral>  (913) 
nan

>  <Num_H_Atoms_ProtBoundConf>  (913) 
nan

>  <Num_Resolved_Atoms>  (913) 
nan

>  <Num_Not_Resolved_Atoms>  (913) 
nan

$$$$
CHEMBL3260587
     RDKit          3D

  0  0  0  0  0  0  0  0  0  0999 V3000
M  V30 BEGIN CTAB
M  V30 COUNTS 52 56 0 0 0
M  V30 BEGIN ATOM
M  V30 1 C 0.759768 -4.934977 2.851045 0
M  V30 2 O 2.105410 -5.162190 2.472737 0
M  V30 3 C 2.988633 -4.092345 2.462459 0
M  V30 4 C 4.285463 -4.374568 2.085633 0
M  V30 5 C 5.196742 -3.341047 2.061278 0
M  V30 6 C 4.843812 -2.056914 2.399327 0
M  V30 7 C 3.536311 -1.734033 2.786650 0
M  V30 8 N 3.147323 -0.419564 3.149685 0
M  V30 9 C 1.889127 0.122725 3.547093 0
M  V30 10 C 0.850389 0.090808 2.493966 0
M  V30 11 N 0.857299 1.166036 1.657578 0
M  V30 12 C -0.130407 1.026086 0.757007 0
M  V30 13 C -0.487916 1.945416 -0.329991 0
M  V30 14 C 0.346789 2.306635 -1.373536 0
M  V30 15 C -0.141096 3.190988 -2.329349 0
M  V30 16 C -1.445739 3.677473 -2.200624 0
M  V30 17 N -2.122608 4.541700 -3.008763 0
M  V30 18 C -3.345194 4.696071 -2.457423 0
M  V30 19 N -3.419348 3.945200 -1.337116 0
M  V30 20 N -2.252525 3.310244 -1.166151 0
M  V30 21 C -1.784827 2.445654 -0.225764 0
M  V30 22 C -0.786165 -0.156725 1.014099 0
M  V30 23 C -1.919628 -0.777621 0.342350 0
M  V30 24 C -3.147936 -1.070253 0.922306 0
M  V30 25 C -4.123561 -1.661529 0.145883 0
M  V30 26 C -3.858763 -1.943605 -1.169021 0
M  V30 27 C -2.627909 -1.648938 -1.745196 0
M  V30 28 C -2.346876 -1.954885 -3.162191 0
M  V30 29 N -1.696467 -1.074701 -0.970402 0
M  V30 30 N -0.148398 -0.664837 2.065354 0
M  V30 31 C 2.665062 -2.794768 2.796024 0
M  V30 32 H 0.236749 -5.908738 3.072435 0
M  V30 33 H 0.168790 -4.431829 2.055485 0
M  V30 34 H 0.654326 -4.319219 3.767910 0
M  V30 35 H 4.580788 -5.379081 1.816538 0
M  V30 36 H 6.229314 -3.499465 1.774346 0
M  V30 37 H 5.595859 -1.260733 2.368107 0
M  V30 38 H 3.955277 0.272486 3.110606 0
M  V30 39 H 1.478010 -0.505236 4.407532 0
M  V30 40 H 2.028931 1.125439 3.999561 0
M  V30 41 H 1.343056 1.871885 -1.382173 0
M  V30 42 H 0.510162 3.461907 -3.128113 0
M  V30 43 H -4.197835 5.288790 -2.766216 0
M  V30 44 H -2.486527 2.216713 0.544487 0
M  V30 45 H -3.225517 -0.798722 1.958966 0
M  V30 46 H -5.060467 -1.875208 0.621311 0
M  V30 47 H -4.619817 -2.409277 -1.789886 0
M  V30 48 H -2.598271 -1.095775 -3.838328 0
M  V30 49 H -2.946714 -2.812556 -3.513601 0
M  V30 50 H -1.271781 -2.211305 -3.271007 0
M  V30 51 H -0.346477 -1.548942 2.564587 0
M  V30 52 H 1.649717 -2.679214 3.076195 0
M  V30 END ATOM
M  V30 BEGIN BOND
M  V30 1 1 1 2
M  V30 2 1 2 3
M  V30 3 2 3 4
M  V30 4 1 4 5
M  V30 5 2 5 6
M  V30 6 1 6 7
M  V30 7 1 7 8
M  V30 8 1 8 9
M  V30 9 1 9 10
M  V30 10 2 10 11
M  V30 11 1 11 12
M  V30 12 1 12 13
M  V30 13 1 13 14
M  V30 14 2 14 15
M  V30 15 1 15 16
M  V30 16 2 16 17
M  V30 17 1 17 18
M  V30 18 2 18 19
M  V30 19 1 19 20
M  V30 20 1 20 21
M  V30 21 2 12 22
M  V30 22 1 22 23
M  V30 23 2 23 24
M  V30 24 1 24 25
M  V30 25 2 25 26
M  V30 26 1 26 27
M  V30 27 1 27 28
M  V30 28 2 27 29
M  V30 29 1 22 30
M  V30 30 2 7 31
M  V30 31 1 31 3
M  V30 32 1 30 10
M  V30 33 2 21 13
M  V30 34 1 29 23
M  V30 35 1 20 16
M  V30 36 1 1 32
M  V30 37 1 1 33
M  V30 38 1 1 34
M  V30 39 1 4 35
M  V30 40 1 5 36
M  V30 41 1 6 37
M  V30 42 1 8 38
M  V30 43 1 9 39
M  V30 44 1 9 40
M  V30 45 1 14 41
M  V30 46 1 15 42
M  V30 47 1 18 43
M  V30 48 1 21 44
M  V30 49 1 24 45
M  V30 50 1 25 46
M  V30 51 1 26 47
M  V30 52 1 28 48
M  V30 53 1 28 49
M  V30 54 1 28 50
M  V30 55 1 30 51
M  V30 56 1 31 52
M  V30 END BOND
M  V30 END CTAB
M  END
>  <Dataset>  (914) 
ChEMBL_Kinases

>  <Ligand_Instance>  (914) 
nan

>  <PDB_ID>  (914) 
nan

>  <Standardized_SMILES>  (914) 
COc1cccc(NCc2nc(-c3ccc4ncnn4c3)c(-c3cccc(C)n3)[nH]2)c1

>  <Name>  (914) 
nan

>  <Pocket>  (914) 
nan

>  <ATP_Site>  (914) 
nan

>  <Peripheral>  (914) 
nan

>  <Num_H_Atoms_ProtBoundConf>  (914) 
nan

>  <Num_Resolved_Atoms>  (914) 
nan

>  <Num_Not_Resolved_Atoms>  (914) 
nan

$$$$
CHEMBL3260588
     RDKit          3D

  0  0  0  0  0  0  0  0  0  0999 V3000
M  V30 BEGIN CTAB
M  V30 COUNTS 52 56 0 0 0
M  V30 BEGIN ATOM
M  V30 1 C 3.692829 -4.456552 3.341578 0
M  V30 2 C 2.835538 -3.275528 3.061110 0
M  V30 3 C 2.424019 -2.616800 4.206620 0
M  V30 4 C 1.620561 -1.496416 4.113803 0
M  V30 5 C 1.277239 -1.104983 2.844002 0
M  V30 6 C 1.696096 -1.773599 1.704453 0
M  V30 7 C 1.286372 -1.291721 0.405318 0
M  V30 8 N 1.626841 -0.066182 -0.028530 0
M  V30 9 C 1.139209 0.167800 -1.256548 0
M  V30 10 C 1.105765 1.232118 -2.290930 0
M  V30 11 N -0.058699 2.084270 -2.205907 0
M  V30 12 C -0.458634 2.995357 -1.201783 0
M  V30 13 C 0.232440 3.288009 -0.048454 0
M  V30 14 C -0.167088 4.164259 0.917189 0
M  V30 15 C -1.349427 4.809514 0.732683 0
M  V30 16 C -2.090126 4.563164 -0.399063 0
M  V30 17 O -3.305641 5.223407 -0.594224 0
M  V30 18 C -4.437397 4.536666 -0.058770 0
M  V30 19 F -5.614237 5.190331 -0.256171 0
M  V30 20 F -4.516043 3.336008 -0.729645 0
M  V30 21 F -4.203108 4.201773 1.276860 0
M  V30 22 C -1.647151 3.681480 -1.329025 0
M  V30 23 N 0.476819 -0.968045 -1.574443 0
M  V30 24 C 0.550450 -1.872569 -0.580853 0
M  V30 25 C 0.005218 -3.212604 -0.466668 0
M  V30 26 C 0.314299 -4.278938 -1.288187 0
M  V30 27 C -0.291191 -5.513695 -1.057111 0
M  V30 28 C -1.195242 -5.668174 -0.011642 0
M  V30 29 N -1.908231 -6.698446 0.436486 0
M  V30 30 C -2.636932 -6.299335 1.496406 0
M  V30 31 N -2.365769 -4.979220 1.710881 0
M  V30 32 N -1.477742 -4.615857 0.771407 0
M  V30 33 C -0.906009 -3.391263 0.577557 0
M  V30 34 N 2.480028 -2.864239 1.831620 0
M  V30 35 H 4.673655 -4.161474 3.768113 0
M  V30 36 H 3.207715 -5.089447 4.116409 0
M  V30 37 H 3.816178 -5.100699 2.443624 0
M  V30 38 H 2.691114 -2.919556 5.223074 0
M  V30 39 H 1.295619 -0.976114 5.014289 0
M  V30 40 H 0.648663 -0.231488 2.728962 0
M  V30 41 H 2.186479 0.692768 0.413306 0
M  V30 42 H 2.011973 1.891664 -2.073256 0
M  V30 43 H 1.249148 0.830426 -3.309744 0
M  V30 44 H -0.705824 1.993882 -3.045415 0
M  V30 45 H 1.177062 2.789416 0.112088 0
M  V30 46 H 0.439520 4.334315 1.794392 0
M  V30 47 H -1.687323 5.510148 1.486347 0
M  V30 48 H -2.280318 3.521962 -2.216631 0
M  V30 49 H 1.024166 -4.096975 -2.083480 0
M  V30 50 H -0.040382 -6.343950 -1.709112 0
M  V30 51 H -3.302086 -6.985223 2.028156 0
M  V30 52 H -1.176073 -2.586189 1.242547 0
M  V30 END ATOM
M  V30 BEGIN BOND
M  V30 1 1 1 2
M  V30 2 2 2 3
M  V30 3 1 3 4
M  V30 4 2 4 5
M  V30 5 1 5 6
M  V30 6 1 6 7
M  V30 7 1 7 8
M  V30 8 1 8 9
M  V30 9 1 9 10
M  V30 10 1 10 11
M  V30 11 1 11 12
M  V30 12 2 12 13
M  V30 13 1 13 14
M  V30 14 2 14 15
M  V30 15 1 15 16
M  V30 16 1 16 17
M  V30 17 1 17 18
M  V30 18 1 18 19
M  V30 19 1 18 20
M  V30 20 1 18 21
M  V30 21 2 16 22
M  V30 22 2 9 23
M  V30 23 1 23 24
M  V30 24 1 24 25
M  V30 25 1 25 26
M  V30 26 2 26 27
M  V30 27 1 27 28
M  V30 28 2 28 29
M  V30 29 1 29 30
M  V30 30 2 30 31
M  V30 31 1 31 32
M  V30 32 1 32 33
M  V30 33 2 6 34
M  V30 34 1 34 2
M  V30 35 2 24 7
M  V30 36 2 33 25
M  V30 37 1 22 12
M  V30 38 1 32 28
M  V30 39 1 1 35
M  V30 40 1 1 36
M  V30 41 1 1 37
M  V30 42 1 3 38
M  V30 43 1 4 39
M  V30 44 1 5 40
M  V30 45 1 8 41
M  V30 46 1 10 42
M  V30 47 1 10 43
M  V30 48 1 11 44
M  V30 49 1 13 45
M  V30 50 1 14 46
M  V30 51 1 15 47
M  V30 52 1 22 48
M  V30 53 1 26 49
M  V30 54 1 27 50
M  V30 55 1 30 51
M  V30 56 1 33 52
M  V30 END BOND
M  V30 END CTAB
M  END
>  <Dataset>  (915) 
ChEMBL_Kinases

>  <Ligand_Instance>  (915) 
nan

>  <PDB_ID>  (915) 
nan

>  <Standardized_SMILES>  (915) 
Cc1cccc(-c2[nH]c(CNc3cccc(OC(F)(F)F)c3)nc2-c2ccc3ncnn3c2)n1

>  <Name>  (915) 
nan

>  <Pocket>  (915) 
nan

>  <ATP_Site>  (915) 
nan

>  <Peripheral>  (915) 
nan

>  <Num_H_Atoms_ProtBoundConf>  (915) 
nan

>  <Num_Resolved_Atoms>  (915) 
nan

>  <Num_Not_Resolved_Atoms>  (915) 
nan

$$$$
CHEMBL3260589
     RDKit          3D

  0  0  0  0  0  0  0  0  0  0999 V3000
M  V30 BEGIN CTAB
M  V30 COUNTS 52 56 0 0 0
M  V30 BEGIN ATOM
M  V30 1 C 0.051218 -4.761734 3.161783 0
M  V30 2 S 1.794944 -4.635332 3.663079 0
M  V30 3 C 2.068707 -2.969577 4.250168 0
M  V30 4 C 1.886949 -2.637882 5.591203 0
M  V30 5 C 2.099888 -1.351412 6.031778 0
M  V30 6 C 2.493895 -0.378343 5.156666 0
M  V30 7 C 2.696012 -0.637628 3.796785 0
M  V30 8 N 3.112126 0.375693 2.899556 0
M  V30 9 C 3.366499 0.381035 1.496709 0
M  V30 10 C 2.163542 0.118713 0.700974 0
M  V30 11 N 1.332184 1.149158 0.381646 0
M  V30 12 C 0.296029 0.723216 -0.357941 0
M  V30 13 C -0.744201 1.645454 -0.829700 0
M  V30 14 C -1.053742 1.946288 -2.159913 0
M  V30 15 C -2.071504 2.845559 -2.394687 0
M  V30 16 C -2.794593 3.459180 -1.401827 0
M  V30 17 N -3.807029 4.349132 -1.414757 0
M  V30 18 C -4.121518 4.597708 -0.131572 0
M  V30 19 N -3.307490 3.865034 0.667981 0
M  V30 20 N -2.494044 3.166920 -0.102627 0
M  V30 21 C -1.501672 2.290035 0.124974 0
M  V30 22 C 0.457393 -0.628356 -0.526158 0
M  V30 23 C -0.462933 -1.467171 -1.276194 0
M  V30 24 C -1.752573 -1.561445 -0.795490 0
M  V30 25 C -2.685640 -2.350020 -1.469591 0
M  V30 26 C -2.215092 -2.984586 -2.593900 0
M  V30 27 C -0.942312 -2.907616 -3.091076 0
M  V30 28 C -0.526426 -3.641942 -4.331562 0
M  V30 29 N -0.098838 -2.141425 -2.406050 0
M  V30 30 N 1.587250 -0.947869 0.123447 0
M  V30 31 C 2.465651 -1.931933 3.438004 0
M  V30 32 H -0.052577 -5.507073 2.321706 0
M  V30 33 H -0.608641 -5.060066 4.006806 0
M  V30 34 H -0.367614 -3.802365 2.798478 0
M  V30 35 H 1.576214 -3.379539 6.311733 0
M  V30 36 H 1.964200 -1.076633 7.066642 0
M  V30 37 H 2.655248 0.625622 5.525788 0
M  V30 38 H 3.262250 1.321715 3.372814 0
M  V30 39 H 3.813626 1.339237 1.167364 0
M  V30 40 H 4.146688 -0.435964 1.337679 0
M  V30 41 H -0.450959 1.432355 -2.888786 0
M  V30 42 H -2.294339 3.063564 -3.432417 0
M  V30 43 H -4.826907 5.205885 0.423111 0
M  V30 44 H -1.311587 2.100560 1.167001 0
M  V30 45 H -2.064815 -1.031746 0.104724 0
M  V30 46 H -3.677915 -2.410159 -1.082204 0
M  V30 47 H -2.958777 -3.599962 -3.112119 0
M  V30 48 H 0.036800 -4.575925 -4.063655 0
M  V30 49 H 0.077883 -2.981942 -4.987457 0
M  V30 50 H -1.440842 -3.977214 -4.863966 0
M  V30 51 H 1.996570 -1.890342 0.186077 0
M  V30 52 H 2.597155 -2.235405 2.422666 0
M  V30 END ATOM
M  V30 BEGIN BOND
M  V30 1 1 1 2
M  V30 2 1 2 3
M  V30 3 2 3 4
M  V30 4 1 4 5
M  V30 5 2 5 6
M  V30 6 1 6 7
M  V30 7 1 7 8
M  V30 8 1 8 9
M  V30 9 1 9 10
M  V30 10 2 10 11
M  V30 11 1 11 12
M  V30 12 1 12 13
M  V30 13 1 13 14
M  V30 14 2 14 15
M  V30 15 1 15 16
M  V30 16 2 16 17
M  V30 17 1 17 18
M  V30 18 2 18 19
M  V30 19 1 19 20
M  V30 20 1 20 21
M  V30 21 2 12 22
M  V30 22 1 22 23
M  V30 23 2 23 24
M  V30 24 1 24 25
M  V30 25 2 25 26
M  V30 26 1 26 27
M  V30 27 1 27 28
M  V30 28 2 27 29
M  V30 29 1 22 30
M  V30 30 2 7 31
M  V30 31 1 31 3
M  V30 32 1 30 10
M  V30 33 2 21 13
M  V30 34 1 29 23
M  V30 35 1 20 16
M  V30 36 1 1 32
M  V30 37 1 1 33
M  V30 38 1 1 34
M  V30 39 1 4 35
M  V30 40 1 5 36
M  V30 41 1 6 37
M  V30 42 1 8 38
M  V30 43 1 9 39
M  V30 44 1 9 40
M  V30 45 1 14 41
M  V30 46 1 15 42
M  V30 47 1 18 43
M  V30 48 1 21 44
M  V30 49 1 24 45
M  V30 50 1 25 46
M  V30 51 1 26 47
M  V30 52 1 28 48
M  V30 53 1 28 49
M  V30 54 1 28 50
M  V30 55 1 30 51
M  V30 56 1 31 52
M  V30 END BOND
M  V30 END CTAB
M  END
>  <Dataset>  (916) 
ChEMBL_Kinases

>  <Ligand_Instance>  (916) 
nan

>  <PDB_ID>  (916) 
nan

>  <Standardized_SMILES>  (916) 
CSc1cccc(NCc2nc(-c3ccc4ncnn4c3)c(-c3cccc(C)n3)[nH]2)c1

>  <Name>  (916) 
nan

>  <Pocket>  (916) 
nan

>  <ATP_Site>  (916) 
nan

>  <Peripheral>  (916) 
nan

>  <Num_H_Atoms_ProtBoundConf>  (916) 
nan

>  <Num_Resolved_Atoms>  (916) 
nan

>  <Num_Not_Resolved_Atoms>  (916) 
nan

$$$$
CHEMBL3260590
     RDKit          3D

  0  0  0  0  0  0  0  0  0  0999 V3000
M  V30 BEGIN CTAB
M  V30 COUNTS 52 56 0 0 0
M  V30 BEGIN ATOM
M  V30 1 C 2.699217 -5.452772 5.758016 0
M  V30 2 C 3.897855 -5.282526 5.252348 0
M  V30 3 C 4.148943 -4.367713 4.148558 0
M  V30 4 C 5.413675 -4.197680 3.625799 0
M  V30 5 C 5.660391 -3.329922 2.576411 0
M  V30 6 C 4.607503 -2.606481 2.029282 0
M  V30 7 C 3.334004 -2.766581 2.542846 0
M  V30 8 N 2.258671 -2.028655 1.983958 0
M  V30 9 C 2.510917 -1.123987 0.879337 0
M  V30 10 C 1.250496 -0.448978 0.469515 0
M  V30 11 N 0.717194 0.712763 0.891541 0
M  V30 12 C -0.443151 0.927472 0.240131 0
M  V30 13 C -1.410748 2.015682 0.314373 0
M  V30 14 C -1.633130 2.751149 -0.837560 0
M  V30 15 C -2.511692 3.818094 -0.956172 0
M  V30 16 C -3.184377 4.103816 0.234273 0
M  V30 17 N -4.098326 5.043047 0.523818 0
M  V30 18 C -4.463475 4.930975 1.814926 0
M  V30 19 N -3.757931 3.896808 2.336851 0
M  V30 20 N -2.994679 3.411783 1.372884 0
M  V30 21 C -2.132413 2.389714 1.428534 0
M  V30 22 C -0.619572 -0.141671 -0.606614 0
M  V30 23 C -1.734243 -0.392390 -1.541935 0
M  V30 24 C -3.001270 -0.557429 -1.012451 0
M  V30 25 C -4.049679 -0.792889 -1.884911 0
M  V30 26 C -3.824846 -0.860350 -3.262217 0
M  V30 27 C -2.551004 -0.690703 -3.745867 0
M  V30 28 C -2.232564 -0.750143 -5.207608 0
M  V30 29 N -1.540385 -0.461455 -2.874718 0
M  V30 30 N 0.418902 -0.982625 -0.463888 0
M  V30 31 C 3.136807 -3.640992 3.587087 0
M  V30 32 H 1.661269 -5.458569 6.035095 0
M  V30 33 H 1.665161 -5.164888 5.700603 0
M  V30 34 H 4.642033 -5.887319 5.745225 0
M  V30 35 H 6.156829 -4.824392 4.143505 0
M  V30 36 H 6.694580 -3.297361 2.270452 0
M  V30 37 H 4.853014 -1.940480 1.208205 0
M  V30 38 H 1.289100 -2.161042 2.393604 0
M  V30 39 H 3.258693 -0.371491 1.244212 0
M  V30 40 H 2.982855 -1.668179 0.022915 0
M  V30 41 H -1.084131 2.492486 -1.749783 0
M  V30 42 H -2.648490 4.355612 -1.870811 0
M  V30 43 H -5.210738 5.682035 2.094364 0
M  V30 44 H -1.968850 1.830775 2.320122 0
M  V30 45 H -3.244366 -0.517639 0.040209 0
M  V30 46 H -5.091660 -0.938096 -1.569614 0
M  V30 47 H -4.654040 -1.046459 -3.948055 0
M  V30 48 H -1.571244 -1.650521 -5.374549 0
M  V30 49 H -3.182159 -0.995253 -5.751616 0
M  V30 50 H -1.733370 0.154680 -5.558776 0
M  V30 51 H 0.553389 -1.883332 -0.983320 0
M  V30 52 H 2.125374 -3.732468 3.955155 0
M  V30 END ATOM
M  V30 BEGIN BOND
M  V30 1 2 1 2
M  V30 2 1 2 3
M  V30 3 2 3 4
M  V30 4 1 4 5
M  V30 5 2 5 6
M  V30 6 1 6 7
M  V30 7 1 7 8
M  V30 8 1 8 9
M  V30 9 1 9 10
M  V30 10 2 10 11
M  V30 11 1 11 12
M  V30 12 1 12 13
M  V30 13 1 13 14
M  V30 14 2 14 15
M  V30 15 1 15 16
M  V30 16 2 16 17
M  V30 17 1 17 18
M  V30 18 2 18 19
M  V30 19 1 19 20
M  V30 20 1 20 21
M  V30 21 2 12 22
M  V30 22 1 22 23
M  V30 23 2 23 24
M  V30 24 1 24 25
M  V30 25 2 25 26
M  V30 26 1 26 27
M  V30 27 1 27 28
M  V30 28 2 27 29
M  V30 29 1 22 30
M  V30 30 2 7 31
M  V30 31 1 31 3
M  V30 32 1 30 10
M  V30 33 2 21 13
M  V30 34 1 29 23
M  V30 35 1 20 16
M  V30 36 1 1 32
M  V30 37 1 1 33
M  V30 38 1 2 34
M  V30 39 1 4 35
M  V30 40 1 5 36
M  V30 41 1 6 37
M  V30 42 1 8 38
M  V30 43 1 9 39
M  V30 44 1 9 40
M  V30 45 1 14 41
M  V30 46 1 15 42
M  V30 47 1 18 43
M  V30 48 1 21 44
M  V30 49 1 24 45
M  V30 50 1 25 46
M  V30 51 1 26 47
M  V30 52 1 28 48
M  V30 53 1 28 49
M  V30 54 1 28 50
M  V30 55 1 30 51
M  V30 56 1 31 52
M  V30 END BOND
M  V30 END CTAB
M  END
>  <Dataset>  (917) 
ChEMBL_Kinases

>  <Ligand_Instance>  (917) 
nan

>  <PDB_ID>  (917) 
nan

>  <Standardized_SMILES>  (917) 
C=Cc1cccc(NCc2nc(-c3ccc4ncnn4c3)c(-c3cccc(C)n3)[nH]2)c1

>  <Name>  (917) 
nan

>  <Pocket>  (917) 
nan

>  <ATP_Site>  (917) 
nan

>  <Peripheral>  (917) 
nan

>  <Num_H_Atoms_ProtBoundConf>  (917) 
nan

>  <Num_Resolved_Atoms>  (917) 
nan

>  <Num_Not_Resolved_Atoms>  (917) 
nan

$$$$
CHEMBL3675513
     RDKit          3D

  0  0  0  0  0  0  0  0  0  0999 V3000
M  V30 BEGIN CTAB
M  V30 COUNTS 57 60 0 0 0
M  V30 BEGIN ATOM
M  V30 1 C -0.257828 -3.143801 4.008290 0
M  V30 2 N 1.095319 -2.977461 3.711986 0
M  V30 3 C 2.062462 -3.453683 4.632641 0
M  V30 4 C 1.554541 -1.811459 3.065156 0
M  V30 5 C 1.094374 -1.770124 1.642880 0
M  V30 6 N 1.489255 -0.666986 0.851143 0
M  V30 7 C 1.898538 0.441244 0.058124 0
M  V30 8 N 3.123016 0.947376 -0.152220 0
M  V30 9 C 3.325961 1.960536 -0.998850 0
M  V30 10 N 2.286462 2.461913 -1.633224 0
M  V30 11 C 1.034697 2.023969 -1.485831 0
M  V30 12 C -0.004323 2.592673 -2.197667 0
M  V30 13 C 0.207020 3.681771 -3.134517 0
M  V30 14 N 1.321145 4.401547 -3.626850 0
M  V30 15 O -0.582287 4.351597 -3.832959 0
M  V30 16 C -1.310522 2.178544 -2.093630 0
M  V30 17 C -1.566480 1.141982 -1.226996 0
M  V30 18 O -2.692898 0.546819 -0.927956 0
M  V30 19 C -4.002655 0.418413 -1.204478 0
M  V30 20 C -4.939076 1.432503 -0.509275 0
M  V30 21 C -5.234267 0.370165 0.541671 0
M  V30 22 C -4.782481 -0.664357 -0.504708 0
M  V30 23 C -0.513682 0.557609 -0.501279 0
M  V30 24 C 0.801501 0.985625 -0.619231 0
M  V30 25 C 1.341892 -3.064999 0.884744 0
M  V30 26 C 2.534973 -3.297285 0.217707 0
M  V30 27 C 2.673519 -4.467236 -0.501469 0
M  V30 28 C 1.694917 -5.404276 -0.588645 0
M  V30 29 C 0.485364 -5.214358 0.063418 0
M  V30 30 F -0.558248 -6.102965 0.026395 0
M  V30 31 C 0.358479 -4.031436 0.786609 0
M  V30 32 H -0.916286 -2.581662 3.330418 0
M  V30 33 H -0.507211 -4.248342 3.924836 0
M  V30 34 H -0.517034 -2.855526 5.071469 0
M  V30 35 H 1.607631 -3.747799 5.614937 0
M  V30 36 H 2.559278 -4.360579 4.196198 0
M  V30 37 H 2.855845 -2.692556 4.833889 0
M  V30 38 H 1.094044 -0.931609 3.628771 0
M  V30 39 H 2.648204 -1.636595 3.167540 0
M  V30 40 H -0.064281 -1.751678 1.765258 0
M  V30 41 H 2.461463 -0.949511 1.202689 0
M  V30 42 H 4.347555 2.250267 -1.064448 0
M  V30 43 H 2.238499 4.460118 -3.087011 0
M  V30 44 H 2.264206 4.535841 -3.201577 0
M  V30 45 H -2.142255 2.595773 -2.629356 0
M  V30 46 H -4.260288 0.499554 -2.295968 0
M  V30 47 H -5.850431 1.661342 -1.080673 0
M  V30 48 H -4.445973 2.342753 -0.164881 0
M  V30 49 H -6.284395 0.315120 0.838136 0
M  V30 50 H -4.521108 0.385877 1.412733 0
M  V30 51 H -4.202023 -1.495116 -0.049738 0
M  V30 52 H -5.693234 -1.014296 -1.026192 0
M  V30 53 H -0.663831 -0.248434 0.187915 0
M  V30 54 H 3.348980 -2.564810 0.269534 0
M  V30 55 H 3.594206 -4.667622 -1.031185 0
M  V30 56 H 1.765887 -6.344228 -1.157853 0
M  V30 57 H -0.594120 -3.893894 1.284672 0
M  V30 END ATOM
M  V30 BEGIN BOND
M  V30 1 1 1 2
M  V30 2 1 2 3
M  V30 3 1 2 4
M  V30 4 1 4 5
M  V30 5 1 5 6
M  V30 6 1 6 7
M  V30 7 2 7 8
M  V30 8 1 8 9
M  V30 9 2 9 10
M  V30 10 1 10 11
M  V30 11 2 11 12
M  V30 12 1 12 13
M  V30 13 1 13 14
M  V30 14 2 13 15
M  V30 15 1 12 16
M  V30 16 2 16 17
M  V30 17 1 17 18
M  V30 18 1 18 19
M  V30 19 1 19 20
M  V30 20 1 20 21
M  V30 21 1 21 22
M  V30 22 1 17 23
M  V30 23 2 23 24
M  V30 24 1 5 25
M  V30 25 2 25 26
M  V30 26 1 26 27
M  V30 27 2 27 28
M  V30 28 1 28 29
M  V30 29 1 29 30
M  V30 30 2 29 31
M  V30 31 1 24 7
M  V30 32 1 31 25
M  V30 33 1 24 11
M  V30 34 1 22 19
M  V30 35 1 1 32
M  V30 36 1 1 33
M  V30 37 1 1 34
M  V30 38 1 3 35
M  V30 39 1 3 36
M  V30 40 1 3 37
M  V30 41 1 4 38
M  V30 42 1 4 39
M  V30 43 1 5 40
M  V30 44 1 6 41
M  V30 45 1 9 42
M  V30 46 1 14 43
M  V30 47 1 14 44
M  V30 48 1 16 45
M  V30 49 1 19 46
M  V30 50 1 20 47
M  V30 51 1 20 48
M  V30 52 1 21 49
M  V30 53 1 21 50
M  V30 54 1 22 51
M  V30 55 1 22 52
M  V30 56 1 23 53
M  V30 57 1 26 54
M  V30 58 1 27 55
M  V30 59 1 28 56
M  V30 60 1 31 57
M  V30 END BOND
M  V30 END CTAB
M  END
>  <Dataset>  (918) 
ChEMBL_Kinases

>  <Ligand_Instance>  (918) 
nan

>  <PDB_ID>  (918) 
nan

>  <Standardized_SMILES>  (918) 
CN(C)CC(Nc1ncnc2c(C(N)=O)cc(OC3CCC3)cc12)c1cccc(F)c1

>  <Name>  (918) 
nan

>  <Pocket>  (918) 
nan

>  <ATP_Site>  (918) 
nan

>  <Peripheral>  (918) 
nan

>  <Num_H_Atoms_ProtBoundConf>  (918) 
nan

>  <Num_Resolved_Atoms>  (918) 
nan

>  <Num_Not_Resolved_Atoms>  (918) 
nan

$$$$
CHEMBL3675512
     RDKit          3D

  0  0  0  0  0  0  0  0  0  0999 V3000
M  V30 BEGIN CTAB
M  V30 COUNTS 52 55 0 0 0
M  V30 BEGIN ATOM
M  V30 1 C -2.862255 2.350708 1.936374 0
M  V30 2 C -1.886852 2.163360 0.822631 0
M  V30 3 N -0.518271 2.048405 1.301035 0
M  V30 4 C 0.530568 1.866692 0.357656 0
M  V30 5 N 0.246117 1.804510 -0.953645 0
M  V30 6 C 1.153963 1.636857 -1.920970 0
M  V30 7 N 2.475285 1.515024 -1.609656 0
M  V30 8 C 2.833628 1.568002 -0.314579 0
M  V30 9 C 4.142684 1.453499 0.081624 0
M  V30 10 C 5.175047 1.269410 -0.924475 0
M  V30 11 N 4.888761 1.201213 -2.317198 0
M  V30 12 O 6.411661 1.148410 -0.734610 0
M  V30 13 C 4.534576 1.504639 1.402171 0
M  V30 14 C 3.556261 1.680630 2.378823 0
M  V30 15 C 2.244991 1.794623 1.972260 0
M  V30 16 C 1.862960 1.743523 0.667461 0
M  V30 17 C -2.192342 0.971312 -0.036068 0
M  V30 18 C -2.833540 0.996205 -1.260346 0
M  V30 19 C -3.049690 -0.165880 -1.941036 0
M  V30 20 C -2.630260 -1.357606 -1.409332 0
M  V30 21 C -1.985869 -1.409593 -0.185162 0
M  V30 22 N -1.547157 -2.642244 0.374094 0
M  V30 23 C -2.267573 -3.504433 1.225397 0
M  V30 24 O -3.445561 -3.246528 1.595070 0
M  V30 25 C -1.689434 -4.744056 1.726311 0
M  V30 26 C -2.441389 -5.547510 2.557515 0
M  V30 27 C -2.006314 -6.752271 3.101316 0
M  V30 28 C -0.725146 -7.142745 2.764910 0
M  V30 29 C 0.073403 -6.387330 1.942220 0
M  V30 30 F 1.346061 -6.738745 1.585582 0
M  V30 31 C -0.429948 -5.190824 1.434203 0
M  V30 32 C -1.758898 -0.238606 0.518354 0
M  V30 33 H -3.703048 1.609262 1.924659 0
M  V30 34 H -2.329541 2.257256 2.899569 0
M  V30 35 H -3.339325 3.362970 1.885998 0
M  V30 36 H -1.881135 3.095894 0.187605 0
M  V30 37 H -0.401684 2.109515 2.332797 0
M  V30 38 H 0.742129 1.611114 -2.914114 0
M  V30 39 H 4.798515 1.914365 -3.086855 0
M  V30 40 H 4.695155 0.337469 -2.890797 0
M  V30 41 H 5.591808 1.408013 1.663316 0
M  V30 42 H 3.942928 1.710563 3.393101 0
M  V30 43 H 1.544445 1.926726 2.756987 0
M  V30 44 H -3.135450 1.990823 -1.611904 0
M  V30 45 H -3.553752 -0.130872 -2.900013 0
M  V30 46 H -2.765063 -2.298869 -1.883303 0
M  V30 47 H -0.570196 -2.850439 0.064117 0
M  V30 48 H -3.461353 -5.277499 2.850367 0
M  V30 49 H -2.638007 -7.344832 3.749037 0
M  V30 50 H -0.322906 -8.070845 3.153604 0
M  V30 51 H 0.193528 -4.597268 0.789523 0
M  V30 52 H -1.248173 -0.308540 1.482063 0
M  V30 END ATOM
M  V30 BEGIN BOND
M  V30 1 1 1 2
M  V30 2 1 2 3
M  V30 3 1 3 4
M  V30 4 2 4 5
M  V30 5 1 5 6
M  V30 6 2 6 7
M  V30 7 1 7 8
M  V30 8 2 8 9
M  V30 9 1 9 10
M  V30 10 1 10 11
M  V30 11 2 10 12
M  V30 12 1 9 13
M  V30 13 2 13 14
M  V30 14 1 14 15
M  V30 15 2 15 16
M  V30 16 1 2 17
M  V30 17 2 17 18
M  V30 18 1 18 19
M  V30 19 2 19 20
M  V30 20 1 20 21
M  V30 21 1 21 22
M  V30 22 1 22 23
M  V30 23 2 23 24
M  V30 24 1 23 25
M  V30 25 2 25 26
M  V30 26 1 26 27
M  V30 27 2 27 28
M  V30 28 1 28 29
M  V30 29 1 29 30
M  V30 30 2 29 31
M  V30 31 2 21 32
M  V30 32 1 16 4
M  V30 33 1 32 17
M  V30 34 1 16 8
M  V30 35 1 31 25
M  V30 36 1 1 33
M  V30 37 1 1 34
M  V30 38 1 1 35
M  V30 39 1 2 36
M  V30 40 1 3 37
M  V30 41 1 6 38
M  V30 42 1 11 39
M  V30 43 1 11 40
M  V30 44 1 13 41
M  V30 45 1 14 42
M  V30 46 1 15 43
M  V30 47 1 18 44
M  V30 48 1 19 45
M  V30 49 1 20 46
M  V30 50 1 22 47
M  V30 51 1 26 48
M  V30 52 1 27 49
M  V30 53 1 28 50
M  V30 54 1 31 51
M  V30 55 1 32 52
M  V30 END BOND
M  V30 END CTAB
M  END
>  <Dataset>  (919) 
ChEMBL_Kinases

>  <Ligand_Instance>  (919) 
nan

>  <PDB_ID>  (919) 
nan

>  <Standardized_SMILES>  (919) 
CC(Nc1ncnc2c(C(N)=O)cccc12)c1cccc(NC(=O)c2cccc(F)c2)c1

>  <Name>  (919) 
nan

>  <Pocket>  (919) 
nan

>  <ATP_Site>  (919) 
nan

>  <Peripheral>  (919) 
nan

>  <Num_H_Atoms_ProtBoundConf>  (919) 
nan

>  <Num_Resolved_Atoms>  (919) 
nan

>  <Num_Not_Resolved_Atoms>  (919) 
nan

$$$$
CHEMBL3260591
     RDKit          3D

  0  0  0  0  0  0  0  0  0  0999 V3000
M  V30 BEGIN CTAB
M  V30 COUNTS 49 53 0 0 0
M  V30 BEGIN ATOM
M  V30 1 C -1.753752 -1.746787 5.029014 0
M  V30 2 C -0.390088 -1.745989 4.436675 0
M  V30 3 C 0.782701 -2.041505 5.101291 0
M  V30 4 C 2.007679 -2.014159 4.462966 0
M  V30 5 C 2.027652 -1.673883 3.104199 0
M  V30 6 C 0.840369 -1.380745 2.454673 0
M  V30 7 C 1.007516 -1.044259 1.045713 0
M  V30 8 N 1.706757 -0.024837 0.546232 0
M  V30 9 C 1.670833 0.018513 -0.776196 0
M  V30 10 C 2.232002 0.906314 -1.828432 0
M  V30 11 N 1.248745 1.893530 -2.189521 0
M  V30 12 C 0.685756 2.969503 -1.470175 0
M  V30 13 C 1.013728 3.336514 -0.185828 0
M  V30 14 C 0.450441 4.383446 0.511577 0
M  V30 15 C -0.510158 5.103862 -0.143992 0
M  V30 16 C -0.889355 4.796214 -1.427977 0
M  V30 17 C -1.899202 5.561340 -2.102393 0
M  V30 18 N -2.713673 6.181224 -2.645795 0
M  V30 19 C -0.288193 3.738590 -2.068260 0
M  V30 20 N 0.907260 -1.031016 -1.136161 0
M  V30 21 C 0.495395 -1.686701 -0.061705 0
M  V30 22 C -0.354433 -2.881874 -0.050317 0
M  V30 23 C -1.601699 -2.902855 0.516542 0
M  V30 24 C -2.414608 -4.003714 0.540895 0
M  V30 25 C -1.937387 -5.165598 -0.047392 0
M  V30 26 N -2.477416 -6.392183 -0.188224 0
M  V30 27 C -1.589602 -7.175254 -0.844877 0
M  V30 28 N -0.504033 -6.414614 -1.102736 0
M  V30 29 N -0.699285 -5.179085 -0.620974 0
M  V30 30 C 0.070117 -4.057439 -0.618685 0
M  V30 31 N -0.320156 -1.425219 3.134152 0
M  V30 32 H -2.377455 -2.356164 4.315175 0
M  V30 33 H -1.803822 -2.253812 6.003869 0
M  V30 34 H -2.212658 -0.729468 5.052990 0
M  V30 35 H 0.684715 -2.296822 6.155721 0
M  V30 36 H 2.910597 -2.252240 5.015999 0
M  V30 37 H 2.990853 -1.659425 2.628770 0
M  V30 38 H 2.219136 0.643340 1.125453 0
M  V30 39 H 2.543055 0.274830 -2.680297 0
M  V30 40 H 3.178932 1.387738 -1.461189 0
M  V30 41 H 0.903955 1.759364 -3.185917 0
M  V30 42 H 1.762854 2.788445 0.327210 0
M  V30 43 H 0.749084 4.626900 1.524535 0
M  V30 44 H -0.987079 5.933453 0.347812 0
M  V30 45 H -0.623583 3.533093 -3.088827 0
M  V30 46 H -2.004769 -2.020989 0.981081 0
M  V30 47 H -3.390667 -4.041772 0.977401 0
M  V30 48 H -1.797756 -8.207197 -1.076921 0
M  V30 49 H 1.043600 -4.138061 -1.091555 0
M  V30 END ATOM
M  V30 BEGIN BOND
M  V30 1 1 1 2
M  V30 2 2 2 3
M  V30 3 1 3 4
M  V30 4 2 4 5
M  V30 5 1 5 6
M  V30 6 1 6 7
M  V30 7 1 7 8
M  V30 8 1 8 9
M  V30 9 1 9 10
M  V30 10 1 10 11
M  V30 11 1 11 12
M  V30 12 2 12 13
M  V30 13 1 13 14
M  V30 14 2 14 15
M  V30 15 1 15 16
M  V30 16 1 16 17
M  V30 17 3 17 18
M  V30 18 2 16 19
M  V30 19 2 9 20
M  V30 20 1 20 21
M  V30 21 1 21 22
M  V30 22 1 22 23
M  V30 23 2 23 24
M  V30 24 1 24 25
M  V30 25 2 25 26
M  V30 26 1 26 27
M  V30 27 2 27 28
M  V30 28 1 28 29
M  V30 29 1 29 30
M  V30 30 2 6 31
M  V30 31 1 31 2
M  V30 32 2 21 7
M  V30 33 2 30 22
M  V30 34 1 19 12
M  V30 35 1 29 25
M  V30 36 1 1 32
M  V30 37 1 1 33
M  V30 38 1 1 34
M  V30 39 1 3 35
M  V30 40 1 4 36
M  V30 41 1 5 37
M  V30 42 1 8 38
M  V30 43 1 10 39
M  V30 44 1 10 40
M  V30 45 1 11 41
M  V30 46 1 13 42
M  V30 47 1 14 43
M  V30 48 1 15 44
M  V30 49 1 19 45
M  V30 50 1 23 46
M  V30 51 1 24 47
M  V30 52 1 27 48
M  V30 53 1 30 49
M  V30 END BOND
M  V30 END CTAB
M  END
>  <Dataset>  (920) 
ChEMBL_Kinases

>  <Ligand_Instance>  (920) 
nan

>  <PDB_ID>  (920) 
nan

>  <Standardized_SMILES>  (920) 
Cc1cccc(-c2[nH]c(CNc3cccc(C#N)c3)nc2-c2ccc3ncnn3c2)n1

>  <Name>  (920) 
nan

>  <Pocket>  (920) 
nan

>  <ATP_Site>  (920) 
nan

>  <Peripheral>  (920) 
nan

>  <Num_H_Atoms_ProtBoundConf>  (920) 
nan

>  <Num_Resolved_Atoms>  (920) 
nan

>  <Num_Not_Resolved_Atoms>  (920) 
nan

$$$$
CHEMBL4213109
     RDKit          3D

  0  0  0  0  0  0  0  0  0  0999 V3000
M  V30 BEGIN CTAB
M  V30 COUNTS 70 75 0 0 0
M  V30 BEGIN ATOM
M  V30 1 C 1.599759 1.861452 6.393973 0
M  V30 2 C 1.483978 0.381806 6.144849 0
M  V30 3 C 2.169060 -0.089202 4.897784 0
M  V30 4 C 3.634610 0.237034 4.994641 0
M  V30 5 C 3.922419 0.901422 3.696723 0
M  V30 6 N 4.944809 1.421949 2.993943 0
M  V30 7 C 4.528670 1.901129 1.810483 0
M  V30 8 C 5.137726 2.519679 0.734227 0
M  V30 9 F 6.486190 2.720320 0.841077 0
M  V30 10 C 4.377949 2.890725 -0.357008 0
M  V30 11 C 3.008800 2.644917 -0.375593 0
M  V30 12 C 2.354588 3.095746 -1.602615 0
M  V30 13 N 1.440092 2.320830 -2.259464 0
M  V30 14 C 0.839669 2.730406 -3.390646 0
M  V30 15 N -0.111419 1.905437 -4.049652 0
M  V30 16 C -0.471418 0.644760 -3.525266 0
M  V30 17 C -1.387835 -0.182327 -4.137958 0
M  V30 18 C -1.743544 -1.412347 -3.623374 0
M  V30 19 C -1.167538 -1.845890 -2.448768 0
M  V30 20 C -1.365328 -3.083622 -1.692005 0
M  V30 21 N -2.377295 -2.979161 -0.695079 0
M  V30 22 C -3.693709 -2.679538 -1.141797 0
M  V30 23 C -4.510594 -3.923948 -1.412672 0
M  V30 24 N -4.369364 -4.933731 -0.389729 0
M  V30 25 C -5.663711 -5.526935 -0.159508 0
M  V30 26 C -5.989114 -6.308482 -1.438570 0
M  V30 27 C -3.724912 -4.408113 0.769250 0
M  V30 28 C -2.328552 -3.976475 0.329269 0
M  V30 29 C -0.242723 -0.972767 -1.862460 0
M  V30 30 N 0.101690 0.227511 -2.368649 0
M  V30 31 N 1.151486 3.944860 -3.890815 0
M  V30 32 C 2.044288 4.753631 -3.288926 0
M  V30 33 C 2.680143 4.352195 -2.115563 0
M  V30 34 F 3.583483 5.139604 -1.482139 0
M  V30 35 C 2.408540 2.027123 0.702785 0
M  V30 36 C 3.168227 1.650316 1.806079 0
M  V30 37 N 2.791462 1.042232 2.950032 0
M  V30 38 C 1.639618 0.507885 3.627735 0
M  V30 39 H 0.706749 2.221411 6.981056 0
M  V30 40 H 1.673266 2.367479 5.410520 0
M  V30 41 H 2.470046 2.107132 7.048964 0
M  V30 42 H 1.876911 -0.234744 6.980507 0
M  V30 43 H 0.377425 0.170462 6.093451 0
M  V30 44 H 1.982073 -1.183330 4.832459 0
M  V30 45 H 3.875431 0.934155 5.815184 0
M  V30 46 H 4.214780 -0.721153 5.099271 0
M  V30 47 H 4.990460 3.362798 -1.120190 0
M  V30 48 H -0.554786 2.233165 -4.936507 0
M  V30 49 H -1.861588 0.114384 -5.054177 0
M  V30 50 H -2.443568 -2.111843 -4.040932 0
M  V30 51 H -0.433975 -3.423456 -1.211179 0
M  V30 52 H -1.679194 -3.884908 -2.396175 0
M  V30 53 H -4.205892 -2.117377 -0.318708 0
M  V30 54 H -3.687033 -2.026233 -2.008351 0
M  V30 55 H -4.207374 -4.420259 -2.361711 0
M  V30 56 H -5.574047 -3.613175 -1.449275 0
M  V30 57 H -5.713644 -6.140008 0.737415 0
M  V30 58 H -6.443383 -4.710677 -0.110253 0
M  V30 59 H -5.160449 -7.073618 -1.495141 0
M  V30 60 H -5.838829 -5.641941 -2.298351 0
M  V30 61 H -6.967469 -6.795654 -1.380824 0
M  V30 62 H -3.598942 -5.142164 1.567920 0
M  V30 63 H -4.218729 -3.518714 1.170813 0
M  V30 64 H -1.711557 -4.815757 -0.028164 0
M  V30 65 H -1.856959 -3.508191 1.215554 0
M  V30 66 H 0.289438 -1.194820 -0.924849 0
M  V30 67 H 2.309405 5.738318 -3.677384 0
M  V30 68 H 1.342648 1.872435 0.610712 0
M  V30 69 H 0.884420 1.266470 3.890722 0
M  V30 70 H 1.095936 -0.244939 2.991528 0
M  V30 END ATOM
M  V30 BEGIN BOND
M  V30 1 1 1 2
M  V30 2 1 2 3
M  V30 3 1 3 4
M  V30 4 1 4 5
M  V30 5 2 5 6
M  V30 6 1 6 7
M  V30 7 2 7 8
M  V30 8 1 8 9
M  V30 9 1 8 10
M  V30 10 2 10 11
M  V30 11 1 11 12
M  V30 12 2 12 13
M  V30 13 1 13 14
M  V30 14 1 14 15
M  V30 15 1 15 16
M  V30 16 2 16 17
M  V30 17 1 17 18
M  V30 18 2 18 19
M  V30 19 1 19 20
M  V30 20 1 20 21
M  V30 21 1 21 22
M  V30 22 1 22 23
M  V30 23 1 23 24
M  V30 24 1 24 25
M  V30 25 1 25 26
M  V30 26 1 24 27
M  V30 27 1 27 28
M  V30 28 1 19 29
M  V30 29 2 29 30
M  V30 30 2 14 31
M  V30 31 1 31 32
M  V30 32 2 32 33
M  V30 33 1 33 34
M  V30 34 1 11 35
M  V30 35 2 35 36
M  V30 36 1 36 37
M  V30 37 1 37 38
M  V30 38 1 38 3
M  V30 39 1 37 5
M  V30 40 1 36 7
M  V30 41 1 33 12
M  V30 42 1 30 16
M  V30 43 1 28 21
M  V30 44 1 1 39
M  V30 45 1 1 40
M  V30 46 1 1 41
M  V30 47 1 2 42
M  V30 48 1 2 43
M  V30 49 1 3 44
M  V30 50 1 4 45
M  V30 51 1 4 46
M  V30 52 1 10 47
M  V30 53 1 15 48
M  V30 54 1 17 49
M  V30 55 1 18 50
M  V30 56 1 20 51
M  V30 57 1 20 52
M  V30 58 1 22 53
M  V30 59 1 22 54
M  V30 60 1 23 55
M  V30 61 1 23 56
M  V30 62 1 25 57
M  V30 63 1 25 58
M  V30 64 1 26 59
M  V30 65 1 26 60
M  V30 66 1 26 61
M  V30 67 1 27 62
M  V30 68 1 27 63
M  V30 69 1 28 64
M  V30 70 1 28 65
M  V30 71 1 29 66
M  V30 72 1 32 67
M  V30 73 1 35 68
M  V30 74 1 38 69
M  V30 75 1 38 70
M  V30 END BOND
M  V30 END CTAB
M  END
>  <Dataset>  (921) 
ChEMBL_Kinases

>  <Ligand_Instance>  (921) 
nan

>  <PDB_ID>  (921) 
nan

>  <Standardized_SMILES>  (921) 
CCC1Cc2nc3c(F)cc(-c4nc(Nc5ccc(CN6CCN(CC)CC6)cn5)ncc4F)cc3n2C1

>  <Name>  (921) 
nan

>  <Pocket>  (921) 
nan

>  <ATP_Site>  (921) 
nan

>  <Peripheral>  (921) 
nan

>  <Num_H_Atoms_ProtBoundConf>  (921) 
nan

>  <Num_Resolved_Atoms>  (921) 
nan

>  <Num_Not_Resolved_Atoms>  (921) 
nan

$$$$
CHEMBL3260593
     RDKit          3D

  0  0  0  0  0  0  0  0  0  0999 V3000
M  V30 BEGIN CTAB
M  V30 COUNTS 52 56 0 0 0
M  V30 BEGIN ATOM
M  V30 1 C 0.298887 -1.732191 5.364624 0
M  V30 2 C 1.312939 -1.181443 4.395276 0
M  V30 3 C 2.510686 -0.715714 4.951100 0
M  V30 4 C 3.380817 -0.229851 4.003472 0
M  V30 5 C 3.175643 -0.171305 2.641142 0
M  V30 6 C 1.966348 -0.652771 2.184083 0
M  V30 7 C 1.632792 -0.642866 0.771622 0
M  V30 8 N 1.534679 0.458671 0.048797 0
M  V30 9 C 1.213668 0.214682 -1.230168 0
M  V30 10 C 0.943776 0.904777 -2.508249 0
M  V30 11 N -0.469096 1.138171 -2.660773 0
M  V30 12 C -1.350099 1.972749 -1.937341 0
M  V30 13 C -0.987039 2.799079 -0.899699 0
M  V30 14 C -1.834666 3.611080 -0.176671 0
M  V30 15 C -3.167954 3.581541 -0.539382 0
M  V30 16 C -3.587976 2.771870 -1.572454 0
M  V30 17 C -5.022926 2.755622 -1.943247 0
M  V30 18 C -5.762150 1.738481 -1.197830 0
M  V30 19 N -6.355438 0.948151 -0.597231 0
M  V30 20 C -2.689783 1.987019 -2.251672 0
M  V30 21 N 1.110430 -1.148695 -1.281628 0
M  V30 22 C 1.357447 -1.677824 -0.094784 0
M  V30 23 C 1.350967 -3.097556 0.275885 0
M  V30 24 C 2.537560 -3.655367 0.729459 0
M  V30 25 C 2.449532 -4.983397 1.051443 0
M  V30 26 C 1.325732 -5.750578 0.958461 0
M  V30 27 N 1.015229 -7.033626 1.210600 0
M  V30 28 C -0.288694 -7.171915 0.907192 0
M  V30 29 N -0.762602 -5.978561 0.474384 0
M  V30 30 N 0.245876 -5.095397 0.507620 0
M  V30 31 C 0.161003 -3.797039 0.148207 0
M  V30 32 N 1.083382 -1.137740 3.071560 0
M  V30 33 H 0.549546 -2.793892 5.616307 0
M  V30 34 H -0.670363 -1.783735 4.825650 0
M  V30 35 H 0.196646 -1.133646 6.269338 0
M  V30 36 H 2.761901 -0.720013 6.002337 0
M  V30 37 H 4.341391 0.150511 4.385856 0
M  V30 38 H 3.923159 0.230125 1.971110 0
M  V30 39 H 1.670299 1.443108 0.317120 0
M  V30 40 H 1.411250 1.927673 -2.519332 0
M  V30 41 H 1.387227 0.393260 -3.374935 0
M  V30 42 H -0.893476 0.575200 -3.456305 0
M  V30 43 H 0.037073 2.845594 -0.605538 0
M  V30 44 H -1.474838 4.239202 0.632948 0
M  V30 45 H -3.874003 4.200294 -0.003422 0
M  V30 46 H -5.486360 3.758593 -1.885899 0
M  V30 47 H -5.098784 2.441212 -3.019175 0
M  V30 48 H -3.090868 1.370608 -3.058613 0
M  V30 49 H 3.448247 -3.086969 0.819235 0
M  V30 50 H 3.370520 -5.463729 1.415573 0
M  V30 51 H -0.720900 -8.164053 1.052097 0
M  V30 52 H -0.752297 -3.353943 -0.204459 0
M  V30 END ATOM
M  V30 BEGIN BOND
M  V30 1 1 1 2
M  V30 2 2 2 3
M  V30 3 1 3 4
M  V30 4 2 4 5
M  V30 5 1 5 6
M  V30 6 1 6 7
M  V30 7 1 7 8
M  V30 8 1 8 9
M  V30 9 1 9 10
M  V30 10 1 10 11
M  V30 11 1 11 12
M  V30 12 2 12 13
M  V30 13 1 13 14
M  V30 14 2 14 15
M  V30 15 1 15 16
M  V30 16 1 16 17
M  V30 17 1 17 18
M  V30 18 3 18 19
M  V30 19 2 16 20
M  V30 20 2 9 21
M  V30 21 1 21 22
M  V30 22 1 22 23
M  V30 23 1 23 24
M  V30 24 2 24 25
M  V30 25 1 25 26
M  V30 26 2 26 27
M  V30 27 1 27 28
M  V30 28 2 28 29
M  V30 29 1 29 30
M  V30 30 1 30 31
M  V30 31 2 6 32
M  V30 32 1 32 2
M  V30 33 2 22 7
M  V30 34 2 31 23
M  V30 35 1 20 12
M  V30 36 1 30 26
M  V30 37 1 1 33
M  V30 38 1 1 34
M  V30 39 1 1 35
M  V30 40 1 3 36
M  V30 41 1 4 37
M  V30 42 1 5 38
M  V30 43 1 8 39
M  V30 44 1 10 40
M  V30 45 1 10 41
M  V30 46 1 11 42
M  V30 47 1 13 43
M  V30 48 1 14 44
M  V30 49 1 15 45
M  V30 50 1 17 46
M  V30 51 1 17 47
M  V30 52 1 20 48
M  V30 53 1 24 49
M  V30 54 1 25 50
M  V30 55 1 28 51
M  V30 56 1 31 52
M  V30 END BOND
M  V30 END CTAB
M  END
>  <Dataset>  (922) 
ChEMBL_Kinases

>  <Ligand_Instance>  (922) 
nan

>  <PDB_ID>  (922) 
nan

>  <Standardized_SMILES>  (922) 
Cc1cccc(-c2[nH]c(CNc3cccc(CC#N)c3)nc2-c2ccc3ncnn3c2)n1

>  <Name>  (922) 
nan

>  <Pocket>  (922) 
nan

>  <ATP_Site>  (922) 
nan

>  <Peripheral>  (922) 
nan

>  <Num_H_Atoms_ProtBoundConf>  (922) 
nan

>  <Num_Resolved_Atoms>  (922) 
nan

>  <Num_Not_Resolved_Atoms>  (922) 
nan

$$$$
CHEMBL3675511
     RDKit          3D

  0  0  0  0  0  0  0  0  0  0999 V3000
M  V30 BEGIN CTAB
M  V30 COUNTS 61 64 0 0 0
M  V30 BEGIN ATOM
M  V30 1 C 2.853851 -4.010828 3.434875 0
M  V30 2 O 2.000624 -3.552543 2.465348 0
M  V30 3 C 2.326340 -3.895042 1.168947 0
M  V30 4 C 1.267233 -3.309936 0.243322 0
M  V30 5 C 1.173123 -1.824566 0.318979 0
M  V30 6 N 2.274413 -1.006521 0.016971 0
M  V30 7 C 3.381318 -0.191400 -0.287067 0
M  V30 8 N 4.624432 -0.528638 -0.693160 0
M  V30 9 C 5.519725 0.420962 -0.918749 0
M  V30 10 N 5.222353 1.704214 -0.755056 0
M  V30 11 C 4.035036 2.150866 -0.360625 0
M  V30 12 C 3.778390 3.484094 -0.217228 0
M  V30 13 C 4.731635 4.475514 -0.452121 0
M  V30 14 N 5.384528 5.690024 -0.591904 0
M  V30 15 O 5.871040 3.971573 -0.801456 0
M  V30 16 C 2.523830 3.922490 0.187155 0
M  V30 17 C 1.552790 2.979408 0.439366 0
M  V30 18 C 1.857373 1.649631 0.282410 0
M  V30 19 C 3.114308 1.168926 -0.127577 0
M  V30 20 C -0.067811 -1.362300 -0.423145 0
M  V30 21 C -0.012936 -0.656559 -1.521899 0
M  V30 22 C -1.186037 -0.182150 -2.278269 0
M  V30 23 C -2.508558 -0.638389 -1.808764 0
M  V30 24 C -2.513915 -1.427830 -0.547837 0
M  V30 25 N -3.830854 -1.721484 -0.112364 0
M  V30 26 C -4.238962 -2.357841 1.050857 0
M  V30 27 O -3.358023 -2.767270 1.889794 0
M  V30 28 C -5.563050 -2.684442 1.558946 0
M  V30 29 C -5.802093 -3.272046 2.766347 0
M  V30 30 C -7.047134 -3.590219 3.277926 0
M  V30 31 F -7.174109 -4.171992 4.494034 0
M  V30 32 C -8.173297 -3.304100 2.531770 0
M  V30 33 C -8.004372 -2.695234 1.271258 0
M  V30 34 C -6.721064 -2.435296 0.887051 0
M  V30 35 F -6.752463 -1.854819 -0.344619 0
M  V30 36 C -1.402285 -1.728847 0.032216 0
M  V30 37 H 2.456246 -3.656901 4.418411 0
M  V30 38 H 2.850946 -5.120476 3.464885 0
M  V30 39 H 3.899014 -3.640880 3.340791 0
M  V30 40 H 2.371101 -5.011278 1.044245 0
M  V30 41 H 3.333509 -3.506157 0.945588 0
M  V30 42 H 1.652378 -3.525669 -0.805553 0
M  V30 43 H 0.305512 -3.822282 0.289693 0
M  V30 44 H 0.895131 -1.558055 1.412385 0
M  V30 45 H 2.736692 -1.917039 -0.260658 0
M  V30 46 H 6.514245 0.128052 -1.250536 0
M  V30 47 H 5.457481 6.368698 -1.377090 0
M  V30 48 H 5.980369 6.254686 0.083647 0
M  V30 49 H 2.285280 4.964883 0.303750 0
M  V30 50 H 0.575330 3.319705 0.752126 0
M  V30 51 H 1.065272 0.997439 0.516798 0
M  V30 52 H 0.928189 -0.370124 -1.941474 0
M  V30 53 H -1.027302 -0.559305 -3.332795 0
M  V30 54 H -1.108517 0.928223 -2.390458 0
M  V30 55 H -3.042845 -1.240382 -2.608817 0
M  V30 56 H -3.190373 0.241103 -1.666982 0
M  V30 57 H -4.669598 -1.478988 -0.663147 0
M  V30 58 H -4.971606 -3.540307 3.440426 0
M  V30 59 H -9.124410 -3.553335 2.934622 0
M  V30 60 H -8.924097 -2.517400 0.780648 0
M  V30 61 H -1.411139 -2.292239 0.929194 0
M  V30 END ATOM
M  V30 BEGIN BOND
M  V30 1 1 1 2
M  V30 2 1 2 3
M  V30 3 1 3 4
M  V30 4 1 4 5
M  V30 5 1 5 6
M  V30 6 1 6 7
M  V30 7 2 7 8
M  V30 8 1 8 9
M  V30 9 2 9 10
M  V30 10 1 10 11
M  V30 11 2 11 12
M  V30 12 1 12 13
M  V30 13 1 13 14
M  V30 14 2 13 15
M  V30 15 1 12 16
M  V30 16 2 16 17
M  V30 17 1 17 18
M  V30 18 2 18 19
M  V30 19 1 5 20
M  V30 20 2 20 21
M  V30 21 1 21 22
M  V30 22 1 22 23
M  V30 23 1 23 24
M  V30 24 1 24 25
M  V30 25 1 25 26
M  V30 26 2 26 27
M  V30 27 1 26 28
M  V30 28 2 28 29
M  V30 29 1 29 30
M  V30 30 1 30 31
M  V30 31 2 30 32
M  V30 32 1 32 33
M  V30 33 2 33 34
M  V30 34 1 34 35
M  V30 35 2 24 36
M  V30 36 1 19 7
M  V30 37 1 36 20
M  V30 38 1 19 11
M  V30 39 1 34 28
M  V30 40 1 1 37
M  V30 41 1 1 38
M  V30 42 1 1 39
M  V30 43 1 3 40
M  V30 44 1 3 41
M  V30 45 1 4 42
M  V30 46 1 4 43
M  V30 47 1 5 44
M  V30 48 1 6 45
M  V30 49 1 9 46
M  V30 50 1 14 47
M  V30 51 1 14 48
M  V30 52 1 16 49
M  V30 53 1 17 50
M  V30 54 1 18 51
M  V30 55 1 21 52
M  V30 56 1 22 53
M  V30 57 1 22 54
M  V30 58 1 23 55
M  V30 59 1 23 56
M  V30 60 1 25 57
M  V30 61 1 29 58
M  V30 62 1 32 59
M  V30 63 1 33 60
M  V30 64 1 36 61
M  V30 END BOND
M  V30 END CTAB
M  END
>  <Dataset>  (923) 
ChEMBL_Kinases

>  <Ligand_Instance>  (923) 
nan

>  <PDB_ID>  (923) 
nan

>  <Standardized_SMILES>  (923) 
COCCC(Nc1ncnc2c(C(N)=O)cccc12)C1=CCCC(NC(=O)c2cc(F)ccc2F)=C1

>  <Name>  (923) 
nan

>  <Pocket>  (923) 
nan

>  <ATP_Site>  (923) 
nan

>  <Peripheral>  (923) 
nan

>  <Num_H_Atoms_ProtBoundConf>  (923) 
nan

>  <Num_Resolved_Atoms>  (923) 
nan

>  <Num_Not_Resolved_Atoms>  (923) 
nan

$$$$
CHEMBL3260594
     RDKit          3D

  0  0  0  0  0  0  0  0  0  0999 V3000
M  V30 BEGIN CTAB
M  V30 COUNTS 53 57 0 0 0
M  V30 BEGIN ATOM
M  V30 1 C 4.620875 -4.420439 1.943271 0
M  V30 2 C 4.038846 -3.337888 1.107764 0
M  V30 3 O 3.401090 -3.648308 0.048756 0
M  V30 4 C 4.190584 -1.937507 1.487060 0
M  V30 5 C 4.876737 -1.563793 2.628014 0
M  V30 6 C 4.996225 -0.248980 2.948197 0
M  V30 7 C 4.458194 0.742084 2.178707 0
M  V30 8 C 3.753235 0.424436 1.013206 0
M  V30 9 N 3.197816 1.441643 0.201108 0
M  V30 10 C 2.418600 1.413436 -1.017675 0
M  V30 11 C 1.090602 0.788581 -0.788011 0
M  V30 12 N 0.125658 1.648172 -0.353353 0
M  V30 13 C -1.046558 1.015229 -0.176825 0
M  V30 14 C -2.350104 1.491827 0.266768 0
M  V30 15 C -2.767323 0.896639 1.460174 0
M  V30 16 C -3.974436 1.217912 2.038838 0
M  V30 17 C -4.749028 2.155231 1.381719 0
M  V30 18 N -5.955346 2.657709 1.704587 0
M  V30 19 C -6.294298 3.544289 0.746823 0
M  V30 20 N -5.280611 3.577333 -0.164900 0
M  V30 21 N -4.343340 2.728743 0.228667 0
M  V30 22 C -3.160988 2.411038 -0.333853 0
M  V30 23 C -0.820400 -0.302701 -0.512718 0
M  V30 24 C -1.678513 -1.482665 -0.533562 0
M  V30 25 C -2.732753 -1.393692 -1.424886 0
M  V30 26 C -3.630349 -2.447333 -1.547963 0
M  V30 27 C -3.415414 -3.570627 -0.744117 0
M  V30 28 C -2.337571 -3.625393 0.146780 0
M  V30 29 C -2.140402 -4.838208 0.987355 0
M  V30 30 N -1.491260 -2.578180 0.232565 0
M  V30 31 N 0.470582 -0.393418 -0.872482 0
M  V30 32 C 3.666954 -0.924551 0.742634 0
M  V30 33 H 3.988661 -5.331368 1.841495 0
M  V30 34 H 5.658443 -4.694021 1.590579 0
M  V30 35 H 4.602025 -4.174997 3.020351 0
M  V30 36 H 5.322712 -2.285626 3.275497 0
M  V30 37 H 5.533288 0.085392 3.845310 0
M  V30 38 H 4.567167 1.786161 2.455703 0
M  V30 39 H 3.379476 2.436176 0.541155 0
M  V30 40 H 2.360524 2.381655 -1.510480 0
M  V30 41 H 2.999482 0.712748 -1.699437 0
M  V30 42 H -2.197731 0.145854 2.029677 0
M  V30 43 H -4.320083 0.762509 2.974590 0
M  V30 44 H -7.207261 4.131353 0.700038 0
M  V30 45 H -2.775745 2.831553 -1.254117 0
M  V30 46 H -2.961465 -0.566037 -2.073404 0
M  V30 47 H -4.473409 -2.437457 -2.226290 0
M  V30 48 H -4.092304 -4.411483 -0.810916 0
M  V30 49 H -3.064133 -5.180633 1.471621 0
M  V30 50 H -1.626964 -5.643789 0.406779 0
M  V30 51 H -1.428004 -4.562710 1.810241 0
M  V30 52 H 1.042719 -1.198991 -1.197672 0
M  V30 53 H 3.141363 -1.240891 -0.145762 0
M  V30 END ATOM
M  V30 BEGIN BOND
M  V30 1 1 1 2
M  V30 2 2 2 3
M  V30 3 1 2 4
M  V30 4 2 4 5
M  V30 5 1 5 6
M  V30 6 2 6 7
M  V30 7 1 7 8
M  V30 8 1 8 9
M  V30 9 1 9 10
M  V30 10 1 10 11
M  V30 11 2 11 12
M  V30 12 1 12 13
M  V30 13 1 13 14
M  V30 14 1 14 15
M  V30 15 2 15 16
M  V30 16 1 16 17
M  V30 17 2 17 18
M  V30 18 1 18 19
M  V30 19 2 19 20
M  V30 20 1 20 21
M  V30 21 1 21 22
M  V30 22 2 13 23
M  V30 23 1 23 24
M  V30 24 2 24 25
M  V30 25 1 25 26
M  V30 26 2 26 27
M  V30 27 1 27 28
M  V30 28 1 28 29
M  V30 29 2 28 30
M  V30 30 1 23 31
M  V30 31 2 8 32
M  V30 32 1 32 4
M  V30 33 1 31 11
M  V30 34 2 22 14
M  V30 35 1 30 24
M  V30 36 1 21 17
M  V30 37 1 1 33
M  V30 38 1 1 34
M  V30 39 1 1 35
M  V30 40 1 5 36
M  V30 41 1 6 37
M  V30 42 1 7 38
M  V30 43 1 9 39
M  V30 44 1 10 40
M  V30 45 1 10 41
M  V30 46 1 15 42
M  V30 47 1 16 43
M  V30 48 1 19 44
M  V30 49 1 22 45
M  V30 50 1 25 46
M  V30 51 1 26 47
M  V30 52 1 27 48
M  V30 53 1 29 49
M  V30 54 1 29 50
M  V30 55 1 29 51
M  V30 56 1 31 52
M  V30 57 1 32 53
M  V30 END BOND
M  V30 END CTAB
M  END
>  <Dataset>  (924) 
ChEMBL_Kinases

>  <Ligand_Instance>  (924) 
nan

>  <PDB_ID>  (924) 
nan

>  <Standardized_SMILES>  (924) 
CC(=O)c1cccc(NCc2nc(-c3ccc4ncnn4c3)c(-c3cccc(C)n3)[nH]2)c1

>  <Name>  (924) 
nan

>  <Pocket>  (924) 
nan

>  <ATP_Site>  (924) 
nan

>  <Peripheral>  (924) 
nan

>  <Num_H_Atoms_ProtBoundConf>  (924) 
nan

>  <Num_Resolved_Atoms>  (924) 
nan

>  <Num_Not_Resolved_Atoms>  (924) 
nan

$$$$
CHEMBL3260595
     RDKit          3D

  0  0  0  0  0  0  0  0  0  0999 V3000
M  V30 BEGIN CTAB
M  V30 COUNTS 54 58 0 0 0
M  V30 BEGIN ATOM
M  V30 1 C 6.735495 -3.674153 3.751666 0
M  V30 2 O 5.878497 -2.707117 3.127721 0
M  V30 3 C 5.100569 -1.851382 3.885560 0
M  V30 4 O 5.182616 -1.963826 5.136960 0
M  V30 5 C 4.217896 -0.856227 3.303845 0
M  V30 6 C 3.482524 -0.049495 4.145654 0
M  V30 7 C 2.656107 0.883323 3.579852 0
M  V30 8 C 2.593696 0.976722 2.216661 0
M  V30 9 C 3.300484 0.202320 1.322656 0
M  V30 10 N 3.233098 0.285717 -0.076962 0
M  V30 11 C 2.403661 1.153794 -0.883395 0
M  V30 12 C 0.964908 0.772116 -0.703081 0
M  V30 13 N -0.061779 1.098441 0.066887 0
M  V30 14 C -1.169555 0.398699 -0.220110 0
M  V30 15 C -2.444618 0.549166 0.465833 0
M  V30 16 C -3.429592 0.980948 -0.429712 0
M  V30 17 C -4.740305 1.196164 0.001290 0
M  V30 18 C -4.989016 0.955512 1.354435 0
M  V30 19 N -6.163645 1.085022 2.025751 0
M  V30 20 C -5.887973 0.736597 3.304109 0
M  V30 21 N -4.565647 0.409719 3.366164 0
M  V30 22 N -4.024271 0.541952 2.189823 0
M  V30 23 C -2.771974 0.338458 1.768131 0
M  V30 24 C -0.847561 -0.450519 -1.255092 0
M  V30 25 C -1.764214 -1.393402 -1.879643 0
M  V30 26 C -2.267491 -2.389754 -1.049168 0
M  V30 27 C -3.136140 -3.333917 -1.515432 0
M  V30 28 C -3.529442 -3.303568 -2.847843 0
M  V30 29 C -3.014453 -2.295574 -3.669376 0
M  V30 30 C -3.367654 -2.165481 -5.116621 0
M  V30 31 N -2.156879 -1.371932 -3.188462 0
M  V30 32 N 0.444696 -0.186312 -1.506954 0
M  V30 33 C 4.118630 -0.721858 1.936769 0
M  V30 34 H 6.180260 -4.280582 4.474596 0
M  V30 35 H 7.204772 -4.325632 3.009206 0
M  V30 36 H 7.508468 -3.074076 4.267995 0
M  V30 37 H 3.588693 -0.186672 5.204949 0
M  V30 38 H 2.085457 1.509016 4.249108 0
M  V30 39 H 1.931578 1.736274 1.843622 0
M  V30 40 H 3.862629 -0.362630 -0.609467 0
M  V30 41 H 2.677150 1.072388 -1.932860 0
M  V30 42 H 2.544867 2.213221 -0.553520 0
M  V30 43 H -3.311325 1.187810 -1.487901 0
M  V30 44 H -5.536455 1.528561 -0.648575 0
M  V30 45 H -6.537662 0.697973 4.173371 0
M  V30 46 H -1.950542 0.011307 2.368010 0
M  V30 47 H -1.986538 -2.445467 -0.015702 0
M  V30 48 H -3.528047 -4.105416 -0.879937 0
M  V30 49 H -4.219575 -4.025903 -3.286310 0
M  V30 50 H -4.070169 -1.327385 -5.301603 0
M  V30 51 H -3.747408 -3.138625 -5.476338 0
M  V30 52 H -2.422990 -1.925672 -5.658750 0
M  V30 53 H 0.908916 -0.739788 -2.286427 0
M  V30 54 H 4.728212 -1.392308 1.347312 0
M  V30 END ATOM
M  V30 BEGIN BOND
M  V30 1 1 1 2
M  V30 2 1 2 3
M  V30 3 2 3 4
M  V30 4 1 3 5
M  V30 5 2 5 6
M  V30 6 1 6 7
M  V30 7 2 7 8
M  V30 8 1 8 9
M  V30 9 1 9 10
M  V30 10 1 10 11
M  V30 11 1 11 12
M  V30 12 2 12 13
M  V30 13 1 13 14
M  V30 14 1 14 15
M  V30 15 1 15 16
M  V30 16 2 16 17
M  V30 17 1 17 18
M  V30 18 2 18 19
M  V30 19 1 19 20
M  V30 20 2 20 21
M  V30 21 1 21 22
M  V30 22 1 22 23
M  V30 23 2 14 24
M  V30 24 1 24 25
M  V30 25 2 25 26
M  V30 26 1 26 27
M  V30 27 2 27 28
M  V30 28 1 28 29
M  V30 29 1 29 30
M  V30 30 2 29 31
M  V30 31 1 24 32
M  V30 32 2 9 33
M  V30 33 1 33 5
M  V30 34 1 32 12
M  V30 35 2 23 15
M  V30 36 1 31 25
M  V30 37 1 22 18
M  V30 38 1 1 34
M  V30 39 1 1 35
M  V30 40 1 1 36
M  V30 41 1 6 37
M  V30 42 1 7 38
M  V30 43 1 8 39
M  V30 44 1 10 40
M  V30 45 1 11 41
M  V30 46 1 11 42
M  V30 47 1 16 43
M  V30 48 1 17 44
M  V30 49 1 20 45
M  V30 50 1 23 46
M  V30 51 1 26 47
M  V30 52 1 27 48
M  V30 53 1 28 49
M  V30 54 1 30 50
M  V30 55 1 30 51
M  V30 56 1 30 52
M  V30 57 1 32 53
M  V30 58 1 33 54
M  V30 END BOND
M  V30 END CTAB
M  END
>  <Dataset>  (925) 
ChEMBL_Kinases

>  <Ligand_Instance>  (925) 
nan

>  <PDB_ID>  (925) 
nan

>  <Standardized_SMILES>  (925) 
COC(=O)c1cccc(NCc2nc(-c3ccc4ncnn4c3)c(-c3cccc(C)n3)[nH]2)c1

>  <Name>  (925) 
nan

>  <Pocket>  (925) 
nan

>  <ATP_Site>  (925) 
nan

>  <Peripheral>  (925) 
nan

>  <Num_H_Atoms_ProtBoundConf>  (925) 
nan

>  <Num_Resolved_Atoms>  (925) 
nan

>  <Num_Not_Resolved_Atoms>  (925) 
nan

$$$$
CHEMBL3675509
     RDKit          3D

  0  0  0  0  0  0  0  0  0  0999 V3000
M  V30 BEGIN CTAB
M  V30 COUNTS 54 57 0 0 0
M  V30 BEGIN ATOM
M  V30 1 C 1.485936 -2.205780 2.962047 0
M  V30 2 C 0.599789 -1.061668 3.393782 0 CFG=1
M  V30 3 N 1.435074 0.129114 3.538148 0
M  V30 4 C 2.142169 0.586004 2.378603 0
M  V30 5 N 2.035641 -0.055703 1.224652 0
M  V30 6 C 2.681098 0.338340 0.114952 0
M  V30 7 N 3.486414 1.430320 0.122296 0
M  V30 8 C 3.650581 2.145340 1.265406 0
M  V30 9 C 4.462745 3.259516 1.302084 0
M  V30 10 C 5.162851 3.697619 0.124260 0
M  V30 11 N 5.063711 3.024795 -1.121844 0
M  V30 12 O 5.906779 4.710512 0.138808 0
M  V30 13 C 4.605788 3.961684 2.480880 0
M  V30 14 C 3.933047 3.543754 3.620590 0
M  V30 15 C 3.133580 2.418767 3.519218 0
M  V30 16 C 2.958887 1.684647 2.365625 0
M  V30 17 C -0.454322 -0.745465 2.397332 0
M  V30 18 C -1.008092 0.505853 2.640433 0
M  V30 19 C -2.024227 1.005307 1.817942 0
M  V30 20 C -2.494165 0.256264 0.745612 0
M  V30 21 C -1.917231 -0.980895 0.539257 0
M  V30 22 N -2.357441 -1.796175 -0.545410 0
M  V30 23 C -3.415500 -2.729047 -0.396860 0
M  V30 24 O -3.880327 -2.724737 0.780193 0
M  V30 25 C -3.869051 -3.571220 -1.520598 0
M  V30 26 C -3.355350 -3.568747 -2.803647 0
M  V30 27 C -3.918152 -4.435756 -3.720428 0
M  V30 28 C -4.956740 -5.278770 -3.378308 0
M  V30 29 C -5.558301 -6.207089 -4.364694 0
M  V30 30 F -5.278928 -5.852827 -5.662197 0
M  V30 31 F -5.163402 -7.517459 -4.192692 0
M  V30 32 F -6.954528 -6.206853 -4.272957 0
M  V30 33 N -5.445600 -5.265525 -2.115263 0
M  V30 34 C -4.908102 -4.418210 -1.187889 0
M  V30 35 C -0.914668 -1.487178 1.341234 0
M  V30 36 H 2.546433 -1.969392 3.262595 0
M  V30 37 H 1.205963 -3.104921 3.577881 0
M  V30 38 H 1.509956 -2.388221 1.885880 0
M  V30 39 H 0.096509 -1.289277 4.346360 0
M  V30 40 H 1.457283 0.565170 4.482475 0
M  V30 41 H 2.549608 -0.231121 -0.793504 0
M  V30 42 H 5.574342 2.390092 -1.761592 0
M  V30 43 H 4.388182 2.913848 -1.911911 0
M  V30 44 H 5.261534 4.843560 2.470107 0
M  V30 45 H 4.051026 4.101575 4.543091 0
M  V30 46 H 2.646482 2.159160 4.444289 0
M  V30 47 H -0.767156 1.214611 3.419578 0
M  V30 48 H -2.503793 1.965678 1.941498 0
M  V30 49 H -3.280752 0.612948 0.087825 0
M  V30 50 H -1.864418 -1.678269 -1.465467 0
M  V30 51 H -2.546349 -2.878456 -2.980169 0
M  V30 52 H -3.511649 -4.426142 -4.715592 0
M  V30 53 H -5.368727 -4.479515 -0.196575 0
M  V30 54 H -0.423478 -2.433514 1.241365 0
M  V30 END ATOM
M  V30 BEGIN BOND
M  V30 1 1 1 2
M  V30 2 1 2 3
M  V30 3 1 3 4
M  V30 4 2 4 5
M  V30 5 1 5 6
M  V30 6 2 6 7
M  V30 7 1 7 8
M  V30 8 2 8 9
M  V30 9 1 9 10
M  V30 10 1 10 11
M  V30 11 2 10 12
M  V30 12 1 9 13
M  V30 13 2 13 14
M  V30 14 1 14 15
M  V30 15 2 15 16
M  V30 16 1 2 17
M  V30 17 2 17 18
M  V30 18 1 18 19
M  V30 19 2 19 20
M  V30 20 1 20 21
M  V30 21 1 21 22
M  V30 22 1 22 23
M  V30 23 2 23 24
M  V30 24 1 23 25
M  V30 25 2 25 26
M  V30 26 1 26 27
M  V30 27 2 27 28
M  V30 28 1 28 29
M  V30 29 1 29 30
M  V30 30 1 29 31
M  V30 31 1 29 32
M  V30 32 1 28 33
M  V30 33 2 33 34
M  V30 34 2 21 35
M  V30 35 1 16 4
M  V30 36 1 35 17
M  V30 37 1 16 8
M  V30 38 1 34 25
M  V30 39 1 1 36
M  V30 40 1 1 37
M  V30 41 1 1 38
M  V30 42 1 2 39 CFG=1
M  V30 43 1 3 40
M  V30 44 1 6 41
M  V30 45 1 11 42
M  V30 46 1 11 43
M  V30 47 1 13 44
M  V30 48 1 14 45
M  V30 49 1 15 46
M  V30 50 1 18 47
M  V30 51 1 19 48
M  V30 52 1 20 49
M  V30 53 1 22 50
M  V30 54 1 26 51
M  V30 55 1 27 52
M  V30 56 1 34 53
M  V30 57 1 35 54
M  V30 END BOND
M  V30 END CTAB
M  END
>  <Dataset>  (926) 
ChEMBL_Kinases

>  <Ligand_Instance>  (926) 
nan

>  <PDB_ID>  (926) 
nan

>  <Standardized_SMILES>  (926) 
C[C@@H](Nc1ncnc2c(C(N)=O)cccc12)c1cccc(NC(=O)c2ccc(C(F)(F)F)nc2)c1

>  <Name>  (926) 
nan

>  <Pocket>  (926) 
nan

>  <ATP_Site>  (926) 
nan

>  <Peripheral>  (926) 
nan

>  <Num_H_Atoms_ProtBoundConf>  (926) 
nan

>  <Num_Resolved_Atoms>  (926) 
nan

>  <Num_Not_Resolved_Atoms>  (926) 
nan

$$$$
CHEMBL3260596
     RDKit          3D

  0  0  0  0  0  0  0  0  0  0999 V3000
M  V30 BEGIN CTAB
M  V30 COUNTS 56 60 0 0 0
M  V30 BEGIN ATOM
M  V30 1 C 5.178295 -4.332016 2.042861 0
M  V30 2 C 4.178205 -3.233840 2.158896 0
M  V30 3 C 3.988450 -2.599560 3.383397 0
M  V30 4 C 3.051886 -1.592916 3.430407 0
M  V30 5 C 2.337743 -1.244014 2.284207 0
M  V30 6 C 2.576047 -1.921664 1.082333 0
M  V30 7 C 1.727150 -1.400558 0.020122 0
M  V30 8 N 1.734621 -0.137587 -0.434830 0
M  V30 9 C 0.832202 0.015016 -1.414901 0
M  V30 10 C 0.307260 1.067060 -2.324657 0
M  V30 11 N -0.865868 1.728495 -1.800830 0
M  V30 12 C -1.015337 2.571790 -0.678158 0
M  V30 13 C -0.010215 2.966224 0.163632 0
M  V30 14 C -0.143043 3.784110 1.264491 0
M  V30 15 C -1.420897 4.238581 1.525477 0
M  V30 16 C -2.475965 3.871396 0.706677 0
M  V30 17 N -3.738015 4.394543 1.069843 0
M  V30 18 S -5.230981 3.530558 1.152051 0
M  V30 19 C -5.687660 2.878196 -0.417431 0
M  V30 20 O -4.977116 2.399233 2.140490 0
M  V30 21 O -6.310821 4.359850 1.764627 0
M  V30 22 C -2.258459 3.058965 -0.361615 0
M  V30 23 N 0.260200 -1.210479 -1.552487 0
M  V30 24 C 0.780785 -2.101295 -0.693102 0
M  V30 25 C 0.395976 -3.504816 -0.575687 0
M  V30 26 C 1.386455 -4.417089 -0.863942 0
M  V30 27 C 1.065536 -5.769617 -0.767552 0
M  V30 28 C -0.201848 -6.179913 -0.395890 0
M  V30 29 N -0.803640 -7.373029 -0.218087 0
M  V30 30 C -2.097029 -7.187549 0.159892 0
M  V30 31 N -2.310442 -5.862401 0.220346 0
M  V30 32 N -1.160889 -5.259319 -0.116845 0
M  V30 33 C -0.859317 -3.950349 -0.207443 0
M  V30 34 N 3.493850 -2.904356 1.046847 0
M  V30 35 H 6.067648 -4.108345 2.689276 0
M  V30 36 H 5.599200 -4.404548 1.008569 0
M  V30 37 H 4.717388 -5.282057 2.369757 0
M  V30 38 H 4.568104 -2.907819 4.243251 0
M  V30 39 H 2.913049 -1.104637 4.394935 0
M  V30 40 H 1.631840 -0.440694 2.445265 0
M  V30 41 H 2.300998 0.682569 -0.162698 0
M  V30 42 H 0.136864 0.678540 -3.352870 0
M  V30 43 H 1.090684 1.867793 -2.368809 0
M  V30 44 H -1.740988 1.527503 -2.373593 0
M  V30 45 H 0.993851 2.624508 -0.031974 0
M  V30 46 H 0.692030 4.063227 1.896381 0
M  V30 47 H -1.562939 4.883220 2.382116 0
M  V30 48 H -3.771930 5.428414 1.318157 0
M  V30 49 H -5.367393 3.522173 -1.274002 0
M  V30 50 H -5.284736 1.866637 -0.615920 0
M  V30 51 H -6.803580 2.753004 -0.501735 0
M  V30 52 H -3.106413 2.805005 -0.962324 0
M  V30 53 H 2.399122 -4.233346 -1.160808 0
M  V30 54 H 1.775844 -6.542915 -0.974145 0
M  V30 55 H -2.785639 -8.006639 0.362430 0
M  V30 56 H -1.566618 -3.159106 -0.001549 0
M  V30 END ATOM
M  V30 BEGIN BOND
M  V30 1 1 1 2
M  V30 2 2 2 3
M  V30 3 1 3 4
M  V30 4 2 4 5
M  V30 5 1 5 6
M  V30 6 1 6 7
M  V30 7 1 7 8
M  V30 8 1 8 9
M  V30 9 1 9 10
M  V30 10 1 10 11
M  V30 11 1 11 12
M  V30 12 2 12 13
M  V30 13 1 13 14
M  V30 14 2 14 15
M  V30 15 1 15 16
M  V30 16 1 16 17
M  V30 17 1 17 18
M  V30 18 1 18 19
M  V30 19 2 18 20
M  V30 20 2 18 21
M  V30 21 2 16 22
M  V30 22 2 9 23
M  V30 23 1 23 24
M  V30 24 1 24 25
M  V30 25 1 25 26
M  V30 26 2 26 27
M  V30 27 1 27 28
M  V30 28 2 28 29
M  V30 29 1 29 30
M  V30 30 2 30 31
M  V30 31 1 31 32
M  V30 32 1 32 33
M  V30 33 2 6 34
M  V30 34 1 34 2
M  V30 35 2 24 7
M  V30 36 2 33 25
M  V30 37 1 22 12
M  V30 38 1 32 28
M  V30 39 1 1 35
M  V30 40 1 1 36
M  V30 41 1 1 37
M  V30 42 1 3 38
M  V30 43 1 4 39
M  V30 44 1 5 40
M  V30 45 1 8 41
M  V30 46 1 10 42
M  V30 47 1 10 43
M  V30 48 1 11 44
M  V30 49 1 13 45
M  V30 50 1 14 46
M  V30 51 1 15 47
M  V30 52 1 17 48
M  V30 53 1 19 49
M  V30 54 1 19 50
M  V30 55 1 19 51
M  V30 56 1 22 52
M  V30 57 1 26 53
M  V30 58 1 27 54
M  V30 59 1 30 55
M  V30 60 1 33 56
M  V30 END BOND
M  V30 END CTAB
M  END
>  <Dataset>  (927) 
ChEMBL_Kinases

>  <Ligand_Instance>  (927) 
nan

>  <PDB_ID>  (927) 
nan

>  <Standardized_SMILES>  (927) 
Cc1cccc(-c2[nH]c(CNc3cccc(NS(C)(=O)=O)c3)nc2-c2ccc3ncnn3c2)n1

>  <Name>  (927) 
nan

>  <Pocket>  (927) 
nan

>  <ATP_Site>  (927) 
nan

>  <Peripheral>  (927) 
nan

>  <Num_H_Atoms_ProtBoundConf>  (927) 
nan

>  <Num_Resolved_Atoms>  (927) 
nan

>  <Num_Not_Resolved_Atoms>  (927) 
nan

$$$$
CHEMBL3260597
     RDKit          3D

  0  0  0  0  0  0  0  0  0  0999 V3000
M  V30 BEGIN CTAB
M  V30 COUNTS 55 59 0 0 0
M  V30 BEGIN ATOM
M  V30 1 C 4.180714 -4.068075 2.825539 0
M  V30 2 C 4.688514 -2.715150 2.408279 0
M  V30 3 O 5.831524 -2.515980 1.896954 0
M  V30 4 N 3.768455 -1.677252 2.639966 0
M  V30 5 C 3.685040 -0.271095 2.464346 0
M  V30 6 C 4.131462 0.495000 3.519995 0
M  V30 7 C 4.088248 1.869508 3.454661 0
M  V30 8 C 3.600386 2.508766 2.339796 0
M  V30 9 C 3.140266 1.767865 1.252302 0
M  V30 10 N 2.629320 2.407373 0.099317 0
M  V30 11 C 2.091861 1.998905 -1.171546 0
M  V30 12 C 0.874348 1.162996 -1.022213 0
M  V30 13 N -0.313818 1.802206 -0.856121 0
M  V30 14 C -1.316898 0.914967 -0.751100 0
M  V30 15 C -2.749009 0.930250 -0.558529 0
M  V30 16 C -3.133100 1.601647 0.602105 0
M  V30 17 C -4.449487 1.740560 0.999377 0
M  V30 18 C -5.413913 1.164062 0.168310 0
M  V30 19 N -6.760571 1.110275 0.256377 0
M  V30 20 C -7.212276 0.425454 -0.817136 0
M  V30 21 N -6.142753 0.071271 -1.543703 0
M  V30 22 N -5.033755 0.518023 -0.950107 0
M  V30 23 C -3.746875 0.387561 -1.330161 0
M  V30 24 C -0.752412 -0.342744 -0.854412 0
M  V30 25 C -1.184340 -1.735920 -0.836498 0
M  V30 26 C -1.010726 -2.408882 -2.041395 0
M  V30 27 C -1.333581 -3.730069 -2.281421 0
M  V30 28 C -1.878075 -4.422080 -1.203113 0
M  V30 29 C -2.052867 -3.758122 -0.002949 0
M  V30 30 C -2.629300 -4.458523 1.176928 0
M  V30 31 N -1.719988 -2.455663 0.185068 0
M  V30 32 N 0.592378 -0.170474 -1.020262 0
M  V30 33 C 3.204969 0.397176 1.366019 0
M  V30 34 H 5.061274 -4.739554 2.814520 0
M  V30 35 H 3.733421 -4.012408 3.838605 0
M  V30 36 H 3.433791 -4.475053 2.123991 0
M  V30 37 H 2.805654 -1.824699 3.066041 0
M  V30 38 H 4.529381 0.113396 4.433228 0
M  V30 39 H 4.427559 2.502528 4.257836 0
M  V30 40 H 3.574970 3.600277 2.309571 0
M  V30 41 H 2.632084 3.475335 0.169902 0
M  V30 42 H 2.901200 1.338914 -1.632061 0
M  V30 43 H 1.959691 2.820221 -1.871117 0
M  V30 44 H -2.445672 2.078781 1.301675 0
M  V30 45 H -4.763585 2.252972 1.888137 0
M  V30 46 H -8.248266 0.192200 -1.065286 0
M  V30 47 H -3.390415 -0.118442 -2.211980 0
M  V30 48 H -0.585685 -1.909922 -2.922135 0
M  V30 49 H -1.177006 -4.204614 -3.240456 0
M  V30 50 H -2.152850 -5.454957 -1.314066 0
M  V30 51 H -1.806978 -4.979623 1.708349 0
M  V30 52 H -3.284258 -5.277031 0.761480 0
M  V30 53 H -3.201252 -3.776656 1.838266 0
M  V30 54 H 1.390256 -0.832167 -1.144459 0
M  V30 55 H 2.878027 -0.254269 0.582534 0
M  V30 END ATOM
M  V30 BEGIN BOND
M  V30 1 1 1 2
M  V30 2 2 2 3
M  V30 3 1 2 4
M  V30 4 1 4 5
M  V30 5 2 5 6
M  V30 6 1 6 7
M  V30 7 2 7 8
M  V30 8 1 8 9
M  V30 9 1 9 10
M  V30 10 1 10 11
M  V30 11 1 11 12
M  V30 12 2 12 13
M  V30 13 1 13 14
M  V30 14 1 14 15
M  V30 15 1 15 16
M  V30 16 2 16 17
M  V30 17 1 17 18
M  V30 18 2 18 19
M  V30 19 1 19 20
M  V30 20 2 20 21
M  V30 21 1 21 22
M  V30 22 1 22 23
M  V30 23 2 14 24
M  V30 24 1 24 25
M  V30 25 2 25 26
M  V30 26 1 26 27
M  V30 27 2 27 28
M  V30 28 1 28 29
M  V30 29 1 29 30
M  V30 30 2 29 31
M  V30 31 1 24 32
M  V30 32 2 9 33
M  V30 33 1 33 5
M  V30 34 1 32 12
M  V30 35 2 23 15
M  V30 36 1 31 25
M  V30 37 1 22 18
M  V30 38 1 1 34
M  V30 39 1 1 35
M  V30 40 1 1 36
M  V30 41 1 4 37
M  V30 42 1 6 38
M  V30 43 1 7 39
M  V30 44 1 8 40
M  V30 45 1 10 41
M  V30 46 1 11 42
M  V30 47 1 11 43
M  V30 48 1 16 44
M  V30 49 1 17 45
M  V30 50 1 20 46
M  V30 51 1 23 47
M  V30 52 1 26 48
M  V30 53 1 27 49
M  V30 54 1 28 50
M  V30 55 1 30 51
M  V30 56 1 30 52
M  V30 57 1 30 53
M  V30 58 1 32 54
M  V30 59 1 33 55
M  V30 END BOND
M  V30 END CTAB
M  END
>  <Dataset>  (928) 
ChEMBL_Kinases

>  <Ligand_Instance>  (928) 
nan

>  <PDB_ID>  (928) 
nan

>  <Standardized_SMILES>  (928) 
CC(=O)Nc1cccc(NCc2nc(-c3ccc4ncnn4c3)c(-c3cccc(C)n3)[nH]2)c1

>  <Name>  (928) 
nan

>  <Pocket>  (928) 
nan

>  <ATP_Site>  (928) 
nan

>  <Peripheral>  (928) 
nan

>  <Num_H_Atoms_ProtBoundConf>  (928) 
nan

>  <Num_Resolved_Atoms>  (928) 
nan

>  <Num_Not_Resolved_Atoms>  (928) 
nan

$$$$
CHEMBL3260598
     RDKit          3D

  0  0  0  0  0  0  0  0  0  0999 V3000
M  V30 BEGIN CTAB
M  V30 COUNTS 48 52 0 0 0
M  V30 BEGIN ATOM
M  V30 1 C -0.676177 -2.060551 4.848048 0
M  V30 2 C 0.339218 -2.244219 3.776549 0
M  V30 3 C 1.471425 -3.001430 3.967932 0
M  V30 4 C 2.451538 -3.210912 3.012913 0
M  V30 5 C 2.265671 -2.607828 1.778343 0
M  V30 6 C 1.134362 -1.845736 1.573171 0
M  V30 7 C 0.768361 -1.138738 0.349540 0
M  V30 8 N 1.506034 -0.160652 -0.196549 0
M  V30 9 C 0.975720 0.345495 -1.319208 0
M  V30 10 C 1.326908 1.404759 -2.299306 0
M  V30 11 N 0.731236 2.675720 -2.045381 0
M  V30 12 C 0.907990 3.575001 -0.986736 0
M  V30 13 C 1.772094 3.400676 0.073490 0
M  V30 14 C 1.956835 4.266244 1.128196 0
M  V30 15 C 1.211676 5.430222 1.142879 0
M  V30 16 F 1.325042 6.337695 2.134630 0
M  V30 17 C 0.329085 5.671270 0.117193 0
M  V30 18 C 0.198494 4.759516 -0.903046 0
M  V30 19 N -0.176238 -0.373962 -1.479735 0
M  V30 20 C -0.317497 -1.268712 -0.488595 0
M  V30 21 C -1.390417 -2.233507 -0.267893 0
M  V30 22 C -2.719975 -1.907357 -0.069722 0
M  V30 23 C -3.684428 -2.865132 0.133758 0
M  V30 24 C -3.272765 -4.182523 0.133217 0
M  V30 25 N -4.015976 -5.279633 0.307982 0
M  V30 26 C -3.164117 -6.320735 0.222554 0
M  V30 27 N -1.918644 -5.850999 -0.001905 0
M  V30 28 N -1.985824 -4.525298 -0.057312 0
M  V30 29 C -1.020082 -3.582929 -0.260214 0
M  V30 30 N 0.225987 -1.691797 2.559500 0
M  V30 31 H -1.445299 -2.853782 4.750361 0
M  V30 32 H -1.192969 -1.077268 4.664695 0
M  V30 33 H -0.213121 -2.019146 5.852887 0
M  V30 34 H 1.652368 -3.488031 4.916569 0
M  V30 35 H 3.332468 -3.790698 3.138369 0
M  V30 36 H 2.935379 -2.670510 0.923773 0
M  V30 37 H 2.408520 0.194254 0.177833 0
M  V30 38 H 2.449244 1.469043 -2.314185 0
M  V30 39 H 1.016410 1.053544 -3.305220 0
M  V30 40 H 0.035634 3.008537 -2.769887 0
M  V30 41 H 2.379320 2.530679 0.120528 0
M  V30 42 H 2.647304 4.079459 1.932384 0
M  V30 43 H -0.266203 6.580652 0.110268 0
M  V30 44 H -0.520738 5.012893 -1.687003 0
M  V30 45 H -2.975519 -0.856603 -0.081018 0
M  V30 46 H -4.719811 -2.590252 0.286942 0
M  V30 47 H -3.346802 -7.383379 0.305114 0
M  V30 48 H 0.012306 -3.880554 -0.411976 0
M  V30 END ATOM
M  V30 BEGIN BOND
M  V30 1 1 1 2
M  V30 2 2 2 3
M  V30 3 1 3 4
M  V30 4 2 4 5
M  V30 5 1 5 6
M  V30 6 1 6 7
M  V30 7 1 7 8
M  V30 8 1 8 9
M  V30 9 1 9 10
M  V30 10 1 10 11
M  V30 11 1 11 12
M  V30 12 2 12 13
M  V30 13 1 13 14
M  V30 14 2 14 15
M  V30 15 1 15 16
M  V30 16 1 15 17
M  V30 17 2 17 18
M  V30 18 2 9 19
M  V30 19 1 19 20
M  V30 20 1 20 21
M  V30 21 1 21 22
M  V30 22 2 22 23
M  V30 23 1 23 24
M  V30 24 2 24 25
M  V30 25 1 25 26
M  V30 26 2 26 27
M  V30 27 1 27 28
M  V30 28 1 28 29
M  V30 29 2 6 30
M  V30 30 1 30 2
M  V30 31 2 20 7
M  V30 32 2 29 21
M  V30 33 1 18 12
M  V30 34 1 28 24
M  V30 35 1 1 31
M  V30 36 1 1 32
M  V30 37 1 1 33
M  V30 38 1 3 34
M  V30 39 1 4 35
M  V30 40 1 5 36
M  V30 41 1 8 37
M  V30 42 1 10 38
M  V30 43 1 10 39
M  V30 44 1 11 40
M  V30 45 1 13 41
M  V30 46 1 14 42
M  V30 47 1 17 43
M  V30 48 1 18 44
M  V30 49 1 22 45
M  V30 50 1 23 46
M  V30 51 1 26 47
M  V30 52 1 29 48
M  V30 END BOND
M  V30 END CTAB
M  END
>  <Dataset>  (929) 
ChEMBL_Kinases

>  <Ligand_Instance>  (929) 
nan

>  <PDB_ID>  (929) 
nan

>  <Standardized_SMILES>  (929) 
Cc1cccc(-c2[nH]c(CNc3ccc(F)cc3)nc2-c2ccc3ncnn3c2)n1

>  <Name>  (929) 
nan

>  <Pocket>  (929) 
nan

>  <ATP_Site>  (929) 
nan

>  <Peripheral>  (929) 
nan

>  <Num_H_Atoms_ProtBoundConf>  (929) 
nan

>  <Num_Resolved_Atoms>  (929) 
nan

>  <Num_Not_Resolved_Atoms>  (929) 
nan

$$$$
CHEMBL3260599
     RDKit          3D

  0  0  0  0  0  0  0  0  0  0999 V3000
M  V30 BEGIN CTAB
M  V30 COUNTS 48 52 0 0 0
M  V30 BEGIN ATOM
M  V30 1 C -0.679659 -2.141408 4.860496 0
M  V30 2 C 0.300038 -2.283927 3.767247 0
M  V30 3 C 1.426186 -3.040716 3.970541 0
M  V30 4 C 2.395266 -3.231447 3.011435 0
M  V30 5 C 2.244631 -2.633370 1.760777 0
M  V30 6 C 1.088440 -1.866793 1.577883 0
M  V30 7 C 0.737128 -1.158405 0.352161 0
M  V30 8 N 1.501180 -0.183960 -0.165043 0
M  V30 9 C 0.999685 0.337529 -1.294716 0
M  V30 10 C 1.359954 1.395552 -2.272640 0
M  V30 11 N 0.767223 2.669125 -2.016719 0
M  V30 12 C 0.933673 3.572500 -0.946488 0
M  V30 13 C 1.771706 3.403495 0.121791 0
M  V30 14 C 1.925377 4.286322 1.168465 0
M  V30 15 C 1.174897 5.433179 1.138278 0
M  V30 16 Cl 1.291054 6.622834 2.415649 0
M  V30 17 C 0.313321 5.675594 0.103303 0
M  V30 18 C 0.215624 4.746180 -0.904706 0
M  V30 19 N -0.157300 -0.357148 -1.500389 0
M  V30 20 C -0.324979 -1.257268 -0.518364 0
M  V30 21 C -1.407917 -2.222505 -0.310903 0
M  V30 22 C -2.727268 -1.820621 -0.132308 0
M  V30 23 C -3.655497 -2.831483 0.054423 0
M  V30 24 C -3.305436 -4.172856 0.065351 0
M  V30 25 N -3.980390 -5.321351 0.220928 0
M  V30 26 C -3.095434 -6.307206 0.135130 0
M  V30 27 N -1.858514 -5.805956 -0.073918 0
M  V30 28 N -1.998323 -4.475615 -0.116094 0
M  V30 29 C -1.005048 -3.560666 -0.308049 0
M  V30 30 N 0.158582 -1.710080 2.562717 0
M  V30 31 H -1.191850 -3.083109 5.103024 0
M  V30 32 H -1.446289 -1.360325 4.619915 0
M  V30 33 H -0.163755 -1.788733 5.794771 0
M  V30 34 H 1.613480 -3.534107 4.909307 0
M  V30 35 H 3.293896 -3.817256 3.128848 0
M  V30 36 H 2.911019 -2.687271 0.911194 0
M  V30 37 H 2.401602 0.176951 0.210804 0
M  V30 38 H 2.487745 1.506422 -2.246689 0
M  V30 39 H 1.137408 1.035874 -3.285195 0
M  V30 40 H 0.083898 2.979096 -2.768443 0
M  V30 41 H 2.379156 2.521559 0.177279 0
M  V30 42 H 2.622463 4.074586 1.991033 0
M  V30 43 H -0.266665 6.575936 0.092865 0
M  V30 44 H -0.486320 4.991803 -1.702918 0
M  V30 45 H -2.973703 -0.773449 -0.144870 0
M  V30 46 H -4.703197 -2.541692 0.197557 0
M  V30 47 H -3.375562 -7.349855 0.226674 0
M  V30 48 H 0.012500 -3.853172 -0.446665 0
M  V30 END ATOM
M  V30 BEGIN BOND
M  V30 1 1 1 2
M  V30 2 2 2 3
M  V30 3 1 3 4
M  V30 4 2 4 5
M  V30 5 1 5 6
M  V30 6 1 6 7
M  V30 7 1 7 8
M  V30 8 1 8 9
M  V30 9 1 9 10
M  V30 10 1 10 11
M  V30 11 1 11 12
M  V30 12 2 12 13
M  V30 13 1 13 14
M  V30 14 2 14 15
M  V30 15 1 15 16
M  V30 16 1 15 17
M  V30 17 2 17 18
M  V30 18 2 9 19
M  V30 19 1 19 20
M  V30 20 1 20 21
M  V30 21 1 21 22
M  V30 22 2 22 23
M  V30 23 1 23 24
M  V30 24 2 24 25
M  V30 25 1 25 26
M  V30 26 2 26 27
M  V30 27 1 27 28
M  V30 28 1 28 29
M  V30 29 2 6 30
M  V30 30 1 30 2
M  V30 31 2 20 7
M  V30 32 2 29 21
M  V30 33 1 18 12
M  V30 34 1 28 24
M  V30 35 1 1 31
M  V30 36 1 1 32
M  V30 37 1 1 33
M  V30 38 1 3 34
M  V30 39 1 4 35
M  V30 40 1 5 36
M  V30 41 1 8 37
M  V30 42 1 10 38
M  V30 43 1 10 39
M  V30 44 1 11 40
M  V30 45 1 13 41
M  V30 46 1 14 42
M  V30 47 1 17 43
M  V30 48 1 18 44
M  V30 49 1 22 45
M  V30 50 1 23 46
M  V30 51 1 26 47
M  V30 52 1 29 48
M  V30 END BOND
M  V30 END CTAB
M  END
>  <Dataset>  (930) 
ChEMBL_Kinases

>  <Ligand_Instance>  (930) 
nan

>  <PDB_ID>  (930) 
nan

>  <Standardized_SMILES>  (930) 
Cc1cccc(-c2[nH]c(CNc3ccc(Cl)cc3)nc2-c2ccc3ncnn3c2)n1

>  <Name>  (930) 
nan

>  <Pocket>  (930) 
nan

>  <ATP_Site>  (930) 
nan

>  <Peripheral>  (930) 
nan

>  <Num_H_Atoms_ProtBoundConf>  (930) 
nan

>  <Num_Resolved_Atoms>  (930) 
nan

>  <Num_Not_Resolved_Atoms>  (930) 
nan

$$$$
CHEMBL3260592
     RDKit          3D

  0  0  0  0  0  0  0  0  0  0999 V3000
M  V30 BEGIN CTAB
M  V30 COUNTS 52 56 0 0 0
M  V30 BEGIN ATOM
M  V30 1 C 2.989284 -5.138971 -0.184148 0
M  V30 2 C 3.385747 -3.883335 0.544654 0
M  V30 3 C 4.607812 -3.706625 1.160180 0
M  V30 4 C 4.885767 -2.515082 1.809036 0
M  V30 5 C 3.902200 -1.521082 1.815829 0
M  V30 6 C 2.685214 -1.724632 1.190561 0
M  V30 7 C 1.744330 -0.615381 1.268101 0
M  V30 8 N 1.822131 0.652736 0.832822 0
M  V30 9 C 0.711140 1.366128 1.113884 0
M  V30 10 C 0.690958 2.804944 0.677197 0
M  V30 11 N 0.188506 2.923557 -0.660824 0
M  V30 12 C -1.109337 2.654535 -1.153605 0
M  V30 13 C -2.169688 2.240299 -0.380844 0
M  V30 14 C -3.439617 1.963260 -0.834963 0
M  V30 15 C -3.675698 2.113803 -2.189373 0
M  V30 16 C -2.645227 2.526982 -3.005083 0
M  V30 17 C -2.869943 2.692924 -4.435820 0
M  V30 18 N -4.126250 2.443911 -5.040385 0
M  V30 19 O -2.102112 3.048457 -5.343642 0
M  V30 20 C -1.397278 2.788193 -2.490407 0
M  V30 21 N -0.094079 0.501642 1.753070 0
M  V30 22 C 0.503417 -0.694754 1.858196 0
M  V30 23 C -0.179762 -1.795863 2.515938 0
M  V30 24 C -0.541237 -2.975522 1.890929 0
M  V30 25 C -1.192852 -3.993646 2.568453 0
M  V30 26 C -1.479541 -3.801984 3.907297 0
M  V30 27 N -2.103763 -4.662826 4.741661 0
M  V30 28 C -2.149472 -4.030966 5.932783 0
M  V30 29 N -1.562820 -2.826321 5.792007 0
M  V30 30 N -1.149395 -2.676605 4.555904 0
M  V30 31 C -0.513616 -1.701775 3.864946 0
M  V30 32 N 2.475375 -2.910791 0.573961 0
M  V30 33 H 1.913409 -5.362480 -0.068486 0
M  V30 34 H 3.119396 -4.889796 -1.276143 0
M  V30 35 H 3.663192 -5.943893 0.136830 0
M  V30 36 H 5.322851 -4.524148 1.113202 0
M  V30 37 H 5.855554 -2.429924 2.273170 0
M  V30 38 H 4.233426 -0.634635 2.352724 0
M  V30 39 H 2.723851 0.924549 0.336522 0
M  V30 40 H -0.023232 3.382112 1.328595 0
M  V30 41 H 1.687081 3.254943 0.795612 0
M  V30 42 H 0.902464 3.262094 -1.374153 0
M  V30 43 H -2.043205 2.115163 0.677368 0
M  V30 44 H -4.236100 1.640020 -0.179657 0
M  V30 45 H -4.660332 1.905117 -2.580131 0
M  V30 46 H -4.988742 2.007043 -4.605343 0
M  V30 47 H -4.955007 2.016075 -4.596345 0
M  V30 48 H -0.607003 3.112930 -3.164369 0
M  V30 49 H -0.303973 -3.096183 0.842873 0
M  V30 50 H -1.466443 -4.912972 2.053074 0
M  V30 51 H -2.595099 -4.462833 6.825342 0
M  V30 52 H -0.267943 -0.804937 4.444689 0
M  V30 END ATOM
M  V30 BEGIN BOND
M  V30 1 1 1 2
M  V30 2 2 2 3
M  V30 3 1 3 4
M  V30 4 2 4 5
M  V30 5 1 5 6
M  V30 6 1 6 7
M  V30 7 1 7 8
M  V30 8 1 8 9
M  V30 9 1 9 10
M  V30 10 1 10 11
M  V30 11 1 11 12
M  V30 12 2 12 13
M  V30 13 1 13 14
M  V30 14 2 14 15
M  V30 15 1 15 16
M  V30 16 1 16 17
M  V30 17 1 17 18
M  V30 18 2 17 19
M  V30 19 2 16 20
M  V30 20 2 9 21
M  V30 21 1 21 22
M  V30 22 1 22 23
M  V30 23 1 23 24
M  V30 24 2 24 25
M  V30 25 1 25 26
M  V30 26 2 26 27
M  V30 27 1 27 28
M  V30 28 2 28 29
M  V30 29 1 29 30
M  V30 30 1 30 31
M  V30 31 2 6 32
M  V30 32 1 32 2
M  V30 33 2 22 7
M  V30 34 2 31 23
M  V30 35 1 20 12
M  V30 36 1 30 26
M  V30 37 1 1 33
M  V30 38 1 1 34
M  V30 39 1 1 35
M  V30 40 1 3 36
M  V30 41 1 4 37
M  V30 42 1 5 38
M  V30 43 1 8 39
M  V30 44 1 10 40
M  V30 45 1 10 41
M  V30 46 1 11 42
M  V30 47 1 13 43
M  V30 48 1 14 44
M  V30 49 1 15 45
M  V30 50 1 18 46
M  V30 51 1 18 47
M  V30 52 1 20 48
M  V30 53 1 24 49
M  V30 54 1 25 50
M  V30 55 1 28 51
M  V30 56 1 31 52
M  V30 END BOND
M  V30 END CTAB
M  END
>  <Dataset>  (931) 
ChEMBL_Kinases

>  <Ligand_Instance>  (931) 
nan

>  <PDB_ID>  (931) 
nan

>  <Standardized_SMILES>  (931) 
Cc1cccc(-c2[nH]c(CNc3cccc(C(N)=O)c3)nc2-c2ccc3ncnn3c2)n1

>  <Name>  (931) 
nan

>  <Pocket>  (931) 
nan

>  <ATP_Site>  (931) 
nan

>  <Peripheral>  (931) 
nan

>  <Num_H_Atoms_ProtBoundConf>  (931) 
nan

>  <Num_Resolved_Atoms>  (931) 
nan

>  <Num_Not_Resolved_Atoms>  (931) 
nan

$$$$
CHEMBL3675430
     RDKit          3D

  0  0  0  0  0  0  0  0  0  0999 V3000
M  V30 BEGIN CTAB
M  V30 COUNTS 85 89 0 0 0
M  V30 BEGIN ATOM
M  V30 1 C 0.707128 -6.988331 4.190833 0
M  V30 2 C 2.085084 -6.578606 3.733576 0
M  V30 3 N 2.109669 -5.833876 2.520511 0
M  V30 4 C 1.776761 -6.464889 1.315670 0
M  V30 5 C 0.322640 -6.826179 1.226191 0
M  V30 6 C 3.087478 -4.826103 2.550052 0
M  V30 7 C 4.513778 -5.269473 2.776592 0
M  V30 8 C 5.333733 -4.198414 2.037101 0
M  V30 9 N 4.366397 -3.193371 1.648322 0
M  V30 10 C 4.388105 -1.772556 1.583603 0
M  V30 11 C 3.224723 -1.073947 1.475613 0
M  V30 12 C 3.117865 0.288386 1.385219 0
M  V30 13 C 1.870996 1.032388 1.295707 0
M  V30 14 O 1.839340 2.259446 0.993592 0
M  V30 15 N 0.634553 0.386474 1.549923 0
M  V30 16 C -0.721013 0.813506 1.540263 0
M  V30 17 C -1.286785 1.412141 2.651825 0
M  V30 18 C -2.603712 1.817625 2.671925 0
M  V30 19 C -3.422705 1.638049 1.567181 0
M  V30 20 C -2.902598 1.050711 0.453420 0
M  V30 21 C -3.634343 0.754320 -0.845163 0
M  V30 22 C -4.955408 1.436231 -0.880655 0
M  V30 23 N -5.674278 1.163496 -2.051964 0
M  V30 24 C -5.267819 1.668589 -3.297771 0
M  V30 25 C -6.553637 0.041304 -2.050015 0
M  V30 26 N -2.762497 1.094045 -1.957957 0
M  V30 27 C -2.318248 2.441244 -2.081304 0
M  V30 28 N -2.707448 3.355705 -1.169369 0
M  V30 29 C -2.309406 4.633007 -1.247582 0
M  V30 30 N -1.499235 5.110346 -2.226680 0
M  V30 31 C -1.066902 4.240611 -3.185042 0
M  V30 32 C -0.241863 4.642292 -4.216195 0
M  V30 33 C 0.192308 6.033628 -4.304013 0
M  V30 34 N -0.214534 7.025463 -3.355636 0
M  V30 35 O 0.950283 6.426219 -5.220892 0
M  V30 36 C 0.175404 3.756823 -5.160525 0
M  V30 37 C -0.238235 2.436389 -5.075562 0
M  V30 38 C -1.060811 2.065396 -4.035645 0
M  V30 39 C -1.498011 2.953745 -3.063093 0
M  V30 40 C -1.573047 0.655915 0.467446 0
M  V30 41 C 4.292381 1.055095 1.402330 0
M  V30 42 C 5.443972 0.309121 1.513765 0
M  V30 43 N 5.525707 -1.038216 1.602097 0
M  V30 44 C 3.242744 -4.040430 1.271638 0
M  V30 45 H 0.575911 -8.087758 4.033543 0
M  V30 46 H -0.059710 -6.355851 3.744047 0
M  V30 47 H 0.607856 -6.872631 5.316842 0
M  V30 48 H 2.529688 -5.989971 4.594448 0
M  V30 49 H 2.766532 -7.482501 3.686846 0
M  V30 50 H 1.963315 -5.751546 0.476787 0
M  V30 51 H 2.330967 -7.418058 1.113124 0
M  V30 52 H 0.009000 -7.711826 1.768256 0
M  V30 53 H -0.373226 -5.988025 1.428212 0
M  V30 54 H 0.133296 -7.080247 0.130962 0
M  V30 55 H 2.820590 -4.084214 3.341773 0
M  V30 56 H 4.701746 -5.288292 3.849876 0
M  V30 57 H 4.760631 -6.241279 2.322681 0
M  V30 58 H 5.841370 -4.617545 1.143441 0
M  V30 59 H 6.084501 -3.853222 2.754536 0
M  V30 60 H 2.263044 -1.570157 1.453123 0
M  V30 61 H 0.519928 -0.615455 1.813260 0
M  V30 62 H -0.685082 1.576842 3.559895 0
M  V30 63 H -3.059798 2.292613 3.541222 0
M  V30 64 H -4.472761 1.924208 1.489122 0
M  V30 65 H -3.786686 -0.341625 -0.854136 0
M  V30 66 H -4.873204 2.539844 -0.663568 0
M  V30 67 H -5.586313 1.072836 -0.009552 0
M  V30 68 H -6.090610 1.703523 -4.057452 0
M  V30 69 H -4.385223 1.141359 -3.677284 0
M  V30 70 H -4.964552 2.742195 -3.133078 0
M  V30 71 H -7.385710 0.115461 -1.321874 0
M  V30 72 H -6.937094 -0.151517 -3.055129 0
M  V30 73 H -5.921452 -0.857286 -1.789747 0
M  V30 74 H -2.487858 0.325104 -2.613678 0
M  V30 75 H -2.656014 5.330507 -0.477253 0
M  V30 76 H 0.012190 7.177944 -2.327158 0
M  V30 77 H -0.092799 7.313525 -2.345344 0
M  V30 78 H 0.817894 4.109883 -5.954633 0
M  V30 79 H 0.126433 1.767749 -5.852419 0
M  V30 80 H -1.326301 1.026258 -4.060336 0
M  V30 81 H -1.114341 0.178617 -0.406225 0
M  V30 82 H 4.300694 2.116965 1.340797 0
M  V30 83 H 6.417061 0.801129 1.542372 0
M  V30 84 H 2.360212 -3.516174 0.927606 0
M  V30 85 H 3.683760 -4.728052 0.489507 0
M  V30 END ATOM
M  V30 BEGIN BOND
M  V30 1 1 1 2
M  V30 2 1 2 3
M  V30 3 1 3 4
M  V30 4 1 4 5
M  V30 5 1 3 6
M  V30 6 1 6 7
M  V30 7 1 7 8
M  V30 8 1 8 9
M  V30 9 1 9 10
M  V30 10 2 10 11
M  V30 11 1 11 12
M  V30 12 1 12 13
M  V30 13 2 13 14
M  V30 14 1 13 15
M  V30 15 1 15 16
M  V30 16 2 16 17
M  V30 17 1 17 18
M  V30 18 2 18 19
M  V30 19 1 19 20
M  V30 20 1 20 21
M  V30 21 1 21 22
M  V30 22 1 22 23
M  V30 23 1 23 24
M  V30 24 1 23 25
M  V30 25 1 21 26
M  V30 26 1 26 27
M  V30 27 2 27 28
M  V30 28 1 28 29
M  V30 29 2 29 30
M  V30 30 1 30 31
M  V30 31 2 31 32
M  V30 32 1 32 33
M  V30 33 1 33 34
M  V30 34 2 33 35
M  V30 35 1 32 36
M  V30 36 2 36 37
M  V30 37 1 37 38
M  V30 38 2 38 39
M  V30 39 2 20 40
M  V30 40 2 12 41
M  V30 41 1 41 42
M  V30 42 2 42 43
M  V30 43 1 9 44
M  V30 44 1 44 6
M  V30 45 1 43 10
M  V30 46 1 40 16
M  V30 47 1 39 27
M  V30 48 1 39 31
M  V30 49 1 1 45
M  V30 50 1 1 46
M  V30 51 1 1 47
M  V30 52 1 2 48
M  V30 53 1 2 49
M  V30 54 1 4 50
M  V30 55 1 4 51
M  V30 56 1 5 52
M  V30 57 1 5 53
M  V30 58 1 5 54
M  V30 59 1 6 55
M  V30 60 1 7 56
M  V30 61 1 7 57
M  V30 62 1 8 58
M  V30 63 1 8 59
M  V30 64 1 11 60
M  V30 65 1 15 61
M  V30 66 1 17 62
M  V30 67 1 18 63
M  V30 68 1 19 64
M  V30 69 1 21 65
M  V30 70 1 22 66
M  V30 71 1 22 67
M  V30 72 1 24 68
M  V30 73 1 24 69
M  V30 74 1 24 70
M  V30 75 1 25 71
M  V30 76 1 25 72
M  V30 77 1 25 73
M  V30 78 1 26 74
M  V30 79 1 29 75
M  V30 80 1 34 76
M  V30 81 1 34 77
M  V30 82 1 36 78
M  V30 83 1 37 79
M  V30 84 1 38 80
M  V30 85 1 40 81
M  V30 86 1 41 82
M  V30 87 1 42 83
M  V30 88 1 44 84
M  V30 89 1 44 85
M  V30 END BOND
M  V30 END CTAB
M  END
>  <Dataset>  (932) 
ChEMBL_Kinases

>  <Ligand_Instance>  (932) 
nan

>  <PDB_ID>  (932) 
nan

>  <Standardized_SMILES>  (932) 
CCN(CC)C1CCN(c2cc(C(=O)Nc3cccc(C(CN(C)C)Nc4ncnc5c(C(N)=O)cccc45)c3)ccn2)C1

>  <Name>  (932) 
nan

>  <Pocket>  (932) 
nan

>  <ATP_Site>  (932) 
nan

>  <Peripheral>  (932) 
nan

>  <Num_H_Atoms_ProtBoundConf>  (932) 
nan

>  <Num_Resolved_Atoms>  (932) 
nan

>  <Num_Not_Resolved_Atoms>  (932) 
nan

$$$$
CHEMBL375236
     RDKit          3D

  0  0  0  0  0  0  0  0  0  0999 V3000
M  V30 BEGIN CTAB
M  V30 COUNTS 41 44 0 0 0
M  V30 BEGIN ATOM
M  V30 1 N 7.605106 -1.902361 1.001838 0
M  V30 2 C 6.191327 -2.144025 0.779118 0
M  V30 3 O 5.344627 -2.617746 1.566489 0
M  V30 4 N 5.764959 -1.763668 -0.553809 0
M  V30 5 C 4.348919 -2.056643 -0.629172 0
M  V30 6 C 4.017781 -3.333257 -1.041890 0
M  V30 7 C 2.683509 -3.688029 -1.132318 0
M  V30 8 C 1.651777 -2.822263 -0.828409 0
M  V30 9 C 2.015145 -1.554908 -0.419874 0
M  V30 10 C 3.337954 -1.183158 -0.323344 0
M  V30 11 C 0.812118 -0.785024 -0.140147 0
M  V30 12 C 0.620394 0.466016 0.229265 0
M  V30 13 C -0.632883 1.161113 0.496637 0
M  V30 14 C -1.597770 0.663312 1.382830 0
M  V30 15 C -2.692057 1.510182 1.433039 0
M  V30 16 C -3.907811 1.370319 2.230009 0
M  V30 17 C -3.832731 0.748928 3.486522 0
M  V30 18 C -4.969927 0.595375 4.274018 0
M  V30 19 C -6.198959 1.053375 3.833446 0
M  V30 20 N -6.255732 1.655179 2.610302 0
M  V30 21 C -5.156756 1.804669 1.846676 0
M  V30 22 C -2.384085 2.532689 0.566899 0
M  V30 23 N -1.173674 2.291469 0.041165 0
M  V30 24 C -0.302004 -1.674388 -0.407475 0
M  V30 25 O -1.532016 -1.488559 -0.321043 0
M  V30 26 N 0.231547 -2.924146 -0.829678 0
M  V30 27 H 8.324914 -2.352179 0.371216 0
M  V30 28 H 8.126307 -1.343738 1.696213 0
M  V30 29 H 6.406491 -1.361290 -1.271371 0
M  V30 30 H 4.728772 -4.102050 -1.307706 0
M  V30 31 H 2.398707 -4.682181 -1.452354 0
M  V30 32 H 3.623158 -0.185758 -0.001776 0
M  V30 33 H 1.545765 1.054548 0.346729 0
M  V30 34 H -1.629752 -0.234026 2.023990 0
M  V30 35 H -2.871822 0.382613 3.848150 0
M  V30 36 H -4.870173 0.107036 5.244781 0
M  V30 37 H -7.100018 0.938616 4.442948 0
M  V30 38 H -5.163270 2.271750 0.881978 0
M  V30 39 H -3.006008 3.398222 0.336068 0
M  V30 40 H -0.652741 2.881524 -0.655119 0
M  V30 41 H -0.296252 -3.783590 -1.099761 0
M  V30 END ATOM
M  V30 BEGIN BOND
M  V30 1 1 1 2
M  V30 2 2 2 3
M  V30 3 1 2 4
M  V30 4 1 4 5
M  V30 5 2 5 6
M  V30 6 1 6 7
M  V30 7 2 7 8
M  V30 8 1 8 9
M  V30 9 2 9 10
M  V30 10 1 9 11
M  V30 11 2 11 12
M  V30 12 1 12 13
M  V30 13 2 13 14
M  V30 14 1 14 15
M  V30 15 1 15 16
M  V30 16 2 16 17
M  V30 17 1 17 18
M  V30 18 2 18 19
M  V30 19 1 19 20
M  V30 20 2 20 21
M  V30 21 2 15 22
M  V30 22 1 22 23
M  V30 23 1 11 24
M  V30 24 2 24 25
M  V30 25 1 24 26
M  V30 26 1 10 5
M  V30 27 1 23 13
M  V30 28 1 26 8
M  V30 29 1 21 16
M  V30 30 1 1 27
M  V30 31 1 1 28
M  V30 32 1 4 29
M  V30 33 1 6 30
M  V30 34 1 7 31
M  V30 35 1 10 32
M  V30 36 1 12 33
M  V30 37 1 14 34
M  V30 38 1 17 35
M  V30 39 1 18 36
M  V30 40 1 19 37
M  V30 41 1 21 38
M  V30 42 1 22 39
M  V30 43 1 23 40
M  V30 44 1 26 41
M  V30 END BOND
M  V30 END CTAB
M  END
>  <Dataset>  (933) 
ChEMBL_Kinases

>  <Ligand_Instance>  (933) 
nan

>  <PDB_ID>  (933) 
nan

>  <Standardized_SMILES>  (933) 
NC(=O)Nc1ccc2c(c1)/C(=C/c1cc(-c3cccnc3)c[nH]1)C(=O)N2

>  <Name>  (933) 
nan

>  <Pocket>  (933) 
nan

>  <ATP_Site>  (933) 
nan

>  <Peripheral>  (933) 
nan

>  <Num_H_Atoms_ProtBoundConf>  (933) 
nan

>  <Num_Resolved_Atoms>  (933) 
nan

>  <Num_Not_Resolved_Atoms>  (933) 
nan

$$$$
CHEMBL3675428
     RDKit          3D

  0  0  0  0  0  0  0  0  0  0999 V3000
M  V30 BEGIN CTAB
M  V30 COUNTS 74 78 0 0 0
M  V30 BEGIN ATOM
M  V30 1 C 2.186943 -1.034921 8.426038 0
M  V30 2 C 1.131484 -0.133819 7.764511 0
M  V30 3 C -0.218682 -0.726529 7.970251 0
M  V30 4 C -0.575246 -1.393552 6.675544 0
M  V30 5 C 0.415819 -0.959335 5.645860 0
M  V30 6 N 1.399608 -0.108983 6.333993 0
M  V30 7 C 2.419995 0.578168 5.636204 0
M  V30 8 C 2.515246 0.532269 4.271487 0
M  V30 9 C 3.519174 1.164966 3.511020 0
M  V30 10 C 3.449289 1.034647 2.033894 0
M  V30 11 O 4.469221 1.005605 1.340141 0
M  V30 12 N 2.166786 0.945126 1.445678 0
M  V30 13 C 1.857651 0.798700 0.062519 0
M  V30 14 C 2.775746 0.945082 -0.960842 0
M  V30 15 C 2.414803 0.759929 -2.270968 0
M  V30 16 C 1.156566 0.419393 -2.699255 0
M  V30 17 C 0.211993 0.266356 -1.661963 0
M  V30 18 C -1.159280 -0.148418 -1.998209 0
M  V30 19 C -2.145257 0.877967 -2.367805 0
M  V30 20 N -2.409055 1.909080 -1.382879 0
M  V30 21 C -3.730013 2.517904 -1.688756 0
M  V30 22 C -1.426429 2.977614 -1.616244 0
M  V30 23 N -1.109540 -1.221615 -3.007272 0
M  V30 24 C -2.108099 -2.030717 -3.616473 0
M  V30 25 N -3.400949 -1.855180 -3.205249 0
M  V30 26 C -4.338654 -2.651192 -3.776260 0
M  V30 27 N -4.075581 -3.581894 -4.704231 0
M  V30 28 C -2.786330 -3.731068 -5.091398 0
M  V30 29 C -2.521432 -4.676616 -6.056587 0
M  V30 30 C -3.640704 -5.459009 -6.554586 0
M  V30 31 N -3.361420 -6.348295 -7.614511 0
M  V30 32 O -4.793641 -5.364417 -6.089310 0
M  V30 33 C -1.224466 -4.840524 -6.482272 0
M  V30 34 C -0.189402 -4.091480 -5.974662 0
M  V30 35 C -0.491986 -3.170427 -5.023288 0
M  V30 36 C -1.767032 -2.973732 -4.571260 0
M  V30 37 C 0.595367 0.460046 -0.352454 0
M  V30 38 C 4.479174 1.887498 4.197975 0
M  V30 39 C 4.351710 1.916571 5.587758 0
M  V30 40 N 3.377104 1.295929 6.261645 0
M  V30 41 H 2.560937 -1.768288 7.664507 0
M  V30 42 H 3.013797 -0.415346 8.772075 0
M  V30 43 H 1.695570 -1.644415 9.194312 0
M  V30 44 H 1.129845 0.879906 8.224808 0
M  V30 45 H -1.028403 0.009743 8.197793 0
M  V30 46 H -0.201966 -1.504167 8.768407 0
M  V30 47 H -0.535164 -2.499669 6.775382 0
M  V30 48 H -1.646546 -1.204180 6.359015 0
M  V30 49 H -0.113342 -0.447712 4.835629 0
M  V30 50 H 0.992122 -1.838873 5.262769 0
M  V30 51 H 1.759349 -0.036224 3.737138 0
M  V30 52 H 1.343417 0.992403 2.080875 0
M  V30 53 H 3.800522 1.212410 -0.789802 0
M  V30 54 H 3.118338 0.883837 -3.105290 0
M  V30 55 H 0.904011 0.285243 -3.736476 0
M  V30 56 H -1.551220 -0.659637 -1.059392 0
M  V30 57 H -3.100741 0.389122 -2.635926 0
M  V30 58 H -1.821315 1.415840 -3.302453 0
M  V30 59 H -3.760646 3.513952 -1.214048 0
M  V30 60 H -3.930719 2.606679 -2.745707 0
M  V30 61 H -4.492806 1.888601 -1.139613 0
M  V30 62 H -0.525628 2.527128 -2.026126 0
M  V30 63 H -1.864257 3.575753 -2.458927 0
M  V30 64 H -1.216125 3.578915 -0.730548 0
M  V30 65 H -0.128356 -1.387559 -3.298709 0
M  V30 66 H -5.330958 -2.411058 -3.360639 0
M  V30 67 H -3.370473 -7.384162 -7.852251 0
M  V30 68 H -3.122444 -6.883384 -8.465679 0
M  V30 69 H -1.109056 -5.615087 -7.253859 0
M  V30 70 H 0.830296 -4.264539 -6.356469 0
M  V30 71 H 0.330848 -2.593153 -4.641717 0
M  V30 72 H -0.184658 0.328111 0.389512 0
M  V30 73 H 5.233463 2.360793 3.610163 0
M  V30 74 H 5.138037 2.502683 6.094925 0
M  V30 END ATOM
M  V30 BEGIN BOND
M  V30 1 1 1 2
M  V30 2 1 2 3
M  V30 3 1 3 4
M  V30 4 1 4 5
M  V30 5 1 5 6
M  V30 6 1 6 7
M  V30 7 2 7 8
M  V30 8 1 8 9
M  V30 9 1 9 10
M  V30 10 2 10 11
M  V30 11 1 10 12
M  V30 12 1 12 13
M  V30 13 2 13 14
M  V30 14 1 14 15
M  V30 15 2 15 16
M  V30 16 1 16 17
M  V30 17 1 17 18
M  V30 18 1 18 19
M  V30 19 1 19 20
M  V30 20 1 20 21
M  V30 21 1 20 22
M  V30 22 1 18 23
M  V30 23 1 23 24
M  V30 24 2 24 25
M  V30 25 1 25 26
M  V30 26 2 26 27
M  V30 27 1 27 28
M  V30 28 2 28 29
M  V30 29 1 29 30
M  V30 30 1 30 31
M  V30 31 2 30 32
M  V30 32 1 29 33
M  V30 33 2 33 34
M  V30 34 1 34 35
M  V30 35 2 35 36
M  V30 36 2 17 37
M  V30 37 2 9 38
M  V30 38 1 38 39
M  V30 39 2 39 40
M  V30 40 1 6 2
M  V30 41 1 40 7
M  V30 42 1 37 13
M  V30 43 1 36 24
M  V30 44 1 36 28
M  V30 45 1 1 41
M  V30 46 1 1 42
M  V30 47 1 1 43
M  V30 48 1 2 44
M  V30 49 1 3 45
M  V30 50 1 3 46
M  V30 51 1 4 47
M  V30 52 1 4 48
M  V30 53 1 5 49
M  V30 54 1 5 50
M  V30 55 1 8 51
M  V30 56 1 12 52
M  V30 57 1 14 53
M  V30 58 1 15 54
M  V30 59 1 16 55
M  V30 60 1 18 56
M  V30 61 1 19 57
M  V30 62 1 19 58
M  V30 63 1 21 59
M  V30 64 1 21 60
M  V30 65 1 21 61
M  V30 66 1 22 62
M  V30 67 1 22 63
M  V30 68 1 22 64
M  V30 69 1 23 65
M  V30 70 1 26 66
M  V30 71 1 31 67
M  V30 72 1 31 68
M  V30 73 1 33 69
M  V30 74 1 34 70
M  V30 75 1 35 71
M  V30 76 1 37 72
M  V30 77 1 38 73
M  V30 78 1 39 74
M  V30 END BOND
M  V30 END CTAB
M  END
>  <Dataset>  (934) 
ChEMBL_Kinases

>  <Ligand_Instance>  (934) 
nan

>  <PDB_ID>  (934) 
nan

>  <Standardized_SMILES>  (934) 
CC1CCCN1c1cc(C(=O)Nc2cccc(C(CN(C)C)Nc3ncnc4c(C(N)=O)cccc34)c2)ccn1

>  <Name>  (934) 
nan

>  <Pocket>  (934) 
nan

>  <ATP_Site>  (934) 
nan

>  <Peripheral>  (934) 
nan

>  <Num_H_Atoms_ProtBoundConf>  (934) 
nan

>  <Num_Resolved_Atoms>  (934) 
nan

>  <Num_Not_Resolved_Atoms>  (934) 
nan

$$$$
CHEMBL3675427
     RDKit          3D

  0  0  0  0  0  0  0  0  0  0999 V3000
M  V30 BEGIN CTAB
M  V30 COUNTS 61 64 0 0 0
M  V30 BEGIN ATOM
M  V30 1 C 2.487645 -2.607725 5.925659 0
M  V30 2 N 2.417210 -3.276174 4.653106 0
M  V30 3 C 1.081138 -3.289154 4.151825 0
M  V30 4 C 0.609690 -1.904629 3.774979 0
M  V30 5 N 1.479045 -1.374884 2.740653 0
M  V30 6 C 1.170665 -0.054949 2.285456 0
M  V30 7 N 0.144109 0.662650 2.773981 0
M  V30 8 C -0.168029 1.904996 2.363304 0
M  V30 9 N 0.543325 2.535079 1.409423 0
M  V30 10 C 1.586709 1.879846 0.872608 0
M  V30 11 C 2.321392 2.517866 -0.105781 0
M  V30 12 C 1.943311 3.875789 -0.523472 0
M  V30 13 N 0.829103 4.519675 0.079714 0
M  V30 14 O 2.611186 4.462941 -1.416573 0
M  V30 15 C 3.403953 1.901362 -0.697556 0
M  V30 16 C 3.700730 0.628857 -0.257315 0
M  V30 17 C 2.954456 0.007675 0.721894 0
M  V30 18 C 1.887479 0.606983 1.309673 0
M  V30 19 C -0.806285 -1.997390 3.272258 0
M  V30 20 C -1.940106 -1.618080 3.958563 0
M  V30 21 C -3.180388 -1.755455 3.375134 0
M  V30 22 C -3.322708 -2.269820 2.103386 0
M  V30 23 C -2.196892 -2.653285 1.405209 0
M  V30 24 N -2.238125 -3.199812 0.066944 0
M  V30 25 C -2.139286 -2.092605 -0.818350 0
M  V30 26 O -2.051044 -1.027010 -0.112808 0
M  V30 27 C -2.134772 -2.113966 -2.272691 0
M  V30 28 C -2.024997 -0.841896 -2.848999 0
M  V30 29 C -2.004232 -0.665447 -4.195586 0
M  V30 30 C -2.088539 -1.712284 -5.086802 0
M  V30 31 O -2.077025 -1.650115 -6.463222 0
M  V30 32 C -1.974438 -0.475854 -7.226304 0
M  V30 33 C -2.195693 -2.955295 -4.520608 0
M  V30 34 C -2.219450 -3.165850 -3.160060 0
M  V30 35 F -2.322928 -4.362365 -2.573623 0
M  V30 36 C -0.931399 -2.520712 1.982528 0
M  V30 37 H 1.649640 -2.959212 6.553136 0
M  V30 38 H 2.480785 -1.503065 5.784040 0
M  V30 39 H 3.419740 -2.829150 6.476047 0
M  V30 40 H 3.062108 -2.922844 3.943216 0
M  V30 41 H 0.359430 -3.778830 4.860582 0
M  V30 42 H 1.082332 -3.975476 3.267713 0
M  V30 43 H 0.590681 -1.259384 4.668597 0
M  V30 44 H 2.248249 -1.940738 2.385911 0
M  V30 45 H -1.031282 2.378292 2.844823 0
M  V30 46 H 0.814970 5.148906 0.889645 0
M  V30 47 H -0.174724 4.420523 -0.254033 0
M  V30 48 H 3.986014 2.378347 -1.457400 0
M  V30 49 H 4.556082 0.154161 -0.731729 0
M  V30 50 H 3.264815 -0.967843 0.987687 0
M  V30 51 H -1.771259 -1.218718 4.957413 0
M  V30 52 H -4.031936 -1.447995 3.945297 0
M  V30 53 H -4.273925 -2.388082 1.624201 0
M  V30 54 H -2.316817 -4.141105 -0.346164 0
M  V30 55 H -1.950567 0.076354 -2.248148 0
M  V30 56 H -1.918927 0.323994 -4.631470 0
M  V30 57 H -0.960518 -0.344768 -7.674474 0
M  V30 58 H -2.190499 0.444239 -6.646898 0
M  V30 59 H -2.747059 -0.528192 -8.022982 0
M  V30 60 H -2.269833 -3.869025 -5.098625 0
M  V30 61 H -0.060121 -2.829971 1.412493 0
M  V30 END ATOM
M  V30 BEGIN BOND
M  V30 1 1 1 2
M  V30 2 1 2 3
M  V30 3 1 3 4
M  V30 4 1 4 5
M  V30 5 1 5 6
M  V30 6 2 6 7
M  V30 7 1 7 8
M  V30 8 2 8 9
M  V30 9 1 9 10
M  V30 10 2 10 11
M  V30 11 1 11 12
M  V30 12 1 12 13
M  V30 13 2 12 14
M  V30 14 1 11 15
M  V30 15 2 15 16
M  V30 16 1 16 17
M  V30 17 2 17 18
M  V30 18 1 4 19
M  V30 19 2 19 20
M  V30 20 1 20 21
M  V30 21 2 21 22
M  V30 22 1 22 23
M  V30 23 1 23 24
M  V30 24 1 24 25
M  V30 25 2 25 26
M  V30 26 1 25 27
M  V30 27 2 27 28
M  V30 28 1 28 29
M  V30 29 2 29 30
M  V30 30 1 30 31
M  V30 31 1 31 32
M  V30 32 1 30 33
M  V30 33 2 33 34
M  V30 34 1 34 35
M  V30 35 2 23 36
M  V30 36 1 18 6
M  V30 37 1 36 19
M  V30 38 1 18 10
M  V30 39 1 34 27
M  V30 40 1 1 37
M  V30 41 1 1 38
M  V30 42 1 1 39
M  V30 43 1 2 40
M  V30 44 1 3 41
M  V30 45 1 3 42
M  V30 46 1 4 43
M  V30 47 1 5 44
M  V30 48 1 8 45
M  V30 49 1 13 46
M  V30 50 1 13 47
M  V30 51 1 15 48
M  V30 52 1 16 49
M  V30 53 1 17 50
M  V30 54 1 20 51
M  V30 55 1 21 52
M  V30 56 1 22 53
M  V30 57 1 24 54
M  V30 58 1 28 55
M  V30 59 1 29 56
M  V30 60 1 32 57
M  V30 61 1 32 58
M  V30 62 1 32 59
M  V30 63 1 33 60
M  V30 64 1 36 61
M  V30 END BOND
M  V30 END CTAB
M  END
>  <Dataset>  (935) 
ChEMBL_Kinases

>  <Ligand_Instance>  (935) 
nan

>  <PDB_ID>  (935) 
nan

>  <Standardized_SMILES>  (935) 
CNCC(Nc1ncnc2c(C(N)=O)cccc12)c1cccc(NC(=O)c2ccc(OC)cc2F)c1

>  <Name>  (935) 
nan

>  <Pocket>  (935) 
nan

>  <ATP_Site>  (935) 
nan

>  <Peripheral>  (935) 
nan

>  <Num_H_Atoms_ProtBoundConf>  (935) 
nan

>  <Num_Resolved_Atoms>  (935) 
nan

>  <Num_Not_Resolved_Atoms>  (935) 
nan

$$$$
CHEMBL3675426
     RDKit          3D

  0  0  0  0  0  0  0  0  0  0999 V3000
M  V30 BEGIN CTAB
M  V30 COUNTS 50 52 0 0 0
M  V30 BEGIN ATOM
M  V30 1 C 4.704785 -0.951833 3.481761 0
M  V30 2 O 3.776975 -0.713072 2.577600 0
M  V30 3 C 3.332592 -0.228766 1.453005 0
M  V30 4 C 4.321467 0.412457 0.702677 0
M  V30 5 C 4.016976 0.982467 -0.519277 0
M  V30 6 C 4.989103 1.691876 -1.340668 0
M  V30 7 N 6.264477 1.946335 -0.789396 0
M  V30 8 O 4.963598 2.160449 -2.482355 0
M  V30 9 C 2.713152 0.883757 -0.946575 0
M  V30 10 N 2.421021 1.433922 -2.121259 0
M  V30 11 C 1.240375 1.464903 -2.722550 0
M  V30 12 N 0.266125 0.866574 -2.037395 0
M  V30 13 C 0.447665 0.276659 -0.840593 0
M  V30 14 N -0.546398 -0.385312 -0.013110 0
M  V30 15 C -1.503808 -1.022330 0.782838 0
M  V30 16 C -2.518107 -0.012278 1.301497 0
M  V30 17 N -3.542772 -0.563625 2.121289 0
M  V30 18 C -3.080360 -1.048580 3.396163 0
M  V30 19 C -4.548583 0.462415 2.413993 0
M  V30 20 C -2.176864 -2.176023 0.116217 0
M  V30 21 C -2.196246 -3.459707 0.695438 0
M  V30 22 C -2.871456 -4.412178 -0.032924 0
M  V30 23 C -3.512882 -4.265385 -1.227817 0
M  V30 24 Cl -4.359658 -5.515843 -2.103538 0
M  V30 25 C -3.432021 -2.980078 -1.701166 0
M  V30 26 C -2.801293 -1.891539 -1.113919 0
M  V30 27 C 1.686371 0.253939 -0.230862 0
M  V30 28 C 2.052057 -0.285242 0.962095 0
M  V30 29 H 5.251915 -0.053808 3.894237 0
M  V30 30 H 5.557279 -1.569522 3.045191 0
M  V30 31 H 4.387828 -1.596056 4.370774 0
M  V30 32 H 5.380445 0.520109 0.998970 0
M  V30 33 H 7.248067 1.706859 -0.533191 0
M  V30 34 H 6.733692 2.747119 -0.307900 0
M  V30 35 H 0.889385 1.867668 -3.656008 0
M  V30 36 H -1.361818 -0.207464 -0.670744 0
M  V30 37 H -1.000903 -1.401519 1.723246 0
M  V30 38 H -2.862730 0.655262 0.498421 0
M  V30 39 H -1.928800 0.660770 1.992995 0
M  V30 40 H -2.210467 -1.716253 3.347917 0
M  V30 41 H -3.949677 -1.559939 3.866827 0
M  V30 42 H -2.817518 -0.192583 4.083879 0
M  V30 43 H -5.453490 -0.011466 2.799246 0
M  V30 44 H -4.795397 1.009166 1.461361 0
M  V30 45 H -4.163880 1.172039 3.189857 0
M  V30 46 H -1.715487 -3.625911 1.625584 0
M  V30 47 H -2.870333 -5.397066 0.437345 0
M  V30 48 H -3.935502 -2.821040 -2.667324 0
M  V30 49 H -2.863003 -0.976916 -1.642140 0
M  V30 50 H 1.275624 -0.774849 1.529551 0
M  V30 END ATOM
M  V30 BEGIN BOND
M  V30 1 1 1 2
M  V30 2 1 2 3
M  V30 3 2 3 4
M  V30 4 1 4 5
M  V30 5 1 5 6
M  V30 6 1 6 7
M  V30 7 2 6 8
M  V30 8 2 5 9
M  V30 9 1 9 10
M  V30 10 2 10 11
M  V30 11 1 11 12
M  V30 12 2 12 13
M  V30 13 1 13 14
M  V30 14 1 14 15
M  V30 15 1 15 16
M  V30 16 1 16 17
M  V30 17 1 17 18
M  V30 18 1 17 19
M  V30 19 1 15 20
M  V30 20 2 20 21
M  V30 21 1 21 22
M  V30 22 2 22 23
M  V30 23 1 23 24
M  V30 24 1 23 25
M  V30 25 2 25 26
M  V30 26 1 13 27
M  V30 27 2 27 28
M  V30 28 1 28 3
M  V30 29 1 27 9
M  V30 30 1 26 20
M  V30 31 1 1 29
M  V30 32 1 1 30
M  V30 33 1 1 31
M  V30 34 1 4 32
M  V30 35 1 7 33
M  V30 36 1 7 34
M  V30 37 1 11 35
M  V30 38 1 14 36
M  V30 39 1 15 37
M  V30 40 1 16 38
M  V30 41 1 16 39
M  V30 42 1 18 40
M  V30 43 1 18 41
M  V30 44 1 18 42
M  V30 45 1 19 43
M  V30 46 1 19 44
M  V30 47 1 19 45
M  V30 48 1 21 46
M  V30 49 1 22 47
M  V30 50 1 25 48
M  V30 51 1 26 49
M  V30 52 1 28 50
M  V30 END BOND
M  V30 END CTAB
M  END
>  <Dataset>  (936) 
ChEMBL_Kinases

>  <Ligand_Instance>  (936) 
nan

>  <PDB_ID>  (936) 
nan

>  <Standardized_SMILES>  (936) 
COc1cc(C(N)=O)c2ncnc(NC(CN(C)C)c3ccc(Cl)cc3)c2c1

>  <Name>  (936) 
nan

>  <Pocket>  (936) 
nan

>  <ATP_Site>  (936) 
nan

>  <Peripheral>  (936) 
nan

>  <Num_H_Atoms_ProtBoundConf>  (936) 
nan

>  <Num_Resolved_Atoms>  (936) 
nan

>  <Num_Not_Resolved_Atoms>  (936) 
nan

$$$$
CHEMBL3675425
     RDKit          3D

  0  0  0  0  0  0  0  0  0  0999 V3000
M  V30 BEGIN CTAB
M  V30 COUNTS 63 65 0 0 0
M  V30 BEGIN ATOM
M  V30 1 C 0.105305 2.067913 5.653797 0
M  V30 2 N 0.164198 0.865472 4.846506 0
M  V30 3 C 0.528650 1.158247 3.473862 0
M  V30 4 C 0.573225 -0.103910 2.694939 0
M  V30 5 N 0.950590 0.057051 1.297096 0
M  V30 6 C 2.206764 0.614053 0.916707 0
M  V30 7 C 2.620568 0.792272 -0.389504 0
M  V30 8 C 2.784655 1.780924 -1.302840 0
M  V30 9 C 2.156939 2.721391 -2.060493 0
M  V30 10 C 1.738568 3.915805 -1.540222 0
M  V30 11 C 1.965805 4.228183 -0.218380 0
M  V30 12 C 0.831331 4.738179 0.541140 0
M  V30 13 N -0.460862 4.919770 -0.014370 0
M  V30 14 O 0.880737 5.063862 1.745825 0
M  V30 15 C 3.167222 4.097042 0.431456 0
M  V30 16 N 4.055609 3.388330 1.169688 0
M  V30 17 C 3.791836 2.199429 1.703325 0
M  V30 18 N 3.134794 1.030664 1.798224 0
M  V30 19 C -0.757855 -0.759609 2.733032 0
M  V30 20 C -1.955876 -0.504275 3.360991 0
M  V30 21 C -3.035607 -1.341065 3.196897 0
M  V30 22 C -3.002497 -2.466084 2.414132 0
M  V30 23 C -1.808869 -2.746513 1.770179 0
M  V30 24 N -1.829791 -3.923866 0.971668 0
M  V30 25 C -2.236521 -3.600082 -0.351784 0
M  V30 26 O -2.487326 -2.382625 -0.545404 0
M  V30 27 C -2.377841 -4.541810 -1.456357 0
M  V30 28 C -2.787562 -3.996982 -2.656615 0
M  V30 29 C -2.944226 -4.844413 -3.760466 0
M  V30 30 C -2.673534 -6.187585 -3.568065 0
M  V30 31 O -2.844600 -6.997106 -4.702587 0
M  V30 32 C -1.668957 -7.135113 -5.514979 0
M  V30 33 F -1.872943 -7.927857 -6.607423 0
M  V30 34 F -0.718191 -7.754958 -4.720528 0
M  V30 35 F -1.169275 -5.881793 -5.828603 0
M  V30 36 C -2.263176 -6.748302 -2.375140 0
M  V30 37 C -2.112621 -5.885147 -1.284552 0
M  V30 38 C -0.716941 -1.902378 1.934905 0
M  V30 39 H -0.572389 1.967568 6.503926 0
M  V30 40 H -0.210182 2.903328 4.980323 0
M  V30 41 H 1.122811 2.264669 6.028865 0
M  V30 42 H 0.748951 0.137692 5.292356 0
M  V30 43 H 1.458025 1.760782 3.411150 0
M  V30 44 H -0.273020 1.854024 3.113855 0
M  V30 45 H 1.284093 -0.840421 3.157149 0
M  V30 46 H 0.335868 -0.220441 0.494328 0
M  V30 47 H 2.845986 -0.241495 -0.614103 0
M  V30 48 H 3.853310 1.865646 -1.530649 0
M  V30 49 H 1.992034 2.498702 -3.107937 0
M  V30 50 H 1.220821 4.638304 -2.157697 0
M  V30 51 H -1.051569 5.711969 -0.373422 0
M  V30 52 H -0.955232 3.989994 -0.078799 0
M  V30 53 H 3.491028 5.098763 0.169649 0
M  V30 54 H 4.473697 2.041740 2.548639 0
M  V30 55 H -1.905050 0.397573 3.950183 0
M  V30 56 H -3.903716 -0.994716 3.762679 0
M  V30 57 H -3.925285 -3.028384 2.378531 0
M  V30 58 H -1.612831 -4.932061 1.166505 0
M  V30 59 H -2.998349 -2.950692 -2.806180 0
M  V30 60 H -3.263126 -4.453523 -4.715050 0
M  V30 61 H -2.073886 -7.820810 -2.322096 0
M  V30 62 H -1.792541 -6.295036 -0.337279 0
M  V30 63 H 0.123363 -2.292858 1.349310 0
M  V30 END ATOM
M  V30 BEGIN BOND
M  V30 1 1 1 2
M  V30 2 1 2 3
M  V30 3 1 3 4
M  V30 4 1 4 5
M  V30 5 1 5 6
M  V30 6 2 6 7
M  V30 7 1 7 8
M  V30 8 2 8 9
M  V30 9 1 9 10
M  V30 10 2 10 11
M  V30 11 1 11 12
M  V30 12 1 12 13
M  V30 13 2 12 14
M  V30 14 1 11 15
M  V30 15 2 15 16
M  V30 16 1 16 17
M  V30 17 2 17 18
M  V30 18 1 4 19
M  V30 19 2 19 20
M  V30 20 1 20 21
M  V30 21 2 21 22
M  V30 22 1 22 23
M  V30 23 1 23 24
M  V30 24 1 24 25
M  V30 25 2 25 26
M  V30 26 1 25 27
M  V30 27 2 27 28
M  V30 28 1 28 29
M  V30 29 2 29 30
M  V30 30 1 30 31
M  V30 31 1 31 32
M  V30 32 1 32 33
M  V30 33 1 32 34
M  V30 34 1 32 35
M  V30 35 1 30 36
M  V30 36 2 36 37
M  V30 37 2 23 38
M  V30 38 1 18 6
M  V30 39 1 38 19
M  V30 40 1 37 27
M  V30 41 1 1 39
M  V30 42 1 1 40
M  V30 43 1 1 41
M  V30 44 1 2 42
M  V30 45 1 3 43
M  V30 46 1 3 44
M  V30 47 1 4 45
M  V30 48 1 5 46
M  V30 49 1 7 47
M  V30 50 1 8 48
M  V30 51 1 9 49
M  V30 52 1 10 50
M  V30 53 1 13 51
M  V30 54 1 13 52
M  V30 55 1 15 53
M  V30 56 1 17 54
M  V30 57 1 20 55
M  V30 58 1 21 56
M  V30 59 1 22 57
M  V30 60 1 24 58
M  V30 61 1 28 59
M  V30 62 1 29 60
M  V30 63 1 36 61
M  V30 64 1 37 62
M  V30 65 1 38 63
M  V30 END BOND
M  V30 END CTAB
M  END
>  <Dataset>  (937) 
ChEMBL_Kinases

>  <Ligand_Instance>  (937) 
nan

>  <PDB_ID>  (937) 
nan

>  <Standardized_SMILES>  (937) 
CNCC(Nc1ccccc(C(N)=O)cncn1)c1cccc(NC(=O)c2ccc(OC(F)(F)F)cc2)c1

>  <Name>  (937) 
nan

>  <Pocket>  (937) 
nan

>  <ATP_Site>  (937) 
nan

>  <Peripheral>  (937) 
nan

>  <Num_H_Atoms_ProtBoundConf>  (937) 
nan

>  <Num_Resolved_Atoms>  (937) 
nan

>  <Num_Not_Resolved_Atoms>  (937) 
nan

$$$$
CHEMBL4206835
     RDKit          3D

  0  0  0  0  0  0  0  0  0  0999 V3000
M  V30 BEGIN CTAB
M  V30 COUNTS 53 58 0 0 0
M  V30 BEGIN ATOM
M  V30 1 F 2.373088 0.073812 6.894329 0
M  V30 2 C 2.914782 0.026439 5.644210 0
M  V30 3 C 4.129397 -0.594213 5.411837 0
M  V30 4 C 4.677557 -0.638860 4.129426 0
M  V30 5 C 3.971292 -0.043485 3.093165 0
M  V30 6 N 4.172497 0.109434 1.777302 0
M  V30 7 C 3.139945 0.790672 1.207159 0
M  V30 8 C 3.177917 1.063754 -0.251030 0
M  V30 9 N 2.565287 0.008624 -1.036207 0
M  V30 10 C 1.204454 -0.387796 -0.923524 0
M  V30 11 N 0.361591 0.200819 -0.063304 0
M  V30 12 C -0.944886 -0.142347 0.076835 0
M  V30 13 N -1.784196 0.547082 1.032208 0
M  V30 14 C -1.080584 1.587205 1.797782 0
M  V30 15 C -2.126744 2.459786 2.456457 0
M  V30 16 O -3.102933 1.601062 2.985105 0
M  V30 17 C -3.904238 1.066720 1.995740 0
M  V30 18 C -3.177864 0.105349 1.083051 0
M  V30 19 N -1.419259 -1.135379 -0.697388 0
M  V30 20 C -0.636911 -1.766333 -1.576152 0
M  V30 21 C 0.687102 -1.415757 -1.715639 0
M  V30 22 N 1.244202 -2.205631 -2.664235 0
M  V30 23 C 0.273862 -3.050575 -3.120470 0
M  V30 24 N -0.860758 -2.765673 -2.445132 0
M  V30 25 C -2.085017 -3.456001 -2.664410 0
M  V30 26 C -2.291186 -4.218286 -3.798041 0
M  V30 27 C -3.478241 -4.899692 -4.031598 0
M  V30 28 N -4.493007 -4.833058 -3.129051 0
M  V30 29 C -4.335261 -4.103332 -2.012943 0
M  V30 30 C -3.152805 -3.430856 -1.790875 0
M  V30 31 N 2.284487 1.060717 2.205446 0
M  V30 32 C 2.764609 0.565545 3.362026 0
M  V30 33 C 2.200847 0.622204 4.626961 0
M  V30 34 F 1.014409 1.220645 4.893235 0
M  V30 35 H 4.663379 -1.051781 6.233512 0
M  V30 36 H 5.628854 -1.117502 3.910874 0
M  V30 37 H 5.042992 -0.280185 1.334728 0
M  V30 38 H 4.202086 1.250200 -0.613596 0
M  V30 39 H 2.605132 2.015791 -0.458458 0
M  V30 40 H 3.162890 -0.509262 -1.745277 0
M  V30 41 H -0.478985 1.094502 2.609766 0
M  V30 42 H -0.487331 2.243204 1.147156 0
M  V30 43 H -1.717220 3.007438 3.352521 0
M  V30 44 H -2.540779 3.228290 1.791470 0
M  V30 45 H -4.381185 1.854858 1.364747 0
M  V30 46 H -4.691149 0.462763 2.516074 0
M  V30 47 H -3.256250 -0.955588 1.404356 0
M  V30 48 H -3.567883 0.227964 0.030413 0
M  V30 49 H 0.448944 -3.802199 -3.896861 0
M  V30 50 H -1.499251 -4.295100 -4.544183 0
M  V30 51 H -3.607834 -5.488821 -4.930319 0
M  V30 52 H -5.156525 -4.064443 -1.308775 0
M  V30 53 H -3.067254 -2.856704 -0.882821 0
M  V30 END ATOM
M  V30 BEGIN BOND
M  V30 1 1 1 2
M  V30 2 2 2 3
M  V30 3 1 3 4
M  V30 4 2 4 5
M  V30 5 1 5 6
M  V30 6 1 6 7
M  V30 7 1 7 8
M  V30 8 1 8 9
M  V30 9 1 9 10
M  V30 10 2 10 11
M  V30 11 1 11 12
M  V30 12 1 12 13
M  V30 13 1 13 14
M  V30 14 1 14 15
M  V30 15 1 15 16
M  V30 16 1 16 17
M  V30 17 1 17 18
M  V30 18 2 12 19
M  V30 19 1 19 20
M  V30 20 2 20 21
M  V30 21 1 21 22
M  V30 22 2 22 23
M  V30 23 1 23 24
M  V30 24 1 24 25
M  V30 25 2 25 26
M  V30 26 1 26 27
M  V30 27 2 27 28
M  V30 28 1 28 29
M  V30 29 2 29 30
M  V30 30 2 7 31
M  V30 31 1 31 32
M  V30 32 2 32 33
M  V30 33 1 33 34
M  V30 34 1 33 2
M  V30 35 1 32 5
M  V30 36 1 21 10
M  V30 37 1 30 25
M  V30 38 1 18 13
M  V30 39 1 24 20
M  V30 40 1 3 35
M  V30 41 1 4 36
M  V30 42 1 6 37
M  V30 43 1 8 38
M  V30 44 1 8 39
M  V30 45 1 9 40
M  V30 46 1 14 41
M  V30 47 1 14 42
M  V30 48 1 15 43
M  V30 49 1 15 44
M  V30 50 1 17 45
M  V30 51 1 17 46
M  V30 52 1 18 47
M  V30 53 1 18 48
M  V30 54 1 23 49
M  V30 55 1 26 50
M  V30 56 1 27 51
M  V30 57 1 29 52
M  V30 58 1 30 53
M  V30 END BOND
M  V30 END CTAB
M  END
>  <Dataset>  (938) 
ChEMBL_Kinases

>  <Ligand_Instance>  (938) 
nan

>  <PDB_ID>  (938) 
nan

>  <Standardized_SMILES>  (938) 
Fc1ccc2[nH]c(CNc3nc(N4CCOCC4)nc4c3ncn4-c3ccncc3)nc2c1F

>  <Name>  (938) 
nan

>  <Pocket>  (938) 
nan

>  <ATP_Site>  (938) 
nan

>  <Peripheral>  (938) 
nan

>  <Num_H_Atoms_ProtBoundConf>  (938) 
nan

>  <Num_Resolved_Atoms>  (938) 
nan

>  <Num_Not_Resolved_Atoms>  (938) 
nan

$$$$
CHEMBL3675424
     RDKit          3D

  0  0  0  0  0  0  0  0  0  0999 V3000
M  V30 BEGIN CTAB
M  V30 COUNTS 47 49 0 0 0
M  V30 BEGIN ATOM
M  V30 1 C 4.210476 -1.683779 -0.357060 0
M  V30 2 N 3.782911 -0.457937 -0.917522 0
M  V30 3 C 2.841411 -0.518725 -1.973005 0
M  V30 4 C 1.484600 -0.994998 -1.582995 0
M  V30 5 N 0.891364 -0.112473 -0.567384 0
M  V30 6 C -0.401186 -0.452488 -0.058336 0
M  V30 7 N -1.019120 -1.558017 -0.505733 0
M  V30 8 C -2.228389 -1.956505 -0.076976 0
M  V30 9 N -2.921547 -1.257093 0.854654 0
M  V30 10 C -2.345044 -0.143537 1.332547 0
M  V30 11 C -3.004474 0.609031 2.275756 0
M  V30 12 C -4.326669 0.248200 2.816223 0
M  V30 13 N -4.999400 -0.939038 2.433820 0
M  V30 14 O -4.910583 0.989184 3.644514 0
M  V30 15 C -2.398198 1.752128 2.749887 0
M  V30 16 C -1.156595 2.188200 2.329032 0
M  V30 17 C -0.521410 1.406621 1.379243 0
M  V30 18 C -1.105448 0.259164 0.888344 0
M  V30 19 C 0.603608 -0.882361 -2.804332 0
M  V30 20 C 0.156686 -1.919796 -3.589661 0
M  V30 21 C -0.647430 -1.652355 -4.676702 0
M  V30 22 C -1.014977 -0.363031 -4.995412 0
M  V30 23 O -1.817641 -0.009296 -6.067373 0
M  V30 24 C -2.365706 -0.938388 -6.978454 0
M  V30 25 C -0.547833 0.648800 -4.185729 0
M  V30 26 C 0.257297 0.437846 -3.088572 0
M  V30 27 H 5.150759 -1.498687 0.222002 0
M  V30 28 H 3.489230 -2.115751 0.376263 0
M  V30 29 H 4.453775 -2.487938 -1.076252 0
M  V30 30 H 4.467981 0.305519 -0.951773 0
M  V30 31 H 2.744324 0.499312 -2.404001 0
M  V30 32 H 3.170117 -1.176740 -2.829054 0
M  V30 33 H 1.404884 -2.036837 -1.270738 0
M  V30 34 H 1.462731 0.707618 -0.287044 0
M  V30 35 H -2.561337 -2.873834 -0.556269 0
M  V30 36 H -6.046840 -0.960881 2.397239 0
M  V30 37 H -4.808989 -1.917457 2.140281 0
M  V30 38 H -2.919068 2.338351 3.489772 0
M  V30 39 H -0.687848 3.098281 2.715610 0
M  V30 40 H 0.444345 1.763272 1.063899 0
M  V30 41 H 0.475654 -2.908128 -3.292817 0
M  V30 42 H -0.997492 -2.450927 -5.290225 0
M  V30 43 H -2.635798 -0.379327 -7.918265 0
M  V30 44 H -1.637741 -1.729354 -7.258242 0
M  V30 45 H -3.288409 -1.416537 -6.584446 0
M  V30 46 H -0.826029 1.687422 -4.416425 0
M  V30 47 H 0.577212 1.288601 -2.508877 0
M  V30 END ATOM
M  V30 BEGIN BOND
M  V30 1 1 1 2
M  V30 2 1 2 3
M  V30 3 1 3 4
M  V30 4 1 4 5
M  V30 5 1 5 6
M  V30 6 2 6 7
M  V30 7 1 7 8
M  V30 8 2 8 9
M  V30 9 1 9 10
M  V30 10 2 10 11
M  V30 11 1 11 12
M  V30 12 1 12 13
M  V30 13 2 12 14
M  V30 14 1 11 15
M  V30 15 2 15 16
M  V30 16 1 16 17
M  V30 17 2 17 18
M  V30 18 1 4 19
M  V30 19 2 19 20
M  V30 20 1 20 21
M  V30 21 2 21 22
M  V30 22 1 22 23
M  V30 23 1 23 24
M  V30 24 1 22 25
M  V30 25 2 25 26
M  V30 26 1 18 6
M  V30 27 1 26 19
M  V30 28 1 18 10
M  V30 29 1 1 27
M  V30 30 1 1 28
M  V30 31 1 1 29
M  V30 32 1 2 30
M  V30 33 1 3 31
M  V30 34 1 3 32
M  V30 35 1 4 33
M  V30 36 1 5 34
M  V30 37 1 8 35
M  V30 38 1 13 36
M  V30 39 1 13 37
M  V30 40 1 15 38
M  V30 41 1 16 39
M  V30 42 1 17 40
M  V30 43 1 20 41
M  V30 44 1 21 42
M  V30 45 1 24 43
M  V30 46 1 24 44
M  V30 47 1 24 45
M  V30 48 1 25 46
M  V30 49 1 26 47
M  V30 END BOND
M  V30 END CTAB
M  END
>  <Dataset>  (939) 
ChEMBL_Kinases

>  <Ligand_Instance>  (939) 
nan

>  <PDB_ID>  (939) 
nan

>  <Standardized_SMILES>  (939) 
CNCC(Nc1ncnc2c(C(N)=O)cccc12)c1ccc(OC)cc1

>  <Name>  (939) 
nan

>  <Pocket>  (939) 
nan

>  <ATP_Site>  (939) 
nan

>  <Peripheral>  (939) 
nan

>  <Num_H_Atoms_ProtBoundConf>  (939) 
nan

>  <Num_Resolved_Atoms>  (939) 
nan

>  <Num_Not_Resolved_Atoms>  (939) 
nan

$$$$
CHEMBL3309549
     RDKit          3D

  0  0  0  0  0  0  0  0  0  0999 V3000
M  V30 BEGIN CTAB
M  V30 COUNTS 61 64 0 0 0
M  V30 BEGIN ATOM
M  V30 1 C -3.767433 -1.533403 3.369515 0
M  V30 2 C -2.654147 -0.701827 2.818690 0 CFG=2
M  V30 3 O -3.050822 0.344504 2.018058 0
M  V30 4 C -1.623733 -1.603209 2.137008 0
M  V30 5 N -0.458573 -0.792899 1.814244 0
M  V30 6 C 0.681833 -1.375132 1.170935 0
M  V30 7 N 0.662332 -2.681677 0.852468 0
M  V30 8 C 1.719791 -3.283350 0.248242 0
M  V30 9 C 2.841330 -2.510177 -0.039962 0
M  V30 10 C 2.830851 -1.163533 0.300812 0
M  V30 11 N 3.869247 -0.211979 0.096719 0
M  V30 12 C 4.441505 0.519653 1.073196 0
M  V30 13 C 5.419317 1.359047 0.560546 0
M  V30 14 N 5.392864 1.082963 -0.769917 0
M  V30 15 C 4.470834 0.147747 -1.048710 0
M  V30 16 C 4.219926 -0.357762 -2.412372 0
M  V30 17 C 3.164001 0.384108 -3.149573 0
M  V30 18 C 3.550426 1.524971 -3.858541 0
M  V30 19 C 2.693571 2.321406 -4.606018 0
M  V30 20 C 1.363301 1.937190 -4.636707 0
M  V30 21 C 0.931033 0.812311 -3.950040 0
M  V30 22 N -0.421426 0.385924 -3.974010 0
M  V30 23 C -1.497336 0.750050 -3.122338 0
M  V30 24 O -1.226003 1.553001 -2.236519 0
M  V30 25 N -2.787240 0.206912 -3.304956 0
M  V30 26 C -3.933428 0.492309 -2.533472 0
M  V30 27 C -5.100286 -0.170548 -2.852971 0
M  V30 28 C -6.265978 0.031878 -2.176414 0
M  V30 29 C -6.362640 0.909409 -1.128451 0
M  V30 30 Cl -7.898607 1.108250 -0.317172 0
M  V30 31 C -5.217107 1.582763 -0.789654 0
M  V30 32 C -5.269415 2.551238 0.333035 0
M  V30 33 F -6.212671 3.513452 -0.027744 0
M  V30 34 F -5.598538 1.941747 1.510210 0
M  V30 35 F -4.040698 3.171490 0.505028 0
M  V30 36 C -4.054689 1.366000 -1.481302 0
M  V30 37 C 1.816030 0.057763 -3.224827 0
M  V30 38 N 1.753683 -0.623165 0.898377 0
M  V30 39 H -3.555968 -1.767575 4.445675 0
M  V30 40 H -3.873387 -2.522194 2.882093 0
M  V30 41 H -4.753310 -1.003023 3.366059 0
M  V30 42 H -2.091034 -0.246245 3.685015 0
M  V30 43 H -2.475519 0.438606 1.230427 0
M  V30 44 H -2.030586 -2.083573 1.237503 0
M  V30 45 H -1.322282 -2.345366 2.917490 0
M  V30 46 H -0.438902 0.237012 2.050700 0
M  V30 47 H 1.753578 -4.336939 -0.031259 0
M  V30 48 H 3.742935 -2.861341 -0.513593 0
M  V30 49 H 4.214429 0.502563 2.138544 0
M  V30 50 H 6.080829 2.080710 1.029665 0
M  V30 51 H 4.001882 -1.465339 -2.437377 0
M  V30 52 H 5.160288 -0.288568 -3.040849 0
M  V30 53 H 4.597386 1.833945 -3.841872 0
M  V30 54 H 3.087563 3.189963 -5.123181 0
M  V30 55 H 0.651365 2.532748 -5.208285 0
M  V30 56 H -0.550363 -0.301163 -4.775569 0
M  V30 57 H -2.854701 -0.464240 -4.097607 0
M  V30 58 H -5.115572 -0.894561 -3.680960 0
M  V30 59 H -7.143564 -0.511848 -2.469453 0
M  V30 60 H -3.191418 1.916047 -1.176321 0
M  V30 61 H 1.541779 -0.836825 -2.663132 0
M  V30 END ATOM
M  V30 BEGIN BOND
M  V30 1 1 1 2
M  V30 2 1 2 3
M  V30 3 1 2 4
M  V30 4 1 4 5
M  V30 5 1 5 6
M  V30 6 2 6 7
M  V30 7 1 7 8
M  V30 8 2 8 9
M  V30 9 1 9 10
M  V30 10 1 10 11
M  V30 11 1 11 12
M  V30 12 2 12 13
M  V30 13 1 13 14
M  V30 14 2 14 15
M  V30 15 1 15 16
M  V30 16 1 16 17
M  V30 17 2 17 18
M  V30 18 1 18 19
M  V30 19 2 19 20
M  V30 20 1 20 21
M  V30 21 1 21 22
M  V30 22 1 22 23
M  V30 23 2 23 24
M  V30 24 1 23 25
M  V30 25 1 25 26
M  V30 26 2 26 27
M  V30 27 1 27 28
M  V30 28 2 28 29
M  V30 29 1 29 30
M  V30 30 1 29 31
M  V30 31 1 31 32
M  V30 32 1 32 33
M  V30 33 1 32 34
M  V30 34 1 32 35
M  V30 35 2 31 36
M  V30 36 2 21 37
M  V30 37 2 10 38
M  V30 38 1 38 6
M  V30 39 1 15 11
M  V30 40 1 37 17
M  V30 41 1 36 26
M  V30 42 1 1 39
M  V30 43 1 1 40
M  V30 44 1 1 41
M  V30 45 1 2 42 CFG=1
M  V30 46 1 3 43
M  V30 47 1 4 44
M  V30 48 1 4 45
M  V30 49 1 5 46
M  V30 50 1 8 47
M  V30 51 1 9 48
M  V30 52 1 12 49
M  V30 53 1 13 50
M  V30 54 1 16 51
M  V30 55 1 16 52
M  V30 56 1 18 53
M  V30 57 1 19 54
M  V30 58 1 20 55
M  V30 59 1 22 56
M  V30 60 1 25 57
M  V30 61 1 27 58
M  V30 62 1 28 59
M  V30 63 1 36 60
M  V30 64 1 37 61
M  V30 END BOND
M  V30 END CTAB
M  END
>  <Dataset>  (940) 
ChEMBL_Kinases

>  <Ligand_Instance>  (940) 
nan

>  <PDB_ID>  (940) 
nan

>  <Standardized_SMILES>  (940) 
C[C@H](O)CNc1nccc(-n2ccnc2Cc2cccc(NC(=O)Nc3ccc(Cl)c(C(F)(F)F)c3)c2)n1

>  <Name>  (940) 
nan

>  <Pocket>  (940) 
nan

>  <ATP_Site>  (940) 
nan

>  <Peripheral>  (940) 
nan

>  <Num_H_Atoms_ProtBoundConf>  (940) 
nan

>  <Num_Resolved_Atoms>  (940) 
nan

>  <Num_Not_Resolved_Atoms>  (940) 
nan

$$$$
CHEMBL4209644
     RDKit          3D

  0  0  0  0  0  0  0  0  0  0999 V3000
M  V30 BEGIN CTAB
M  V30 COUNTS 53 58 0 0 0
M  V30 BEGIN ATOM
M  V30 1 F 6.126434 0.331800 2.962037 0
M  V30 2 C 5.540315 0.380993 1.735110 0
M  V30 3 C 6.230769 -0.077859 0.628984 0
M  V30 4 C 5.606658 -0.012207 -0.603544 0
M  V30 5 C 4.326350 0.494329 -0.758483 0
M  V30 6 N 3.474957 0.689540 -1.769457 0
M  V30 7 C 2.309083 1.238270 -1.352985 0
M  V30 8 C 1.236120 1.533893 -2.333602 0
M  V30 9 N 0.344247 0.411656 -2.531683 0
M  V30 10 C -0.391184 -0.098788 -1.434716 0
M  V30 11 N -0.345309 0.363642 -0.151523 0
M  V30 12 C -1.083420 -0.205090 0.817565 0
M  V30 13 N -0.967514 0.340248 2.148580 0
M  V30 14 C -0.072004 1.448053 2.414718 0
M  V30 15 C -0.417103 1.964634 3.795300 0
M  V30 16 O -0.309819 1.003427 4.770786 0
M  V30 17 C -0.768813 -0.245714 4.425629 0
M  V30 18 C -1.737586 -0.204565 3.245454 0
M  V30 19 N -1.916019 -1.257133 0.619633 0
M  V30 20 C -2.032313 -1.795516 -0.632500 0
M  V30 21 C -1.252438 -1.164139 -1.562973 0
M  V30 22 N -1.518729 -1.850698 -2.716069 0
M  V30 23 C -2.407586 -2.824107 -2.449914 0
M  V30 24 N -2.741836 -2.802972 -1.140014 0
M  V30 25 C -3.615061 -3.587820 -0.351543 0
M  V30 26 C -4.994423 -3.386296 -0.318171 0
M  V30 27 C -5.743268 -4.227183 0.497834 0
M  V30 28 C -5.173117 -5.246696 1.268966 0
M  V30 29 N -3.831864 -5.400100 1.200511 0
M  V30 30 C -3.069531 -4.603562 0.420655 0
M  V30 31 N 2.417852 1.402454 -0.014981 0
M  V30 32 C 3.649485 0.949635 0.356105 0
M  V30 33 C 4.267557 0.884339 1.580196 0
M  V30 34 F 3.657216 1.313400 2.703976 0
M  V30 35 H 7.231233 -0.473648 0.774157 0
M  V30 36 H 6.108877 -0.359746 -1.481441 0
M  V30 37 H 3.742425 0.422704 -2.760675 0
M  V30 38 H 1.653560 1.863531 -3.307543 0
M  V30 39 H 0.659663 2.409749 -1.913428 0
M  V30 40 H 0.225010 -0.029432 -3.449676 0
M  V30 41 H 0.980303 1.051530 2.503568 0
M  V30 42 H -0.155001 2.283288 1.712374 0
M  V30 43 H 0.356094 2.733000 4.018845 0
M  V30 44 H -1.377685 2.495937 3.764794 0
M  V30 45 H -1.225032 -0.740124 5.300859 0
M  V30 46 H 0.125767 -0.825441 4.051294 0
M  V30 47 H -2.089994 -1.226567 3.079889 0
M  V30 48 H -2.546935 0.521768 3.502621 0
M  V30 49 H -2.847269 -3.559929 -3.115654 0
M  V30 50 H -5.434553 -2.600942 -0.914377 0
M  V30 51 H -6.824242 -4.108621 0.556377 0
M  V30 52 H -5.806105 -5.879032 1.891299 0
M  V30 53 H -1.988159 -4.751872 0.384440 0
M  V30 END ATOM
M  V30 BEGIN BOND
M  V30 1 1 1 2
M  V30 2 2 2 3
M  V30 3 1 3 4
M  V30 4 2 4 5
M  V30 5 1 5 6
M  V30 6 1 6 7
M  V30 7 1 7 8
M  V30 8 1 8 9
M  V30 9 1 9 10
M  V30 10 2 10 11
M  V30 11 1 11 12
M  V30 12 1 12 13
M  V30 13 1 13 14
M  V30 14 1 14 15
M  V30 15 1 15 16
M  V30 16 1 16 17
M  V30 17 1 17 18
M  V30 18 2 12 19
M  V30 19 1 19 20
M  V30 20 2 20 21
M  V30 21 1 21 22
M  V30 22 2 22 23
M  V30 23 1 23 24
M  V30 24 1 24 25
M  V30 25 2 25 26
M  V30 26 1 26 27
M  V30 27 2 27 28
M  V30 28 1 28 29
M  V30 29 2 29 30
M  V30 30 2 7 31
M  V30 31 1 31 32
M  V30 32 2 32 33
M  V30 33 1 33 34
M  V30 34 1 33 2
M  V30 35 1 32 5
M  V30 36 1 21 10
M  V30 37 1 30 25
M  V30 38 1 18 13
M  V30 39 1 24 20
M  V30 40 1 3 35
M  V30 41 1 4 36
M  V30 42 1 6 37
M  V30 43 1 8 38
M  V30 44 1 8 39
M  V30 45 1 9 40
M  V30 46 1 14 41
M  V30 47 1 14 42
M  V30 48 1 15 43
M  V30 49 1 15 44
M  V30 50 1 17 45
M  V30 51 1 17 46
M  V30 52 1 18 47
M  V30 53 1 18 48
M  V30 54 1 23 49
M  V30 55 1 26 50
M  V30 56 1 27 51
M  V30 57 1 28 52
M  V30 58 1 30 53
M  V30 END BOND
M  V30 END CTAB
M  END
>  <Dataset>  (941) 
ChEMBL_Kinases

>  <Ligand_Instance>  (941) 
nan

>  <PDB_ID>  (941) 
nan

>  <Standardized_SMILES>  (941) 
Fc1ccc2[nH]c(CNc3nc(N4CCOCC4)nc4c3ncn4-c3cccnc3)nc2c1F

>  <Name>  (941) 
nan

>  <Pocket>  (941) 
nan

>  <ATP_Site>  (941) 
nan

>  <Peripheral>  (941) 
nan

>  <Num_H_Atoms_ProtBoundConf>  (941) 
nan

>  <Num_Resolved_Atoms>  (941) 
nan

>  <Num_Not_Resolved_Atoms>  (941) 
nan

$$$$
CHEMBL3675423
     RDKit          3D

  0  0  0  0  0  0  0  0  0  0999 V3000
M  V30 BEGIN CTAB
M  V30 COUNTS 47 49 0 0 0
M  V30 BEGIN ATOM
M  V30 1 C 0.860178 -3.982214 4.058370 0
M  V30 2 N 0.932556 -3.324871 2.770323 0
M  V30 3 C -0.293178 -3.403382 2.048479 0
M  V30 4 C -0.242524 -2.694460 0.695268 0
M  V30 5 N 0.046197 -1.312020 0.816678 0
M  V30 6 C 0.034484 0.030007 1.141724 0
M  V30 7 N -1.024775 0.158649 1.976329 0
M  V30 8 C -1.360161 1.354025 2.542247 0
M  V30 9 N -0.594567 2.407066 2.238849 0
M  V30 10 C 0.435806 2.264830 1.421611 0
M  V30 11 C 1.273071 3.325812 1.052501 0
M  V30 12 C 0.980827 4.639597 1.615193 0
M  V30 13 N 1.750577 5.788345 1.319288 0
M  V30 14 O 0.117907 5.088110 2.391904 0
M  V30 15 C 2.351382 3.241101 0.200783 0
M  V30 16 C 2.603094 1.989155 -0.317489 0
M  V30 17 C 1.869182 0.859739 -0.044294 0
M  V30 18 O 2.132639 -0.370397 -0.566070 0
M  V30 19 C 3.190620 -0.582739 -1.452986 0
M  V30 20 C 0.835552 1.096828 0.813849 0
M  V30 21 C -1.660243 -2.781873 0.165784 0
M  V30 22 C -2.711309 -3.535397 0.592140 0
M  V30 23 C -3.913480 -3.446015 -0.079689 0
M  V30 24 C -4.083169 -2.623629 -1.163002 0
M  V30 25 C -3.024258 -1.840124 -1.623626 0
M  V30 26 C -1.834747 -1.938994 -0.943571 0
M  V30 27 H 1.728527 -4.712406 4.082320 0
M  V30 28 H 0.932397 -3.276644 4.893832 0
M  V30 29 H -0.033852 -4.646421 4.121389 0
M  V30 30 H 1.284890 -2.361725 2.881099 0
M  V30 31 H -0.514317 -4.480613 1.884945 0
M  V30 32 H -1.103677 -3.009800 2.698071 0
M  V30 33 H 0.362942 -3.336753 0.060909 0
M  V30 34 H 0.865152 -1.455955 0.241614 0
M  V30 35 H -2.163356 1.612198 3.217583 0
M  V30 36 H 1.833869 6.246854 0.385480 0
M  V30 37 H 2.338184 6.335457 1.980328 0
M  V30 38 H 2.959634 4.073979 -0.050792 0
M  V30 39 H 3.461547 1.929145 -0.997380 0
M  V30 40 H 3.308918 0.290053 -2.163567 0
M  V30 41 H 4.178626 -0.724697 -0.976123 0
M  V30 42 H 2.967480 -1.448356 -2.150279 0
M  V30 43 H -2.469634 -4.141180 1.441526 0
M  V30 44 H -4.669819 -4.108699 0.375245 0
M  V30 45 H -5.060530 -2.610248 -1.638102 0
M  V30 46 H -3.220742 -1.222759 -2.477407 0
M  V30 47 H -1.067812 -1.302848 -1.359687 0
M  V30 END ATOM
M  V30 BEGIN BOND
M  V30 1 1 1 2
M  V30 2 1 2 3
M  V30 3 1 3 4
M  V30 4 1 4 5
M  V30 5 1 5 6
M  V30 6 2 6 7
M  V30 7 1 7 8
M  V30 8 2 8 9
M  V30 9 1 9 10
M  V30 10 2 10 11
M  V30 11 1 11 12
M  V30 12 1 12 13
M  V30 13 2 12 14
M  V30 14 1 11 15
M  V30 15 2 15 16
M  V30 16 1 16 17
M  V30 17 1 17 18
M  V30 18 1 18 19
M  V30 19 2 17 20
M  V30 20 1 4 21
M  V30 21 2 21 22
M  V30 22 1 22 23
M  V30 23 2 23 24
M  V30 24 1 24 25
M  V30 25 2 25 26
M  V30 26 1 20 6
M  V30 27 1 26 21
M  V30 28 1 20 10
M  V30 29 1 1 27
M  V30 30 1 1 28
M  V30 31 1 1 29
M  V30 32 1 2 30
M  V30 33 1 3 31
M  V30 34 1 3 32
M  V30 35 1 4 33
M  V30 36 1 5 34
M  V30 37 1 8 35
M  V30 38 1 13 36
M  V30 39 1 13 37
M  V30 40 1 15 38
M  V30 41 1 16 39
M  V30 42 1 19 40
M  V30 43 1 19 41
M  V30 44 1 19 42
M  V30 45 1 22 43
M  V30 46 1 23 44
M  V30 47 1 24 45
M  V30 48 1 25 46
M  V30 49 1 26 47
M  V30 END BOND
M  V30 END CTAB
M  END
>  <Dataset>  (942) 
ChEMBL_Kinases

>  <Ligand_Instance>  (942) 
nan

>  <PDB_ID>  (942) 
nan

>  <Standardized_SMILES>  (942) 
CNCC(Nc1ncnc2c(C(N)=O)ccc(OC)c12)c1ccccc1

>  <Name>  (942) 
nan

>  <Pocket>  (942) 
nan

>  <ATP_Site>  (942) 
nan

>  <Peripheral>  (942) 
nan

>  <Num_H_Atoms_ProtBoundConf>  (942) 
nan

>  <Num_Resolved_Atoms>  (942) 
nan

>  <Num_Not_Resolved_Atoms>  (942) 
nan

$$$$
CHEMBL3675422
     RDKit          3D

  0  0  0  0  0  0  0  0  0  0999 V3000
M  V30 BEGIN CTAB
M  V30 COUNTS 64 67 0 0 0
M  V30 BEGIN ATOM
M  V30 1 C 4.269427 -0.912464 7.977023 0
M  V30 2 O 4.161831 -1.299746 6.644149 0
M  V30 3 C 3.446838 -0.707258 5.643538 0
M  V30 4 C 2.672294 0.422988 5.758379 0
M  V30 5 C 1.988483 0.939397 4.679220 0
M  V30 6 C 2.061576 0.333660 3.440880 0
M  V30 7 C 1.407323 0.761378 2.198440 0
M  V30 8 O 1.506357 0.108873 1.099599 0
M  V30 9 N 0.593290 1.919667 2.018659 0
M  V30 10 C 0.214685 1.871527 0.632576 0
M  V30 11 C 1.216257 2.505241 -0.115220 0
M  V30 12 C 1.086655 2.586424 -1.487882 0
M  V30 13 C -0.020654 2.045996 -2.100836 0
M  V30 14 C -1.020339 1.419515 -1.390251 0
M  V30 15 C -2.289941 0.763001 -1.792200 0
M  V30 16 C -2.311936 0.547453 -3.261514 0
M  V30 17 N -2.238275 1.704907 -4.086697 0
M  V30 18 C -2.214529 1.221354 -5.474481 0
M  V30 19 C -3.359198 2.595146 -3.988322 0
M  V30 20 N -2.550768 -0.450149 -1.040942 0
M  V30 21 C -1.664322 -1.536115 -1.055052 0
M  V30 22 N -0.528121 -1.470046 -1.788489 0
M  V30 23 C 0.294647 -2.537167 -1.770390 0
M  V30 24 N 0.078814 -3.678072 -1.075457 0
M  V30 25 C -1.057271 -3.780250 -0.324035 0
M  V30 26 C -1.264729 -4.943313 0.378308 0
M  V30 27 C -0.365396 -6.074402 0.387774 0
M  V30 28 N 0.866129 -6.129152 -0.302074 0
M  V30 29 O -0.617699 -7.125227 1.029436 0
M  V30 30 C -2.431234 -5.030698 1.142130 0
M  V30 31 C -3.315274 -3.974175 1.166623 0
M  V30 32 C -3.033818 -2.841737 0.433574 0
M  V30 33 C -1.894385 -2.690670 -0.344464 0
M  V30 34 C -0.876217 1.346606 -0.026845 0
M  V30 35 C 2.843514 -0.803203 3.333637 0
M  V30 36 C 3.528013 -1.322632 4.410631 0
M  V30 37 H 4.651893 -1.795688 8.559385 0
M  V30 38 H 3.301011 -0.632319 8.458941 0
M  V30 39 H 5.035968 -0.126944 8.153742 0
M  V30 40 H 2.608169 0.906657 6.716164 0
M  V30 41 H 1.367643 1.823049 4.713547 0
M  V30 42 H 0.443291 2.521413 2.858030 0
M  V30 43 H 2.133396 2.971345 0.236083 0
M  V30 44 H 1.780107 3.045290 -2.184502 0
M  V30 45 H -0.182772 2.065647 -3.162741 0
M  V30 46 H -3.095255 1.503834 -1.499956 0
M  V30 47 H -3.130257 -0.104436 -3.623976 0
M  V30 48 H -1.375591 -0.048406 -3.499521 0
M  V30 49 H -3.165203 0.754405 -5.774503 0
M  V30 50 H -2.088850 2.098625 -6.146984 0
M  V30 51 H -1.417070 0.481967 -5.652587 0
M  V30 52 H -3.910332 2.494530 -3.042952 0
M  V30 53 H -3.104275 3.656948 -4.218548 0
M  V30 54 H -4.102013 2.322906 -4.786928 0
M  V30 55 H -3.434774 -0.470564 -0.490969 0
M  V30 56 H 1.231826 -2.555490 -2.337262 0
M  V30 57 H 1.750138 -5.766805 -0.687134 0
M  V30 58 H 1.779556 -5.772068 -0.704848 0
M  V30 59 H -2.569220 -5.937278 1.678064 0
M  V30 60 H -4.209657 -4.072878 1.769498 0
M  V30 61 H -3.786100 -2.076696 0.517555 0
M  V30 62 H -1.547037 0.894478 0.715363 0
M  V30 63 H 2.938824 -1.329087 2.369128 0
M  V30 64 H 4.125024 -2.224473 4.252202 0
M  V30 END ATOM
M  V30 BEGIN BOND
M  V30 1 1 1 2
M  V30 2 1 2 3
M  V30 3 2 3 4
M  V30 4 1 4 5
M  V30 5 2 5 6
M  V30 6 1 6 7
M  V30 7 2 7 8
M  V30 8 1 7 9
M  V30 9 1 9 10
M  V30 10 2 10 11
M  V30 11 1 11 12
M  V30 12 2 12 13
M  V30 13 1 13 14
M  V30 14 1 14 15
M  V30 15 1 15 16
M  V30 16 1 16 17
M  V30 17 1 17 18
M  V30 18 1 17 19
M  V30 19 1 15 20
M  V30 20 1 20 21
M  V30 21 2 21 22
M  V30 22 1 22 23
M  V30 23 2 23 24
M  V30 24 1 24 25
M  V30 25 2 25 26
M  V30 26 1 26 27
M  V30 27 1 27 28
M  V30 28 2 27 29
M  V30 29 1 26 30
M  V30 30 2 30 31
M  V30 31 1 31 32
M  V30 32 2 32 33
M  V30 33 2 14 34
M  V30 34 1 6 35
M  V30 35 2 35 36
M  V30 36 1 36 3
M  V30 37 1 34 10
M  V30 38 1 33 21
M  V30 39 1 33 25
M  V30 40 1 1 37
M  V30 41 1 1 38
M  V30 42 1 1 39
M  V30 43 1 4 40
M  V30 44 1 5 41
M  V30 45 1 9 42
M  V30 46 1 11 43
M  V30 47 1 12 44
M  V30 48 1 13 45
M  V30 49 1 15 46
M  V30 50 1 16 47
M  V30 51 1 16 48
M  V30 52 1 18 49
M  V30 53 1 18 50
M  V30 54 1 18 51
M  V30 55 1 19 52
M  V30 56 1 19 53
M  V30 57 1 19 54
M  V30 58 1 20 55
M  V30 59 1 23 56
M  V30 60 1 28 57
M  V30 61 1 28 58
M  V30 62 1 30 59
M  V30 63 1 31 60
M  V30 64 1 32 61
M  V30 65 1 34 62
M  V30 66 1 35 63
M  V30 67 1 36 64
M  V30 END BOND
M  V30 END CTAB
M  END
>  <Dataset>  (943) 
ChEMBL_Kinases

>  <Ligand_Instance>  (943) 
nan

>  <PDB_ID>  (943) 
nan

>  <Standardized_SMILES>  (943) 
COc1ccc(C(=O)Nc2cccc(C(CN(C)C)Nc3ncnc4c(C(N)=O)cccc34)c2)cc1

>  <Name>  (943) 
nan

>  <Pocket>  (943) 
nan

>  <ATP_Site>  (943) 
nan

>  <Peripheral>  (943) 
nan

>  <Num_H_Atoms_ProtBoundConf>  (943) 
nan

>  <Num_Resolved_Atoms>  (943) 
nan

>  <Num_Not_Resolved_Atoms>  (943) 
nan

$$$$
CHEMBL4206247
     RDKit          3D

  0  0  0  0  0  0  0  0  0  0999 V3000
M  V30 BEGIN CTAB
M  V30 COUNTS 51 56 0 0 0
M  V30 BEGIN ATOM
M  V30 1 F 4.197238 -1.241786 5.883909 0
M  V30 2 C 4.234685 -0.993790 4.543043 0
M  V30 3 C 5.293790 -1.552330 3.877155 0
M  V30 4 C 5.442208 -1.370872 2.505954 0
M  V30 5 C 4.462597 -0.602956 1.885460 0
M  V30 6 N 4.337678 -0.261500 0.608491 0
M  V30 7 C 3.223663 0.507449 0.416361 0
M  V30 8 C 2.828023 1.036642 -0.908980 0
M  V30 9 N 1.966372 0.178703 -1.666242 0
M  V30 10 C 0.697779 -0.192900 -1.154659 0
M  V30 11 N 0.225411 0.206407 0.014908 0
M  V30 12 C -0.990402 -0.185230 0.439165 0
M  V30 13 N -1.452475 0.272297 1.704408 0
M  V30 14 C -0.651403 1.144456 2.542256 0
M  V30 15 C -1.618637 2.060650 3.263088 0
M  V30 16 O -2.773307 2.292561 2.547722 0
M  V30 17 C -3.554392 1.165821 2.352003 0
M  V30 18 C -2.752162 -0.111488 2.221875 0
M  V30 19 N -1.792902 -0.992012 -0.279697 0
M  V30 20 C -1.393466 -1.450770 -1.489303 0
M  V30 21 C -0.142314 -1.032147 -1.897480 0
M  V30 22 N 0.078734 -1.582027 -3.106185 0
M  V30 23 C -0.986260 -2.324684 -3.462608 0
M  V30 24 N -1.899953 -2.242611 -2.458014 0
M  V30 25 C -3.196354 -2.858981 -2.367897 0
M  V30 26 C -3.432667 -4.089712 -1.800415 0
M  V30 27 C -4.676140 -4.578597 -1.764373 0
M  V30 28 S -5.710978 -3.299364 -2.565141 0
M  V30 29 C -4.264655 -2.164900 -2.885872 0
M  V30 30 N 2.632262 0.646375 1.638925 0
M  V30 31 C 3.388227 -0.028786 2.523662 0
M  V30 32 C 3.269800 -0.227474 3.883002 0
M  V30 33 F 2.264940 0.285821 4.597461 0
M  V30 34 H 6.054198 -2.151345 4.373122 0
M  V30 35 H 6.262066 -1.793848 1.944265 0
M  V30 36 H 5.007713 -0.543863 -0.162107 0
M  V30 37 H 2.287299 1.996441 -0.759803 0
M  V30 38 H 3.758717 1.286563 -1.456210 0
M  V30 39 H 2.264288 -0.180311 -2.600572 0
M  V30 40 H -0.021788 1.774885 1.890049 0
M  V30 41 H -0.083418 0.563052 3.296027 0
M  V30 42 H -1.119405 3.041025 3.397819 0
M  V30 43 H -1.817962 1.700623 4.313460 0
M  V30 44 H -4.048616 1.322692 1.349354 0
M  V30 45 H -4.388145 1.083333 3.077054 0
M  V30 46 H -3.292821 -0.831026 1.608695 0
M  V30 47 H -2.576332 -0.482367 3.268196 0
M  V30 48 H -1.203340 -2.915807 -4.336421 0
M  V30 49 H -2.644286 -4.693996 -1.372803 0
M  V30 50 H -5.100212 -5.474460 -1.392858 0
M  V30 51 H -4.345193 -1.240562 -3.354589 0
M  V30 END ATOM
M  V30 BEGIN BOND
M  V30 1 1 1 2
M  V30 2 2 2 3
M  V30 3 1 3 4
M  V30 4 2 4 5
M  V30 5 1 5 6
M  V30 6 1 6 7
M  V30 7 1 7 8
M  V30 8 1 8 9
M  V30 9 1 9 10
M  V30 10 2 10 11
M  V30 11 1 11 12
M  V30 12 1 12 13
M  V30 13 1 13 14
M  V30 14 1 14 15
M  V30 15 1 15 16
M  V30 16 1 16 17
M  V30 17 1 17 18
M  V30 18 2 12 19
M  V30 19 1 19 20
M  V30 20 2 20 21
M  V30 21 1 21 22
M  V30 22 2 22 23
M  V30 23 1 23 24
M  V30 24 1 24 25
M  V30 25 1 25 26
M  V30 26 2 26 27
M  V30 27 1 27 28
M  V30 28 1 28 29
M  V30 29 2 7 30
M  V30 30 1 30 31
M  V30 31 2 31 32
M  V30 32 1 32 33
M  V30 33 1 32 2
M  V30 34 1 31 5
M  V30 35 1 21 10
M  V30 36 2 29 25
M  V30 37 1 18 13
M  V30 38 1 24 20
M  V30 39 1 3 34
M  V30 40 1 4 35
M  V30 41 1 6 36
M  V30 42 1 8 37
M  V30 43 1 8 38
M  V30 44 1 9 39
M  V30 45 1 14 40
M  V30 46 1 14 41
M  V30 47 1 15 42
M  V30 48 1 15 43
M  V30 49 1 17 44
M  V30 50 1 17 45
M  V30 51 1 18 46
M  V30 52 1 18 47
M  V30 53 1 23 48
M  V30 54 1 26 49
M  V30 55 1 27 50
M  V30 56 1 29 51
M  V30 END BOND
M  V30 END CTAB
M  END
>  <Dataset>  (944) 
ChEMBL_Kinases

>  <Ligand_Instance>  (944) 
nan

>  <PDB_ID>  (944) 
nan

>  <Standardized_SMILES>  (944) 
Fc1ccc2[nH]c(CNc3nc(N4CCOCC4)nc4c3ncn4-c3ccsc3)nc2c1F

>  <Name>  (944) 
nan

>  <Pocket>  (944) 
nan

>  <ATP_Site>  (944) 
nan

>  <Peripheral>  (944) 
nan

>  <Num_H_Atoms_ProtBoundConf>  (944) 
nan

>  <Num_Resolved_Atoms>  (944) 
nan

>  <Num_Not_Resolved_Atoms>  (944) 
nan

$$$$
CHEMBL3675421
     RDKit          3D

  0  0  0  0  0  0  0  0  0  0999 V3000
M  V30 BEGIN CTAB
M  V30 COUNTS 46 48 0 0 0
M  V30 BEGIN ATOM
M  V30 1 C 3.110880 -0.903345 0.509579 0
M  V30 2 N 2.981396 -1.835851 -0.530109 0
M  V30 3 C 3.330517 -3.187776 -0.269083 0
M  V30 4 C 2.240953 -1.546067 -1.685247 0
M  V30 5 C 0.766978 -1.416535 -1.579098 0
M  V30 6 N 0.287166 -0.371472 -0.707877 0
M  V30 7 C -1.128709 -0.251747 -0.595955 0
M  V30 8 N -1.968473 -1.032657 -1.247600 0
M  V30 9 C -3.307019 -0.963925 -1.188314 0
M  V30 10 N -3.874802 -0.022202 -0.400642 0
M  V30 11 C -3.056337 0.797883 0.283466 0
M  V30 12 C -3.619503 1.769447 1.097227 0
M  V30 13 C -5.057415 1.860882 1.170438 0
M  V30 14 N -5.901412 0.990048 0.437172 0
M  V30 15 O -5.875370 2.589935 1.780533 0
M  V30 16 C -2.837825 2.633475 1.820466 0
M  V30 17 C -1.459257 2.575411 1.770983 0
M  V30 18 C -0.920646 1.595127 0.949481 0
M  V30 19 C -1.681658 0.735013 0.229008 0
M  V30 20 C 0.194231 -1.274968 -2.959011 0
M  V30 21 C 0.174507 -0.034335 -3.556460 0
M  V30 22 C -0.363005 0.061593 -4.822918 0
M  V30 23 C -0.876870 -1.018503 -5.512039 0
M  V30 24 C -0.863045 -2.284857 -4.917010 0
M  V30 25 Cl -1.496619 -3.706351 -5.720083 0
M  V30 26 C -0.319890 -2.350515 -3.650958 0
M  V30 27 H 3.323729 0.102275 0.113082 0
M  V30 28 H 2.340396 -0.929758 1.311952 0
M  V30 29 H 4.066772 -1.173549 1.068829 0
M  V30 30 H 3.102682 -3.549295 0.740892 0
M  V30 31 H 4.447743 -3.289831 -0.385770 0
M  V30 32 H 2.928541 -3.881468 -1.055230 0
M  V30 33 H 2.542402 -2.298242 -2.472356 0
M  V30 34 H 2.627167 -0.559056 -2.085576 0
M  V30 35 H 0.388407 -2.377045 -1.117938 0
M  V30 36 H 0.989823 0.195543 -0.252419 0
M  V30 37 H -3.856856 -1.695362 -1.798815 0
M  V30 38 H -6.354121 0.157152 0.022944 0
M  V30 39 H -6.181444 0.007828 0.163769 0
M  V30 40 H -3.388577 3.343237 2.417334 0
M  V30 41 H -0.867507 3.270586 2.352671 0
M  V30 42 H 0.150054 1.562664 0.920835 0
M  V30 43 H 0.556962 0.865338 -3.085196 0
M  V30 44 H -0.410554 1.020271 -5.356096 0
M  V30 45 H -1.297423 -0.926556 -6.506853 0
M  V30 46 H -0.295344 -3.310392 -3.166561 0
M  V30 END ATOM
M  V30 BEGIN BOND
M  V30 1 1 1 2
M  V30 2 1 2 3
M  V30 3 1 2 4
M  V30 4 1 4 5
M  V30 5 1 5 6
M  V30 6 1 6 7
M  V30 7 2 7 8
M  V30 8 1 8 9
M  V30 9 2 9 10
M  V30 10 1 10 11
M  V30 11 2 11 12
M  V30 12 1 12 13
M  V30 13 1 13 14
M  V30 14 2 13 15
M  V30 15 1 12 16
M  V30 16 2 16 17
M  V30 17 1 17 18
M  V30 18 2 18 19
M  V30 19 1 5 20
M  V30 20 2 20 21
M  V30 21 1 21 22
M  V30 22 2 22 23
M  V30 23 1 23 24
M  V30 24 1 24 25
M  V30 25 2 24 26
M  V30 26 1 19 7
M  V30 27 1 26 20
M  V30 28 1 19 11
M  V30 29 1 1 27
M  V30 30 1 1 28
M  V30 31 1 1 29
M  V30 32 1 3 30
M  V30 33 1 3 31
M  V30 34 1 3 32
M  V30 35 1 4 33
M  V30 36 1 4 34
M  V30 37 1 5 35
M  V30 38 1 6 36
M  V30 39 1 9 37
M  V30 40 1 14 38
M  V30 41 1 14 39
M  V30 42 1 16 40
M  V30 43 1 17 41
M  V30 44 1 18 42
M  V30 45 1 21 43
M  V30 46 1 22 44
M  V30 47 1 23 45
M  V30 48 1 26 46
M  V30 END BOND
M  V30 END CTAB
M  END
>  <Dataset>  (945) 
ChEMBL_Kinases

>  <Ligand_Instance>  (945) 
nan

>  <PDB_ID>  (945) 
nan

>  <Standardized_SMILES>  (945) 
CN(C)CC(Nc1ncnc2c(C(N)=O)cccc12)c1cccc(Cl)c1

>  <Name>  (945) 
nan

>  <Pocket>  (945) 
nan

>  <ATP_Site>  (945) 
nan

>  <Peripheral>  (945) 
nan

>  <Num_H_Atoms_ProtBoundConf>  (945) 
nan

>  <Num_Resolved_Atoms>  (945) 
nan

>  <Num_Not_Resolved_Atoms>  (945) 
nan

$$$$
CHEMBL3675420
     RDKit          3D

  0  0  0  0  0  0  0  0  0  0999 V3000
M  V30 BEGIN CTAB
M  V30 COUNTS 71 75 0 0 0
M  V30 BEGIN ATOM
M  V30 1 C 4.089849 -4.251209 2.150356 0
M  V30 2 N 2.848573 -3.529171 1.831200 0
M  V30 3 C 2.626154 -2.624301 2.943402 0
M  V30 4 C 3.161560 -2.761558 0.638966 0
M  V30 5 C 2.011055 -1.951113 0.150910 0
M  V30 6 N 2.423620 -1.225970 -1.039518 0
M  V30 7 C 3.439266 -0.235397 -1.035803 0
M  V30 8 N 4.082797 0.101798 0.092465 0
M  V30 9 C 5.038016 1.035410 0.123255 0
M  V30 10 N 5.439683 1.717399 -0.962899 0
M  V30 11 C 4.823612 1.420445 -2.140842 0
M  V30 12 C 5.184959 2.080361 -3.293393 0
M  V30 13 C 6.223666 3.089355 -3.235504 0
M  V30 14 N 6.875811 3.406035 -2.002909 0
M  V30 15 O 6.645002 3.762245 -4.207308 0
M  V30 16 C 4.594758 1.821067 -4.517764 0
M  V30 17 C 3.598721 0.843898 -4.536390 0
M  V30 18 C 3.263445 0.203643 -3.360601 0
M  V30 19 C 3.841981 0.456377 -2.154946 0
M  V30 20 C 0.773783 -2.732917 -0.031183 0
M  V30 21 C 0.678309 -3.493714 -1.185312 0
M  V30 22 C -0.439986 -4.269836 -1.464559 0
M  V30 23 C -1.497127 -4.297209 -0.578767 0
M  V30 24 C -1.407016 -3.541651 0.571382 0
M  V30 25 N -2.384893 -3.419698 1.629783 0
M  V30 26 C -3.234911 -2.325554 1.266999 0
M  V30 27 O -2.874180 -1.813547 0.152447 0
M  V30 28 C -4.375128 -1.841387 2.057709 0
M  V30 29 C -4.786136 -2.357300 3.268994 0
M  V30 30 N -5.847875 -1.840629 3.915790 0
M  V30 31 C -6.556527 -0.802028 3.416089 0
M  V30 32 C -6.145654 -0.286922 2.205961 0
M  V30 33 N -6.862003 0.806062 1.644596 0
M  V30 34 C -8.004448 1.537540 2.151432 0
M  V30 35 C -7.725368 2.998292 1.871493 0
M  V30 36 C -6.647974 2.990433 0.785636 0
M  V30 37 C -6.673815 1.519256 0.402336 0
M  V30 38 C -5.063967 -0.790726 1.516761 0
M  V30 39 C -0.282283 -2.763750 0.847745 0
M  V30 40 H 4.881858 -3.484168 2.257825 0
M  V30 41 H 4.412438 -4.888493 1.283735 0
M  V30 42 H 3.993369 -4.837153 3.077299 0
M  V30 43 H 3.259680 -2.877881 3.835714 0
M  V30 44 H 1.567575 -2.721818 3.311679 0
M  V30 45 H 2.845016 -1.559968 2.665793 0
M  V30 46 H 4.016065 -2.105119 0.878637 0
M  V30 47 H 3.496804 -3.405259 -0.188200 0
M  V30 48 H 1.794533 -1.185692 0.957325 0
M  V30 49 H 1.887047 -1.523271 -1.878844 0
M  V30 50 H 5.476428 1.211351 1.094729 0
M  V30 51 H 6.362611 3.999769 -1.297518 0
M  V30 52 H 7.797675 3.196405 -1.566903 0
M  V30 53 H 4.922823 2.373404 -5.384867 0
M  V30 54 H 3.156084 0.658685 -5.490304 0
M  V30 55 H 2.486508 -0.529405 -3.484991 0
M  V30 56 H 1.470840 -3.533993 -1.948448 0
M  V30 57 H -0.556001 -4.878176 -2.353310 0
M  V30 58 H -2.428575 -4.855141 -0.665817 0
M  V30 59 H -2.614655 -3.906610 2.547430 0
M  V30 60 H -4.204143 -3.186929 3.647118 0
M  V30 61 H -7.400278 -0.431809 3.984740 0
M  V30 62 H -8.095055 1.419335 3.250936 0
M  V30 63 H -8.907402 1.190185 1.612677 0
M  V30 64 H -8.617282 3.469720 1.412036 0
M  V30 65 H -7.402614 3.562535 2.756901 0
M  V30 66 H -6.893287 3.616323 -0.074995 0
M  V30 67 H -5.662246 3.302960 1.159867 0
M  V30 68 H -5.744741 1.307849 -0.124691 0
M  V30 69 H -7.590157 1.335573 -0.198934 0
M  V30 70 H -4.792561 -0.349825 0.581828 0
M  V30 71 H -0.136411 -2.146842 1.723146 0
M  V30 END ATOM
M  V30 BEGIN BOND
M  V30 1 1 1 2
M  V30 2 1 2 3
M  V30 3 1 2 4
M  V30 4 1 4 5
M  V30 5 1 5 6
M  V30 6 1 6 7
M  V30 7 2 7 8
M  V30 8 1 8 9
M  V30 9 2 9 10
M  V30 10 1 10 11
M  V30 11 2 11 12
M  V30 12 1 12 13
M  V30 13 1 13 14
M  V30 14 2 13 15
M  V30 15 1 12 16
M  V30 16 2 16 17
M  V30 17 1 17 18
M  V30 18 2 18 19
M  V30 19 1 5 20
M  V30 20 2 20 21
M  V30 21 1 21 22
M  V30 22 2 22 23
M  V30 23 1 23 24
M  V30 24 1 24 25
M  V30 25 1 25 26
M  V30 26 2 26 27
M  V30 27 1 26 28
M  V30 28 2 28 29
M  V30 29 1 29 30
M  V30 30 2 30 31
M  V30 31 1 31 32
M  V30 32 1 32 33
M  V30 33 1 33 34
M  V30 34 1 34 35
M  V30 35 1 35 36
M  V30 36 1 36 37
M  V30 37 2 32 38
M  V30 38 2 24 39
M  V30 39 1 19 7
M  V30 40 1 39 20
M  V30 41 1 19 11
M  V30 42 1 38 28
M  V30 43 1 37 33
M  V30 44 1 1 40
M  V30 45 1 1 41
M  V30 46 1 1 42
M  V30 47 1 3 43
M  V30 48 1 3 44
M  V30 49 1 3 45
M  V30 50 1 4 46
M  V30 51 1 4 47
M  V30 52 1 5 48
M  V30 53 1 6 49
M  V30 54 1 9 50
M  V30 55 1 14 51
M  V30 56 1 14 52
M  V30 57 1 16 53
M  V30 58 1 17 54
M  V30 59 1 18 55
M  V30 60 1 21 56
M  V30 61 1 22 57
M  V30 62 1 23 58
M  V30 63 1 25 59
M  V30 64 1 29 60
M  V30 65 1 31 61
M  V30 66 1 34 62
M  V30 67 1 34 63
M  V30 68 1 35 64
M  V30 69 1 35 65
M  V30 70 1 36 66
M  V30 71 1 36 67
M  V30 72 1 37 68
M  V30 73 1 37 69
M  V30 74 1 38 70
M  V30 75 1 39 71
M  V30 END BOND
M  V30 END CTAB
M  END
>  <Dataset>  (946) 
ChEMBL_Kinases

>  <Ligand_Instance>  (946) 
nan

>  <PDB_ID>  (946) 
nan

>  <Standardized_SMILES>  (946) 
CN(C)CC(Nc1ncnc2c(C(N)=O)cccc12)c1cccc(NC(=O)c2cncc(N3CCCC3)c2)c1

>  <Name>  (946) 
nan

>  <Pocket>  (946) 
nan

>  <ATP_Site>  (946) 
nan

>  <Peripheral>  (946) 
nan

>  <Num_H_Atoms_ProtBoundConf>  (946) 
nan

>  <Num_Resolved_Atoms>  (946) 
nan

>  <Num_Not_Resolved_Atoms>  (946) 
nan

$$$$
CHEMBL3675419
     RDKit          3D

  0  0  0  0  0  0  0  0  0  0999 V3000
M  V30 BEGIN CTAB
M  V30 COUNTS 61 64 0 0 0
M  V30 BEGIN ATOM
M  V30 1 C 0.749490 -2.192920 4.900868 0
M  V30 2 N 1.460621 -0.984388 4.635494 0
M  V30 3 C 1.859160 -0.855431 3.284028 0
M  V30 4 C 0.819652 -0.624306 2.256713 0
M  V30 5 N 0.029100 0.581961 2.429905 0
M  V30 6 C 0.617322 1.879473 2.409628 0
M  V30 7 N 1.939707 1.962036 2.217559 0
M  V30 8 C 2.643571 3.103284 2.168069 0
M  V30 9 N 1.937843 4.234357 2.327003 0
M  V30 10 C 0.613147 4.256554 2.524388 0
M  V30 11 C -0.050356 5.468622 2.680773 0
M  V30 12 C 0.730563 6.696235 2.623417 0
M  V30 13 N 0.149174 7.984710 2.768523 0
M  V30 14 O 1.969676 6.604394 2.437367 0
M  V30 15 C -1.411518 5.412702 2.879147 0
M  V30 16 C -2.081156 4.215397 2.920509 0
M  V30 17 C -1.411220 3.021339 2.764287 0
M  V30 18 C -0.068280 3.064847 2.568075 0
M  V30 19 C 0.007301 -1.797292 1.862277 0
M  V30 20 C -1.228778 -2.124531 2.398094 0
M  V30 21 C -2.027779 -3.195647 2.064604 0
M  V30 22 C -1.554298 -4.032165 1.098390 0
M  V30 23 C -0.336900 -3.775411 0.518863 0
M  V30 24 N 0.067522 -4.720037 -0.503028 0
M  V30 25 C -0.487474 -4.182812 -1.705530 0
M  V30 26 O -1.112843 -3.101088 -1.427703 0
M  V30 27 C -0.376982 -4.750821 -3.045661 0
M  V30 28 C 0.281819 -5.888349 -3.459508 0
M  V30 29 C 0.274619 -6.279023 -4.779096 0
M  V30 30 C -0.379279 -5.576455 -5.767894 0
M  V30 31 O -0.428726 -5.903676 -7.092401 0
M  V30 32 C -1.119528 -5.141456 -8.068095 0
M  V30 33 C -1.046668 -4.423505 -5.345272 0
M  V30 34 C -1.047957 -4.019990 -4.027787 0
M  V30 35 C 0.440200 -2.687499 0.879950 0
M  V30 36 H 0.927616 -2.939941 4.090375 0
M  V30 37 H 1.174112 -2.723451 5.816123 0
M  V30 38 H -0.324427 -2.064370 5.108071 0
M  V30 39 H 0.950609 -0.123955 4.947776 0
M  V30 40 H 2.421743 -1.787013 2.980126 0
M  V30 41 H 2.652683 -0.052975 3.197180 0
M  V30 42 H 1.413556 -0.383536 1.299338 0
M  V30 43 H -0.974600 0.372435 2.564909 0
M  V30 44 H 3.715603 3.075568 2.007491 0
M  V30 45 H 0.399566 8.590613 1.944744 0
M  V30 46 H -0.460245 8.425853 3.519035 0
M  V30 47 H -1.849219 6.416976 2.992292 0
M  V30 48 H -3.141081 4.312326 3.082291 0
M  V30 49 H -1.965302 2.095836 2.801386 0
M  V30 50 H -1.624748 -1.457054 3.181395 0
M  V30 51 H -2.976773 -3.338808 2.561930 0
M  V30 52 H -2.188123 -4.874516 0.838851 0
M  V30 53 H 0.614036 -5.628688 -0.618527 0
M  V30 54 H 0.780102 -6.409051 -2.657470 0
M  V30 55 H 0.798822 -7.169354 -5.061119 0
M  V30 56 H -1.056585 -5.623205 -9.064477 0
M  V30 57 H -0.734286 -4.110262 -8.178820 0
M  V30 58 H -2.208729 -5.027157 -7.809338 0
M  V30 59 H -1.579443 -3.834188 -6.096766 0
M  V30 60 H -1.602811 -3.099695 -3.799460 0
M  V30 61 H 1.389365 -2.532117 0.392133 0
M  V30 END ATOM
M  V30 BEGIN BOND
M  V30 1 1 1 2
M  V30 2 1 2 3
M  V30 3 1 3 4
M  V30 4 1 4 5
M  V30 5 1 5 6
M  V30 6 2 6 7
M  V30 7 1 7 8
M  V30 8 2 8 9
M  V30 9 1 9 10
M  V30 10 2 10 11
M  V30 11 1 11 12
M  V30 12 1 12 13
M  V30 13 2 12 14
M  V30 14 1 11 15
M  V30 15 2 15 16
M  V30 16 1 16 17
M  V30 17 2 17 18
M  V30 18 1 4 19
M  V30 19 2 19 20
M  V30 20 1 20 21
M  V30 21 2 21 22
M  V30 22 1 22 23
M  V30 23 1 23 24
M  V30 24 1 24 25
M  V30 25 2 25 26
M  V30 26 1 25 27
M  V30 27 2 27 28
M  V30 28 1 28 29
M  V30 29 2 29 30
M  V30 30 1 30 31
M  V30 31 1 31 32
M  V30 32 1 30 33
M  V30 33 2 33 34
M  V30 34 2 23 35
M  V30 35 1 18 6
M  V30 36 1 35 19
M  V30 37 1 18 10
M  V30 38 1 34 27
M  V30 39 1 1 36
M  V30 40 1 1 37
M  V30 41 1 1 38
M  V30 42 1 2 39
M  V30 43 1 3 40
M  V30 44 1 3 41
M  V30 45 1 4 42
M  V30 46 1 5 43
M  V30 47 1 8 44
M  V30 48 1 13 45
M  V30 49 1 13 46
M  V30 50 1 15 47
M  V30 51 1 16 48
M  V30 52 1 17 49
M  V30 53 1 20 50
M  V30 54 1 21 51
M  V30 55 1 22 52
M  V30 56 1 24 53
M  V30 57 1 28 54
M  V30 58 1 29 55
M  V30 59 1 32 56
M  V30 60 1 32 57
M  V30 61 1 32 58
M  V30 62 1 33 59
M  V30 63 1 34 60
M  V30 64 1 35 61
M  V30 END BOND
M  V30 END CTAB
M  END
>  <Dataset>  (947) 
ChEMBL_Kinases

>  <Ligand_Instance>  (947) 
nan

>  <PDB_ID>  (947) 
nan

>  <Standardized_SMILES>  (947) 
CNCC(Nc1ncnc2c(C(N)=O)cccc12)c1cccc(NC(=O)c2ccc(OC)cc2)c1

>  <Name>  (947) 
nan

>  <Pocket>  (947) 
nan

>  <ATP_Site>  (947) 
nan

>  <Peripheral>  (947) 
nan

>  <Num_H_Atoms_ProtBoundConf>  (947) 
nan

>  <Num_Resolved_Atoms>  (947) 
nan

>  <Num_Not_Resolved_Atoms>  (947) 
nan

$$$$
CHEMBL3675418
     RDKit          3D

  0  0  0  0  0  0  0  0  0  0999 V3000
M  V30 BEGIN CTAB
M  V30 COUNTS 67 70 0 0 0
M  V30 BEGIN ATOM
M  V30 1 C -0.263874 -1.928637 5.161353 0
M  V30 2 N -1.231302 -2.858072 4.747676 0
M  V30 3 C -1.014193 -4.223977 5.121801 0
M  V30 4 C -2.529891 -2.487919 4.397945 0
M  V30 5 C -2.737520 -1.727572 3.119758 0
M  V30 6 N -2.054131 -0.491422 3.131595 0
M  V30 7 C -2.141870 0.203386 1.890314 0
M  V30 8 N -2.797184 -0.243276 0.804431 0
M  V30 9 C -2.887591 0.399279 -0.368353 0
M  V30 10 N -2.301066 1.595130 -0.552851 0
M  V30 11 C -1.622438 2.124868 0.474014 0
M  V30 12 C -1.015979 3.351053 0.298327 0
M  V30 13 C -1.134067 4.014608 -0.976129 0
M  V30 14 N -1.864334 3.435465 -2.057266 0
M  V30 15 O -0.620978 5.127621 -1.241770 0
M  V30 16 C -0.303712 3.954504 1.307687 0
M  V30 17 C -0.218568 3.278454 2.514977 0
M  V30 18 C -0.837280 2.054225 2.655238 0
M  V30 19 C -1.548954 1.436527 1.668272 0
M  V30 20 C -2.257628 -2.512044 1.925164 0
M  V30 21 C -3.153447 -3.223877 1.118441 0
M  V30 22 C -2.843634 -3.966878 0.010615 0
M  V30 23 C -1.513015 -4.014526 -0.340222 0
M  V30 24 C -0.576413 -3.336967 0.409667 0
M  V30 25 N 0.800820 -3.400102 0.026025 0
M  V30 26 C 1.062709 -2.324246 -0.874452 0
M  V30 27 O 0.008919 -1.636048 -1.067683 0
M  V30 28 C 2.390129 -2.077121 -1.478553 0
M  V30 29 C 3.525957 -2.829491 -1.263808 0
M  V30 30 C 4.655740 -2.405727 -1.938887 0
M  V30 31 N 4.689614 -1.345877 -2.753009 0
M  V30 32 C 3.566829 -0.602196 -2.965175 0
M  V30 33 N 3.579786 0.528300 -3.826486 0
M  V30 34 C 2.359206 1.302667 -4.031484 0
M  V30 35 C 4.823018 0.879179 -4.482007 0
M  V30 36 C 2.392820 -0.961415 -2.325258 0
M  V30 37 C -0.955251 -2.608910 1.511057 0
M  V30 38 H -0.633185 -1.077927 5.796088 0
M  V30 39 H 0.574171 -2.408306 5.757455 0
M  V30 40 H 0.264944 -1.482298 4.300454 0
M  V30 41 H -0.379401 -4.727653 4.336138 0
M  V30 42 H -0.423933 -4.244808 6.054399 0
M  V30 43 H -1.938001 -4.819359 5.177676 0
M  V30 44 H -3.064665 -1.906315 5.215734 0
M  V30 45 H -3.158351 -3.439474 4.333122 0
M  V30 46 H -3.841970 -1.605630 2.912540 0
M  V30 47 H -1.541467 -0.069357 3.917523 0
M  V30 48 H -3.430952 -0.010264 -1.211700 0
M  V30 49 H -1.334274 3.106011 -2.916233 0
M  V30 50 H -2.881397 3.223257 -2.260263 0
M  V30 51 H 0.170715 4.913059 1.171931 0
M  V30 52 H 0.352035 3.780607 3.297044 0
M  V30 53 H -0.697771 1.639925 3.626305 0
M  V30 54 H -4.204445 -3.189799 1.391332 0
M  V30 55 H -3.601630 -4.476865 -0.542437 0
M  V30 56 H -1.233671 -4.593999 -1.211903 0
M  V30 57 H 1.599664 -4.055728 0.274127 0
M  V30 58 H 3.427151 -3.657241 -0.605419 0
M  V30 59 H 5.557368 -2.992484 -1.776197 0
M  V30 60 H 1.633666 0.728680 -4.654090 0
M  V30 61 H 1.918801 1.611791 -3.046084 0
M  V30 62 H 2.584246 2.247869 -4.563773 0
M  V30 63 H 5.275294 0.011131 -5.033791 0
M  V30 64 H 5.581574 1.221153 -3.749809 0
M  V30 65 H 4.684895 1.738201 -5.179192 0
M  V30 66 H 1.524285 -0.345646 -2.520133 0
M  V30 67 H -0.204163 -2.097710 2.062969 0
M  V30 END ATOM
M  V30 BEGIN BOND
M  V30 1 1 1 2
M  V30 2 1 2 3
M  V30 3 1 2 4
M  V30 4 1 4 5
M  V30 5 1 5 6
M  V30 6 1 6 7
M  V30 7 2 7 8
M  V30 8 1 8 9
M  V30 9 2 9 10
M  V30 10 1 10 11
M  V30 11 2 11 12
M  V30 12 1 12 13
M  V30 13 1 13 14
M  V30 14 2 13 15
M  V30 15 1 12 16
M  V30 16 2 16 17
M  V30 17 1 17 18
M  V30 18 2 18 19
M  V30 19 1 5 20
M  V30 20 2 20 21
M  V30 21 1 21 22
M  V30 22 2 22 23
M  V30 23 1 23 24
M  V30 24 1 24 25
M  V30 25 1 25 26
M  V30 26 2 26 27
M  V30 27 1 26 28
M  V30 28 2 28 29
M  V30 29 1 29 30
M  V30 30 2 30 31
M  V30 31 1 31 32
M  V30 32 1 32 33
M  V30 33 1 33 34
M  V30 34 1 33 35
M  V30 35 2 32 36
M  V30 36 2 24 37
M  V30 37 1 19 7
M  V30 38 1 37 20
M  V30 39 1 19 11
M  V30 40 1 36 28
M  V30 41 1 1 38
M  V30 42 1 1 39
M  V30 43 1 1 40
M  V30 44 1 3 41
M  V30 45 1 3 42
M  V30 46 1 3 43
M  V30 47 1 4 44
M  V30 48 1 4 45
M  V30 49 1 5 46
M  V30 50 1 6 47
M  V30 51 1 9 48
M  V30 52 1 14 49
M  V30 53 1 14 50
M  V30 54 1 16 51
M  V30 55 1 17 52
M  V30 56 1 18 53
M  V30 57 1 21 54
M  V30 58 1 22 55
M  V30 59 1 23 56
M  V30 60 1 25 57
M  V30 61 1 29 58
M  V30 62 1 30 59
M  V30 63 1 34 60
M  V30 64 1 34 61
M  V30 65 1 34 62
M  V30 66 1 35 63
M  V30 67 1 35 64
M  V30 68 1 35 65
M  V30 69 1 36 66
M  V30 70 1 37 67
M  V30 END BOND
M  V30 END CTAB
M  END
>  <Dataset>  (948) 
ChEMBL_Kinases

>  <Ligand_Instance>  (948) 
nan

>  <PDB_ID>  (948) 
nan

>  <Standardized_SMILES>  (948) 
CN(C)CC(Nc1ncnc2c(C(N)=O)cccc12)c1cccc(NC(=O)c2ccnc(N(C)C)c2)c1

>  <Name>  (948) 
nan

>  <Pocket>  (948) 
nan

>  <ATP_Site>  (948) 
nan

>  <Peripheral>  (948) 
nan

>  <Num_H_Atoms_ProtBoundConf>  (948) 
nan

>  <Num_Resolved_Atoms>  (948) 
nan

>  <Num_Not_Resolved_Atoms>  (948) 
nan

$$$$
CHEMBL4205719
     RDKit          3D

  0  0  0  0  0  0  0  0  0  0999 V3000
M  V30 BEGIN CTAB
M  V30 COUNTS 61 66 0 0 0
M  V30 BEGIN ATOM
M  V30 1 C 2.573493 -1.254176 5.200109 0
M  V30 2 N 2.636192 -1.611964 3.829331 0
M  V30 3 C 3.766221 -1.068926 3.121893 0
M  V30 4 C 3.674682 -1.241494 1.643203 0
M  V30 5 C 2.487842 -0.573194 1.041830 0
M  V30 6 N 1.946273 -1.470013 0.006095 0
M  V30 7 C 0.842545 -1.082868 -0.828104 0
M  V30 8 N 0.248876 0.119834 -0.739929 0
M  V30 9 C -0.785038 0.496424 -1.512680 0
M  V30 10 N -1.415264 1.761928 -1.446253 0
M  V30 11 C -1.172857 2.901489 -0.609523 0
M  V30 12 C -1.434828 2.555028 0.799397 0
M  V30 13 N -0.749358 2.096027 1.853179 0
M  V30 14 C -1.550139 1.972123 2.923727 0
M  V30 15 C -1.359090 1.556303 4.228916 0
M  V30 16 F -0.123169 1.172762 4.601856 0
M  V30 17 C -2.366184 1.517143 5.172581 0
M  V30 18 F -2.160502 1.105282 6.451460 0
M  V30 19 C -3.626832 1.916369 4.782646 0
M  V30 20 C -3.820383 2.330416 3.486939 0
M  V30 21 C -2.815870 2.373490 2.531831 0
M  V30 22 N -2.701388 2.719453 1.234409 0
M  V30 23 C -1.230354 -0.451539 -2.442904 0
M  V30 24 N -2.205980 -0.417325 -3.344397 0
M  V30 25 C -2.253558 -1.581361 -4.016135 0
M  V30 26 N -1.273511 -2.347958 -3.504891 0
M  V30 27 C -0.990832 -3.671224 -3.951433 0
M  V30 28 C 0.338609 -3.974325 -4.215893 0
M  V30 29 C 0.754093 -5.214571 -4.653765 0
M  V30 30 C -0.250197 -6.154375 -4.816448 0
M  V30 31 C -1.588300 -5.924830 -4.573698 0
M  V30 32 F -2.544530 -6.845437 -4.736604 0
M  V30 33 C -1.951101 -4.664134 -4.136227 0
M  V30 34 C -0.624510 -1.681278 -2.533866 0
M  V30 35 N 0.395606 -1.973696 -1.729535 0
M  V30 36 C 1.409834 -0.391880 2.087629 0
M  V30 37 C 1.405605 -1.495414 3.107983 0
M  V30 38 H 3.109719 -0.293269 5.389477 0
M  V30 39 H 3.108267 -2.023618 5.798518 0
M  V30 40 H 1.556362 -1.105764 5.610102 0
M  V30 41 H 3.835833 0.011860 3.364469 0
M  V30 42 H 4.674543 -1.606821 3.475107 0
M  V30 43 H 3.655481 -2.320801 1.422560 0
M  V30 44 H 4.579642 -0.750485 1.179262 0
M  V30 45 H 2.715110 0.402274 0.601732 0
M  V30 46 H 2.368867 -2.413807 -0.132923 0
M  V30 47 H -2.217079 1.918884 -2.130330 0
M  V30 48 H -1.698130 3.803186 -0.939218 0
M  V30 49 H -0.074535 3.131108 -0.660814 0
M  V30 50 H -4.468564 1.914037 5.464483 0
M  V30 51 H -4.805202 2.640210 3.190382 0
M  V30 52 H -3.581515 3.053071 0.771896 0
M  V30 53 H -2.978984 -1.781895 -4.808115 0
M  V30 54 H 1.108195 -3.223885 -4.081889 0
M  V30 55 H 1.789572 -5.453865 -4.860701 0
M  V30 56 H 0.042028 -7.143490 -5.160561 0
M  V30 57 H -2.960546 -4.345979 -3.908017 0
M  V30 58 H 0.435702 -0.420175 1.561067 0
M  V30 59 H 1.516595 0.604529 2.536218 0
M  V30 60 H 1.185017 -2.462051 2.615481 0
M  V30 61 H 0.589711 -1.295960 3.824513 0
M  V30 END ATOM
M  V30 BEGIN BOND
M  V30 1 1 1 2
M  V30 2 1 2 3
M  V30 3 1 3 4
M  V30 4 1 4 5
M  V30 5 1 5 6
M  V30 6 1 6 7
M  V30 7 2 7 8
M  V30 8 1 8 9
M  V30 9 1 9 10
M  V30 10 1 10 11
M  V30 11 1 11 12
M  V30 12 2 12 13
M  V30 13 1 13 14
M  V30 14 2 14 15
M  V30 15 1 15 16
M  V30 16 1 15 17
M  V30 17 1 17 18
M  V30 18 2 17 19
M  V30 19 1 19 20
M  V30 20 2 20 21
M  V30 21 1 21 22
M  V30 22 2 9 23
M  V30 23 1 23 24
M  V30 24 2 24 25
M  V30 25 1 25 26
M  V30 26 1 26 27
M  V30 27 2 27 28
M  V30 28 1 28 29
M  V30 29 2 29 30
M  V30 30 1 30 31
M  V30 31 1 31 32
M  V30 32 2 31 33
M  V30 33 1 26 34
M  V30 34 2 34 35
M  V30 35 1 5 36
M  V30 36 1 36 37
M  V30 37 1 37 2
M  V30 38 1 35 7
M  V30 39 1 22 12
M  V30 40 1 34 23
M  V30 41 1 21 14
M  V30 42 1 33 27
M  V30 43 1 1 38
M  V30 44 1 1 39
M  V30 45 1 1 40
M  V30 46 1 3 41
M  V30 47 1 3 42
M  V30 48 1 4 43
M  V30 49 1 4 44
M  V30 50 1 5 45
M  V30 51 1 6 46
M  V30 52 1 10 47
M  V30 53 1 11 48
M  V30 54 1 11 49
M  V30 55 1 19 50
M  V30 56 1 20 51
M  V30 57 1 22 52
M  V30 58 1 25 53
M  V30 59 1 28 54
M  V30 60 1 29 55
M  V30 61 1 30 56
M  V30 62 1 33 57
M  V30 63 1 36 58
M  V30 64 1 36 59
M  V30 65 1 37 60
M  V30 66 1 37 61
M  V30 END BOND
M  V30 END CTAB
M  END
>  <Dataset>  (949) 
ChEMBL_Kinases

>  <Ligand_Instance>  (949) 
nan

>  <PDB_ID>  (949) 
nan

>  <Standardized_SMILES>  (949) 
CN1CCC(Nc2nc(NCc3nc4c(F)c(F)ccc4[nH]3)c3ncn(-c4cccc(F)c4)c3n2)CC1

>  <Name>  (949) 
nan

>  <Pocket>  (949) 
nan

>  <ATP_Site>  (949) 
nan

>  <Peripheral>  (949) 
nan

>  <Num_H_Atoms_ProtBoundConf>  (949) 
nan

>  <Num_Resolved_Atoms>  (949) 
nan

>  <Num_Not_Resolved_Atoms>  (949) 
nan

$$$$
CHEMBL4205645
     RDKit          3D

  0  0  0  0  0  0  0  0  0  0999 V3000
M  V30 BEGIN CTAB
M  V30 COUNTS 70 75 0 0 0
M  V30 BEGIN ATOM
M  V30 1 C 3.824186 -0.545760 5.677887 0
M  V30 2 C 4.554934 -1.669178 4.971517 0
M  V30 3 N 4.341740 -1.596051 3.534884 0
M  V30 4 C 2.942703 -1.905351 3.303834 0
M  V30 5 C 2.626461 -1.905700 1.824328 0
M  V30 6 N 3.855908 -1.928085 1.094399 0
M  V30 7 C 3.656729 -1.921975 -0.341813 0
M  V30 8 C 2.923037 -0.684915 -0.710186 0
M  V30 9 C 1.550467 -0.575458 -0.769124 0
M  V30 10 C 1.055847 0.657842 -1.131946 0
M  V30 11 C 1.784885 1.769774 -1.435270 0
M  V30 12 N 1.232834 3.027074 -1.806529 0
M  V30 13 C -0.127443 3.425637 -1.949112 0
M  V30 14 N -0.408903 4.687706 -2.317841 0
M  V30 15 C -1.652933 5.128126 -2.470583 0
M  V30 16 C -2.715660 4.303045 -2.255730 0
M  V30 17 C -2.432118 3.011722 -1.878532 0
M  V30 18 C -3.551535 2.108415 -1.643549 0
M  V30 19 C -4.875982 2.465499 -1.774547 0
M  V30 20 C -5.948030 1.626289 -1.557011 0
M  V30 21 F -7.229007 2.014329 -1.695624 0
M  V30 22 C -5.704018 0.331118 -1.180377 0
M  V30 23 N -6.515682 -0.721599 -0.896067 0
M  V30 24 C -5.749395 -1.784740 -0.574519 0
M  V30 25 N -4.433862 -1.422405 -0.649889 0
M  V30 26 C -4.388525 -0.108920 -1.025650 0
M  V30 27 C -3.365398 0.795970 -1.263048 0
M  V30 28 C -3.559817 -2.512664 -0.317744 0
M  V30 29 C -2.278327 -2.149254 0.314727 0
M  V30 30 C -3.259999 -3.331552 -1.558955 0
M  V30 31 C -4.457403 -3.363937 0.564363 0
M  V30 32 C -5.787282 -3.215148 -0.165474 0
M  V30 33 N -1.177937 2.618817 -1.739204 0
M  V30 34 N 3.098559 1.616287 -1.364929 0
M  V30 35 C 3.645411 0.446936 -1.019437 0
M  V30 36 C 4.680910 -3.000254 1.555021 0
M  V30 37 C 5.204857 -2.607313 2.921488 0
M  V30 38 H 3.417586 0.198529 4.942335 0
M  V30 39 H 2.944937 -0.895039 6.255361 0
M  V30 40 H 4.556564 -0.009891 6.313367 0
M  V30 41 H 4.094974 -2.634107 5.305006 0
M  V30 42 H 5.648431 -1.653928 5.218867 0
M  V30 43 H 2.684380 -2.902205 3.757956 0
M  V30 44 H 2.346679 -1.128808 3.823292 0
M  V30 45 H 2.002528 -1.025397 1.616828 0
M  V30 46 H 2.090597 -2.863277 1.550330 0
M  V30 47 H 3.021885 -2.780939 -0.672762 0
M  V30 48 H 4.609816 -2.038182 -0.893093 0
M  V30 49 H 0.962230 -1.429185 -0.536682 0
M  V30 50 H -0.025852 0.683873 -1.160929 0
M  V30 51 H 1.946732 3.785481 -2.007984 0
M  V30 52 H -1.738566 6.164584 -2.770449 0
M  V30 53 H -3.681051 4.757969 -2.406802 0
M  V30 54 H -5.158964 3.463831 -2.066311 0
M  V30 55 H -2.392544 0.397841 -1.127724 0
M  V30 56 H -1.458087 -2.199328 -0.428215 0
M  V30 57 H -2.029996 -2.886131 1.112637 0
M  V30 58 H -2.218225 -1.157171 0.780111 0
M  V30 59 H -3.699885 -2.820274 -2.451796 0
M  V30 60 H -2.172014 -3.404611 -1.751576 0
M  V30 61 H -3.656113 -4.347327 -1.531945 0
M  V30 62 H -4.144989 -4.434110 0.531983 0
M  V30 63 H -4.548538 -2.984043 1.595243 0
M  V30 64 H -6.589650 -3.426654 0.553530 0
M  V30 65 H -5.824222 -3.792497 -1.086423 0
M  V30 66 H 4.744816 0.382271 -0.978760 0
M  V30 67 H 4.111560 -3.931342 1.660545 0
M  V30 68 H 5.537804 -3.184419 0.844976 0
M  V30 69 H 5.343844 -3.490317 3.579903 0
M  V30 70 H 6.194889 -2.133849 2.777930 0
M  V30 END ATOM
M  V30 BEGIN BOND
M  V30 1 1 1 2
M  V30 2 1 2 3
M  V30 3 1 3 4
M  V30 4 1 4 5
M  V30 5 1 5 6
M  V30 6 1 6 7
M  V30 7 1 7 8
M  V30 8 2 8 9
M  V30 9 1 9 10
M  V30 10 2 10 11
M  V30 11 1 11 12
M  V30 12 1 12 13
M  V30 13 2 13 14
M  V30 14 1 14 15
M  V30 15 2 15 16
M  V30 16 1 16 17
M  V30 17 1 17 18
M  V30 18 2 18 19
M  V30 19 1 19 20
M  V30 20 1 20 21
M  V30 21 2 20 22
M  V30 22 1 22 23
M  V30 23 2 23 24
M  V30 24 1 24 25
M  V30 25 1 25 26
M  V30 26 2 26 27
M  V30 27 1 25 28
M  V30 28 1 28 29
M  V30 29 1 28 30
M  V30 30 1 28 31
M  V30 31 1 31 32
M  V30 32 2 17 33
M  V30 33 1 11 34
M  V30 34 2 34 35
M  V30 35 1 6 36
M  V30 36 1 36 37
M  V30 37 1 37 3
M  V30 38 1 35 8
M  V30 39 1 33 13
M  V30 40 1 27 18
M  V30 41 1 26 22
M  V30 42 1 32 24
M  V30 43 1 1 38
M  V30 44 1 1 39
M  V30 45 1 1 40
M  V30 46 1 2 41
M  V30 47 1 2 42
M  V30 48 1 4 43
M  V30 49 1 4 44
M  V30 50 1 5 45
M  V30 51 1 5 46
M  V30 52 1 7 47
M  V30 53 1 7 48
M  V30 54 1 9 49
M  V30 55 1 10 50
M  V30 56 1 12 51
M  V30 57 1 15 52
M  V30 58 1 16 53
M  V30 59 1 19 54
M  V30 60 1 27 55
M  V30 61 1 29 56
M  V30 62 1 29 57
M  V30 63 1 29 58
M  V30 64 1 30 59
M  V30 65 1 30 60
M  V30 66 1 30 61
M  V30 67 1 31 62
M  V30 68 1 31 63
M  V30 69 1 32 64
M  V30 70 1 32 65
M  V30 71 1 35 66
M  V30 72 1 36 67
M  V30 73 1 36 68
M  V30 74 1 37 69
M  V30 75 1 37 70
M  V30 END BOND
M  V30 END CTAB
M  END
>  <Dataset>  (950) 
ChEMBL_Kinases

>  <Ligand_Instance>  (950) 
nan

>  <PDB_ID>  (950) 
nan

>  <Standardized_SMILES>  (950) 
CCN1CCN(Cc2ccc(Nc3nccc(-c4cc(F)c5nc6n(c5c4)C(C)(C)CC6)n3)nc2)CC1

>  <Name>  (950) 
nan

>  <Pocket>  (950) 
nan

>  <ATP_Site>  (950) 
nan

>  <Peripheral>  (950) 
nan

>  <Num_H_Atoms_ProtBoundConf>  (950) 
nan

>  <Num_Resolved_Atoms>  (950) 
nan

>  <Num_Not_Resolved_Atoms>  (950) 
nan

$$$$
CHEMBL4206349
     RDKit          3D

  0  0  0  0  0  0  0  0  0  0999 V3000
M  V30 BEGIN CTAB
M  V30 COUNTS 53 57 0 0 0
M  V30 BEGIN ATOM
M  V30 1 C 0.091641 -6.669167 1.608715 0
M  V30 2 N 1.110125 -6.488230 2.606594 0
M  V30 3 C 2.440008 -6.818992 2.147639 0
M  V30 4 C 3.131474 -5.721438 1.406833 0
M  V30 5 N 2.317783 -4.507959 1.407511 0
M  V30 6 C 2.007051 -3.875708 0.156370 0
M  V30 7 O 2.557570 -4.574478 -0.717958 0
M  V30 8 C 1.196526 -2.669520 0.138796 0
M  V30 9 C 1.531504 -1.376334 -0.226827 0
M  V30 10 C 0.590316 -0.385240 -0.167056 0
M  V30 11 C -0.705002 -0.606771 0.246862 0
M  V30 12 C -1.717634 0.435029 0.312027 0
M  V30 13 C -1.452695 1.740123 -0.038962 0
M  V30 14 N -2.465915 2.616393 0.061975 0
M  V30 15 C -2.475064 3.932417 -0.213014 0
M  V30 16 C -1.460938 4.850231 -0.690796 0
M  V30 17 C -0.135896 4.955945 -0.263852 0
M  V30 18 C 0.708967 5.888377 -0.813848 0
M  V30 19 C 0.315132 6.773251 -1.810528 0
M  V30 20 C -1.000679 6.712783 -2.276458 0
M  V30 21 C -1.806528 5.761135 -1.693546 0
M  V30 22 C -3.763261 4.404791 0.050817 0
M  V30 23 N -4.519597 3.363036 0.484283 0
M  V30 24 C -3.697193 2.291771 0.478181 0
M  V30 25 C -3.972413 0.993438 0.830611 0
M  V30 26 N -2.969769 0.119233 0.732426 0
M  V30 27 C -1.036560 -1.902180 0.612210 0
M  V30 28 C -0.099779 -2.933686 0.562185 0
M  V30 29 C 1.996420 -4.206424 2.771802 0
M  V30 30 C 1.030211 -5.224610 3.282829 0
M  V30 31 H -0.210537 -7.730426 1.607966 0
M  V30 32 H 0.453316 -6.411736 0.588696 0
M  V30 33 H -0.793058 -6.061017 1.875026 0
M  V30 34 H 2.386240 -7.697110 1.453070 0
M  V30 35 H 3.039337 -7.145874 2.995886 0
M  V30 36 H 4.063267 -5.460321 1.948415 0
M  V30 37 H 3.370943 -5.999032 0.349568 0
M  V30 38 H 2.548181 -1.287057 -0.533849 0
M  V30 39 H 0.910168 0.582539 -0.460415 0
M  V30 40 H -0.480704 2.054506 -0.380077 0
M  V30 41 H 0.138315 4.251767 0.513705 0
M  V30 42 H 1.737136 5.937953 -0.450844 0
M  V30 43 H 0.983863 7.503309 -2.237595 0
M  V30 44 H -1.396802 7.357767 -3.046306 0
M  V30 45 H -2.840696 5.721889 -2.067531 0
M  V30 46 H -4.225474 5.401538 -0.029063 0
M  V30 47 H -4.953079 0.682879 1.173457 0
M  V30 48 H -2.056636 -2.080896 0.938566 0
M  V30 49 H -0.494522 -3.894962 0.875681 0
M  V30 50 H 1.546801 -3.198097 2.902824 0
M  V30 51 H 2.899610 -4.200542 3.434206 0
M  V30 52 H -0.021021 -4.833185 3.261433 0
M  V30 53 H 1.235613 -5.385087 4.368963 0
M  V30 END ATOM
M  V30 BEGIN BOND
M  V30 1 1 1 2
M  V30 2 1 2 3
M  V30 3 1 3 4
M  V30 4 1 4 5
M  V30 5 1 5 6
M  V30 6 2 6 7
M  V30 7 1 6 8
M  V30 8 2 8 9
M  V30 9 1 9 10
M  V30 10 2 10 11
M  V30 11 1 11 12
M  V30 12 2 12 13
M  V30 13 1 13 14
M  V30 14 1 14 15
M  V30 15 1 15 16
M  V30 16 2 16 17
M  V30 17 1 17 18
M  V30 18 2 18 19
M  V30 19 1 19 20
M  V30 20 2 20 21
M  V30 21 2 15 22
M  V30 22 1 22 23
M  V30 23 2 23 24
M  V30 24 1 24 25
M  V30 25 2 25 26
M  V30 26 1 11 27
M  V30 27 2 27 28
M  V30 28 1 5 29
M  V30 29 1 29 30
M  V30 30 1 30 2
M  V30 31 1 28 8
M  V30 32 1 26 12
M  V30 33 1 24 14
M  V30 34 1 21 16
M  V30 35 1 1 31
M  V30 36 1 1 32
M  V30 37 1 1 33
M  V30 38 1 3 34
M  V30 39 1 3 35
M  V30 40 1 4 36
M  V30 41 1 4 37
M  V30 42 1 9 38
M  V30 43 1 10 39
M  V30 44 1 13 40
M  V30 45 1 17 41
M  V30 46 1 18 42
M  V30 47 1 19 43
M  V30 48 1 20 44
M  V30 49 1 21 45
M  V30 50 1 22 46
M  V30 51 1 25 47
M  V30 52 1 27 48
M  V30 53 1 28 49
M  V30 54 1 29 50
M  V30 55 1 29 51
M  V30 56 1 30 52
M  V30 57 1 30 53
M  V30 END BOND
M  V30 END CTAB
M  END
>  <Dataset>  (951) 
ChEMBL_Kinases

>  <Ligand_Instance>  (951) 
nan

>  <PDB_ID>  (951) 
nan

>  <Standardized_SMILES>  (951) 
CN1CCN(C(=O)c2ccc(-c3cn4c(-c5ccccc5)cnc4cn3)cc2)CC1

>  <Name>  (951) 
nan

>  <Pocket>  (951) 
nan

>  <ATP_Site>  (951) 
nan

>  <Peripheral>  (951) 
nan

>  <Num_H_Atoms_ProtBoundConf>  (951) 
nan

>  <Num_Resolved_Atoms>  (951) 
nan

>  <Num_Not_Resolved_Atoms>  (951) 
nan

$$$$
CHEMBL3675439
     RDKit          3D

  0  0  0  0  0  0  0  0  0  0999 V3000
M  V30 BEGIN CTAB
M  V30 COUNTS 58 61 0 0 0
M  V30 BEGIN ATOM
M  V30 1 C 6.625161 -0.345270 3.044211 0
M  V30 2 C 5.566929 -0.004755 4.064779 0
M  V30 3 C 4.793256 -1.257546 4.420570 0
M  V30 4 C 4.685028 1.090564 3.624237 0
M  V30 5 C 3.968987 0.907894 2.467766 0
M  V30 6 C 3.216910 2.058173 2.252348 0
M  V30 7 C 2.258878 2.503222 1.217685 0
M  V30 8 O 1.652714 3.624384 1.184965 0
M  V30 9 N 2.045494 1.536427 0.197600 0
M  V30 10 C 1.254263 1.457640 -0.988802 0
M  V30 11 C 1.915033 1.922859 -2.114109 0
M  V30 12 C 1.250693 1.896203 -3.322895 0
M  V30 13 C -0.038654 1.425280 -3.444438 0
M  V30 14 C -0.687014 0.964907 -2.318994 0
M  V30 15 C -2.076121 0.402806 -2.154561 0 CFG=1
M  V30 16 C -2.761144 0.230096 -3.464258 0
M  V30 17 N -2.060267 -0.807512 -1.329744 0
M  V30 18 C -3.235426 -1.524496 -0.986538 0
M  V30 19 N -4.441224 -1.120550 -1.405061 0
M  V30 20 C -5.604757 -1.732876 -1.128905 0
M  V30 21 N -5.559257 -2.851588 -0.364311 0
M  V30 22 C -4.395654 -3.337370 0.104736 0
M  V30 23 C -4.339001 -4.472748 0.883357 0
M  V30 24 C -5.558343 -5.193210 1.223149 0
M  V30 25 N -6.882748 -4.865184 0.823833 0
M  V30 26 O -5.612211 -6.229896 1.933396 0
M  V30 27 C -3.171652 -5.006179 1.386773 0
M  V30 28 C -2.010604 -4.302141 1.048099 0
M  V30 29 C -2.076819 -3.167327 0.268636 0
M  V30 30 C -3.237248 -2.664979 -0.212780 0
M  V30 31 C -0.042932 0.979727 -1.089051 0
M  V30 32 N 3.506008 2.888079 3.282268 0
M  V30 33 N 4.386340 2.304604 4.102428 0
M  V30 34 H 6.355502 -1.265778 2.484693 0
M  V30 35 H 7.550640 -0.627498 3.625802 0
M  V30 36 H 6.840562 0.469680 2.354390 0
M  V30 37 H 6.048794 0.338714 5.015966 0
M  V30 38 H 3.811343 -1.044822 4.873192 0
M  V30 39 H 5.378373 -1.888076 5.138248 0
M  V30 40 H 4.649179 -1.919911 3.539978 0
M  V30 41 H 3.880920 0.100270 1.740955 0
M  V30 42 H 2.520247 0.591377 0.174593 0
M  V30 43 H 2.914550 2.317392 -2.176234 0
M  V30 44 H 1.686192 2.241812 -4.272228 0
M  V30 45 H -0.651121 1.355226 -4.324180 0
M  V30 46 H -2.620788 1.180860 -1.578199 0
M  V30 47 H -2.640406 1.192380 -4.013372 0
M  V30 48 H -2.408807 -0.630528 -4.051212 0
M  V30 49 H -3.847123 0.133411 -3.299277 0
M  V30 50 H -1.107319 -1.083420 -1.025294 0
M  V30 51 H -6.551310 -1.324928 -1.519311 0
M  V30 52 H -7.406713 -4.343858 0.075159 0
M  V30 53 H -7.365946 -4.337915 0.063201 0
M  V30 54 H -3.162128 -5.895600 1.992440 0
M  V30 55 H -1.073181 -4.709593 1.437992 0
M  V30 56 H -1.115340 -2.716130 0.077835 0
M  V30 57 H -0.406327 0.658756 -0.125486 0
M  V30 58 H 3.130201 3.861090 3.471224 0
M  V30 END ATOM
M  V30 BEGIN BOND
M  V30 1 1 1 2
M  V30 2 1 2 3
M  V30 3 1 2 4
M  V30 4 1 4 5
M  V30 5 2 5 6
M  V30 6 1 6 7
M  V30 7 2 7 8
M  V30 8 1 7 9
M  V30 9 1 9 10
M  V30 10 2 10 11
M  V30 11 1 11 12
M  V30 12 2 12 13
M  V30 13 1 13 14
M  V30 14 1 14 15
M  V30 15 1 15 16
M  V30 16 1 15 17
M  V30 17 1 17 18
M  V30 18 2 18 19
M  V30 19 1 19 20
M  V30 20 2 20 21
M  V30 21 1 21 22
M  V30 22 2 22 23
M  V30 23 1 23 24
M  V30 24 1 24 25
M  V30 25 2 24 26
M  V30 26 1 23 27
M  V30 27 2 27 28
M  V30 28 1 28 29
M  V30 29 2 29 30
M  V30 30 2 14 31
M  V30 31 1 6 32
M  V30 32 1 32 33
M  V30 33 2 33 4
M  V30 34 1 31 10
M  V30 35 1 30 18
M  V30 36 1 30 22
M  V30 37 1 1 34
M  V30 38 1 1 35
M  V30 39 1 1 36
M  V30 40 1 2 37
M  V30 41 1 3 38
M  V30 42 1 3 39
M  V30 43 1 3 40
M  V30 44 1 5 41
M  V30 45 1 9 42
M  V30 46 1 11 43
M  V30 47 1 12 44
M  V30 48 1 13 45
M  V30 49 1 15 46 CFG=1
M  V30 50 1 16 47
M  V30 51 1 16 48
M  V30 52 1 16 49
M  V30 53 1 17 50
M  V30 54 1 20 51
M  V30 55 1 25 52
M  V30 56 1 25 53
M  V30 57 1 27 54
M  V30 58 1 28 55
M  V30 59 1 29 56
M  V30 60 1 31 57
M  V30 61 1 32 58
M  V30 END BOND
M  V30 END CTAB
M  END
>  <Dataset>  (952) 
ChEMBL_Kinases

>  <Ligand_Instance>  (952) 
nan

>  <PDB_ID>  (952) 
nan

>  <Standardized_SMILES>  (952) 
CC(C)c1cc(C(=O)Nc2cccc([C@@H](C)Nc3ncnc4c(C(N)=O)cccc34)c2)[nH]n1

>  <Name>  (952) 
nan

>  <Pocket>  (952) 
nan

>  <ATP_Site>  (952) 
nan

>  <Peripheral>  (952) 
nan

>  <Num_H_Atoms_ProtBoundConf>  (952) 
nan

>  <Num_Resolved_Atoms>  (952) 
nan

>  <Num_Not_Resolved_Atoms>  (952) 
nan

$$$$
CHEMBL3298824
     RDKit          3D

  0  0  0  0  0  0  0  0  0  0999 V3000
M  V30 BEGIN CTAB
M  V30 COUNTS 45 48 0 0 0
M  V30 BEGIN ATOM
M  V30 1 O -0.201608 -2.098360 0.606729 0
M  V30 2 C -1.229577 -1.812794 1.266135 0
M  V30 3 C -2.233479 -0.747892 1.291974 0
M  V30 4 C -1.976991 0.344790 0.273867 0
M  V30 5 C -3.062883 1.402345 0.354576 0
M  V30 6 N -3.060875 2.050363 1.655191 0
M  V30 7 C -1.800340 2.707358 1.917404 0
M  V30 8 O -1.666348 3.730918 2.649476 0
M  V30 9 C -0.625352 2.091810 1.255948 0
M  V30 10 C 0.690394 2.570124 1.329296 0
M  V30 11 C 1.456386 1.731061 0.547424 0
M  V30 12 C 2.897633 1.827996 0.312086 0
M  V30 13 C 3.619249 0.652840 0.091104 0
M  V30 14 C 4.994678 0.781464 -0.130853 0
M  V30 15 C 5.598366 2.028251 -0.128170 0
M  V30 16 F 6.928835 2.168537 -0.341709 0
M  V30 17 C 4.834068 3.179187 0.097965 0
M  V30 18 F 5.430032 4.396714 0.099340 0
M  V30 19 C 3.466439 3.091895 0.322115 0
M  V30 20 C 0.579418 0.792869 0.041944 0
M  V30 21 N -0.683230 0.989974 0.457053 0
M  V30 22 N -1.416476 -2.854907 2.246653 0
M  V30 23 C -0.569209 -3.995202 2.411617 0
M  V30 24 C -0.519052 -4.856378 1.210678 0
M  V30 25 C 0.265078 -5.003887 0.090122 0
M  V30 26 C -0.230139 -6.030469 -0.691006 0
M  V30 27 C -1.320988 -6.470177 0.010945 0
M  V30 28 O -1.469864 -5.784731 1.097808 0
M  V30 29 H -2.145241 -0.227403 2.292731 0
M  V30 30 H -3.266841 -1.107892 1.264509 0
M  V30 31 H -1.986225 -0.076523 -0.744853 0
M  V30 32 H -4.024048 0.881854 0.164442 0
M  V30 33 H -2.925376 2.151665 -0.429805 0
M  V30 34 H -3.777080 2.141632 2.438128 0
M  V30 35 H 1.083169 3.416970 1.870754 0
M  V30 36 H 3.111755 -0.301481 0.096731 0
M  V30 37 H 5.583309 -0.113633 -0.305759 0
M  V30 38 H 2.843573 3.944595 0.499192 0
M  V30 39 H 0.931724 0.021162 -0.611564 0
M  V30 40 H -2.252156 -2.785919 2.912594 0
M  V30 41 H -0.861816 -4.552846 3.307921 0
M  V30 42 H 0.489985 -3.632244 2.606410 0
M  V30 43 H 1.105236 -4.373580 -0.052152 0
M  V30 44 H 0.193593 -6.363096 -1.633250 0
M  V30 45 H -1.968895 -7.279965 -0.301593 0
M  V30 END ATOM
M  V30 BEGIN BOND
M  V30 1 2 1 2
M  V30 2 1 2 3
M  V30 3 1 3 4
M  V30 4 1 4 5
M  V30 5 1 5 6
M  V30 6 1 6 7
M  V30 7 2 7 8
M  V30 8 1 7 9
M  V30 9 2 9 10
M  V30 10 1 10 11
M  V30 11 1 11 12
M  V30 12 2 12 13
M  V30 13 1 13 14
M  V30 14 2 14 15
M  V30 15 1 15 16
M  V30 16 1 15 17
M  V30 17 1 17 18
M  V30 18 2 17 19
M  V30 19 2 11 20
M  V30 20 1 20 21
M  V30 21 1 2 22
M  V30 22 1 22 23
M  V30 23 1 23 24
M  V30 24 2 24 25
M  V30 25 1 25 26
M  V30 26 2 26 27
M  V30 27 1 27 28
M  V30 28 1 21 4
M  V30 29 1 28 24
M  V30 30 1 21 9
M  V30 31 1 19 12
M  V30 32 1 3 29
M  V30 33 1 3 30
M  V30 34 1 4 31
M  V30 35 1 5 32
M  V30 36 1 5 33
M  V30 37 1 6 34
M  V30 38 1 10 35
M  V30 39 1 13 36
M  V30 40 1 14 37
M  V30 41 1 19 38
M  V30 42 1 20 39
M  V30 43 1 22 40
M  V30 44 1 23 41
M  V30 45 1 23 42
M  V30 46 1 25 43
M  V30 47 1 26 44
M  V30 48 1 27 45
M  V30 END BOND
M  V30 END CTAB
M  END
>  <Dataset>  (953) 
ChEMBL_Kinases

>  <Ligand_Instance>  (953) 
nan

>  <PDB_ID>  (953) 
nan

>  <Standardized_SMILES>  (953) 
O=C(CC1CNC(=O)c2cc(-c3ccc(F)c(F)c3)cn21)NCc1ccco1

>  <Name>  (953) 
nan

>  <Pocket>  (953) 
nan

>  <ATP_Site>  (953) 
nan

>  <Peripheral>  (953) 
nan

>  <Num_H_Atoms_ProtBoundConf>  (953) 
nan

>  <Num_Resolved_Atoms>  (953) 
nan

>  <Num_Not_Resolved_Atoms>  (953) 
nan

$$$$
CHEMBL3298886
     RDKit          3D

  0  0  0  0  0  0  0  0  0  0999 V3000
M  V30 BEGIN CTAB
M  V30 COUNTS 45 48 0 0 0
M  V30 BEGIN ATOM
M  V30 1 O -0.807375 -1.633389 1.006564 0
M  V30 2 C 0.099927 -2.398479 0.666706 0
M  V30 3 C 0.833155 -2.294777 -0.595763 0
M  V30 4 C 0.425617 -1.201545 -1.504901 0
M  V30 5 C -1.015236 -1.287420 -1.947913 0
M  V30 6 N -1.192491 -0.238191 -2.964990 0
M  V30 7 C -0.992629 1.094647 -2.445106 0
M  V30 8 O -1.636848 2.108382 -2.883107 0
M  V30 9 C 0.007781 1.244638 -1.363306 0
M  V30 10 C 0.450308 2.335140 -0.641973 0
M  V30 11 C 1.398852 1.862311 0.242207 0
M  V30 12 C 2.175975 2.600840 1.232324 0
M  V30 13 C 3.449060 2.136528 1.526398 0
M  V30 14 C 4.226633 2.794645 2.453315 0
M  V30 15 C 3.709495 3.914706 3.073028 0
M  V30 16 C 2.437246 4.382212 2.781917 0
M  V30 17 Cl 1.731130 5.803664 3.542634 0
M  V30 18 C 1.649129 3.727784 1.852436 0
M  V30 19 C 1.493445 0.491587 0.018537 0
M  V30 20 N 0.636294 0.123662 -0.967863 0
M  V30 21 N 0.426622 -3.433636 1.583790 0
M  V30 22 C -0.217720 -3.642027 2.852263 0
M  V30 23 C -1.671546 -3.909442 2.714007 0
M  V30 24 C -2.833707 -3.176416 2.709584 0
M  V30 25 C -3.924923 -3.993769 2.535926 0
M  V30 26 C -3.359935 -5.248375 2.437097 0
M  V30 27 O -2.068619 -5.167577 2.542846 0
M  V30 28 H 1.936359 -2.313439 -0.458239 0
M  V30 29 H 0.623934 -3.258452 -1.149145 0
M  V30 30 H 1.055498 -1.264307 -2.423400 0
M  V30 31 H -1.145958 -2.291859 -2.398912 0
M  V30 32 H -1.678719 -1.124390 -1.080097 0
M  V30 33 H -1.438002 -0.280698 -3.998810 0
M  V30 34 H 0.124505 3.350078 -0.744870 0
M  V30 35 H 3.857869 1.250857 1.036309 0
M  V30 36 H 5.226574 2.465611 2.712541 0
M  V30 37 H 4.292971 4.450433 3.801822 0
M  V30 38 H 0.637017 4.040551 1.573931 0
M  V30 39 H 2.164950 -0.156696 0.570642 0
M  V30 40 H 1.209791 -4.090689 1.286499 0
M  V30 41 H 0.305527 -4.446758 3.391196 0
M  V30 42 H -0.110820 -2.740943 3.522503 0
M  V30 43 H -2.775341 -2.105543 2.837049 0
M  V30 44 H -4.957683 -3.676994 2.494236 0
M  V30 45 H -3.929280 -6.175470 2.290233 0
M  V30 END ATOM
M  V30 BEGIN BOND
M  V30 1 2 1 2
M  V30 2 1 2 3
M  V30 3 1 3 4
M  V30 4 1 4 5
M  V30 5 1 5 6
M  V30 6 1 6 7
M  V30 7 2 7 8
M  V30 8 1 7 9
M  V30 9 2 9 10
M  V30 10 1 10 11
M  V30 11 1 11 12
M  V30 12 2 12 13
M  V30 13 1 13 14
M  V30 14 2 14 15
M  V30 15 1 15 16
M  V30 16 1 16 17
M  V30 17 2 16 18
M  V30 18 2 11 19
M  V30 19 1 19 20
M  V30 20 1 2 21
M  V30 21 1 21 22
M  V30 22 1 22 23
M  V30 23 2 23 24
M  V30 24 1 24 25
M  V30 25 2 25 26
M  V30 26 1 26 27
M  V30 27 1 20 4
M  V30 28 1 27 23
M  V30 29 1 20 9
M  V30 30 1 18 12
M  V30 31 1 3 28
M  V30 32 1 3 29
M  V30 33 1 4 30
M  V30 34 1 5 31
M  V30 35 1 5 32
M  V30 36 1 6 33
M  V30 37 1 10 34
M  V30 38 1 13 35
M  V30 39 1 14 36
M  V30 40 1 15 37
M  V30 41 1 18 38
M  V30 42 1 19 39
M  V30 43 1 21 40
M  V30 44 1 22 41
M  V30 45 1 22 42
M  V30 46 1 24 43
M  V30 47 1 25 44
M  V30 48 1 26 45
M  V30 END BOND
M  V30 END CTAB
M  END
>  <Dataset>  (954) 
ChEMBL_Kinases

>  <Ligand_Instance>  (954) 
nan

>  <PDB_ID>  (954) 
nan

>  <Standardized_SMILES>  (954) 
O=C(CC1CNC(=O)c2cc(-c3cccc(Cl)c3)cn21)NCc1ccco1

>  <Name>  (954) 
nan

>  <Pocket>  (954) 
nan

>  <ATP_Site>  (954) 
nan

>  <Peripheral>  (954) 
nan

>  <Num_H_Atoms_ProtBoundConf>  (954) 
nan

>  <Num_Resolved_Atoms>  (954) 
nan

>  <Num_Not_Resolved_Atoms>  (954) 
nan

$$$$
CHEMBL3675437
     RDKit          3D

  0  0  0  0  0  0  0  0  0  0999 V3000
M  V30 BEGIN CTAB
M  V30 COUNTS 55 58 0 0 0
M  V30 BEGIN ATOM
M  V30 1 C 6.322648 -3.587652 5.741300 0
M  V30 2 O 6.016074 -2.214019 6.007575 0
M  V30 3 C 5.174386 -1.535453 5.104813 0
M  V30 4 C 4.871032 -0.190606 5.357064 0
M  V30 5 C 4.043144 0.376601 4.416106 0
M  V30 6 C 3.512892 -0.236580 3.301150 0
M  V30 7 C 2.647112 0.503933 2.391523 0
M  V30 8 O 2.428486 1.709086 2.669194 0
M  V30 9 N 2.083144 -0.122402 1.246177 0
M  V30 10 C 1.260668 0.738185 0.455845 0
M  V30 11 C 2.030908 1.379401 -0.518737 0
M  V30 12 C 1.385543 2.265302 -1.388041 0
M  V30 13 C 0.028116 2.461624 -1.241696 0
M  V30 14 C -0.735581 1.830252 -0.280675 0
M  V30 15 C -2.190629 2.053681 -0.137314 0 CFG=1
M  V30 16 C -2.649449 2.852137 -1.336473 0
M  V30 17 N -2.951583 0.834610 0.028422 0
M  V30 18 C -2.895424 -0.146401 -0.996083 0
M  V30 19 N -2.140712 0.075413 -2.091117 0
M  V30 20 C -2.039243 -0.805568 -3.099036 0
M  V30 21 N -2.690665 -1.983153 -3.085437 0
M  V30 22 C -3.455163 -2.238772 -2.005091 0
M  V30 23 C -4.173829 -3.405193 -1.865185 0
M  V30 24 C -4.047643 -4.342002 -2.972035 0
M  V30 25 N -3.267475 -4.126898 -4.134695 0
M  V30 26 O -4.377709 -5.449593 -3.442436 0
M  V30 27 C -4.979116 -3.755383 -0.804928 0
M  V30 28 C -5.060528 -2.820667 0.219141 0
M  V30 29 C -4.358318 -1.636014 0.125046 0
M  V30 30 C -3.573275 -1.347735 -0.959053 0
M  V30 31 C -0.095655 0.962212 0.568886 0
M  V30 32 C 3.867538 -1.573392 3.130001 0
M  V30 33 N 4.677827 -2.171402 4.028222 0
M  V30 34 H 5.769342 -3.942414 4.832935 0
M  V30 35 H 7.392963 -3.606109 5.427822 0
M  V30 36 H 6.108340 -4.185414 6.637225 0
M  V30 37 H 5.245645 0.351213 6.202641 0
M  V30 38 H 3.798652 1.417698 4.597732 0
M  V30 39 H 2.251649 -1.124135 0.998810 0
M  V30 40 H 3.082364 1.272264 -0.685287 0
M  V30 41 H 1.952739 2.792123 -2.171017 0
M  V30 42 H -0.429512 3.155514 -1.935141 0
M  V30 43 H -2.310863 2.727355 0.733354 0
M  V30 44 H -2.303314 2.444580 -2.301909 0
M  V30 45 H -3.750390 3.021384 -1.318033 0
M  V30 46 H -2.208660 3.864575 -1.237023 0
M  V30 47 H -3.497380 0.765341 0.908077 0
M  V30 48 H -1.416681 -0.558564 -3.942542 0
M  V30 49 H -2.803139 -3.664472 -4.940636 0
M  V30 50 H -2.876271 -3.522410 -4.887794 0
M  V30 51 H -5.460526 -4.711778 -0.877440 0
M  V30 52 H -5.705873 -3.125153 1.046602 0
M  V30 53 H -4.474246 -0.967398 0.956460 0
M  V30 54 H -0.570843 0.410470 1.355512 0
M  V30 55 H 3.483566 -2.109159 2.274468 0
M  V30 END ATOM
M  V30 BEGIN BOND
M  V30 1 1 1 2
M  V30 2 1 2 3
M  V30 3 2 3 4
M  V30 4 1 4 5
M  V30 5 2 5 6
M  V30 6 1 6 7
M  V30 7 2 7 8
M  V30 8 1 7 9
M  V30 9 1 9 10
M  V30 10 2 10 11
M  V30 11 1 11 12
M  V30 12 2 12 13
M  V30 13 1 13 14
M  V30 14 1 14 15
M  V30 15 1 15 16
M  V30 16 1 15 17
M  V30 17 1 17 18
M  V30 18 2 18 19
M  V30 19 1 19 20
M  V30 20 2 20 21
M  V30 21 1 21 22
M  V30 22 2 22 23
M  V30 23 1 23 24
M  V30 24 1 24 25
M  V30 25 2 24 26
M  V30 26 1 23 27
M  V30 27 2 27 28
M  V30 28 1 28 29
M  V30 29 2 29 30
M  V30 30 2 14 31
M  V30 31 1 6 32
M  V30 32 2 32 33
M  V30 33 1 33 3
M  V30 34 1 31 10
M  V30 35 1 30 18
M  V30 36 1 30 22
M  V30 37 1 1 34
M  V30 38 1 1 35
M  V30 39 1 1 36
M  V30 40 1 4 37
M  V30 41 1 5 38
M  V30 42 1 9 39
M  V30 43 1 11 40
M  V30 44 1 12 41
M  V30 45 1 13 42
M  V30 46 1 15 43 CFG=1
M  V30 47 1 16 44
M  V30 48 1 16 45
M  V30 49 1 16 46
M  V30 50 1 17 47
M  V30 51 1 20 48
M  V30 52 1 25 49
M  V30 53 1 25 50
M  V30 54 1 27 51
M  V30 55 1 28 52
M  V30 56 1 29 53
M  V30 57 1 31 54
M  V30 58 1 32 55
M  V30 END BOND
M  V30 END CTAB
M  END
>  <Dataset>  (955) 
ChEMBL_Kinases

>  <Ligand_Instance>  (955) 
nan

>  <PDB_ID>  (955) 
nan

>  <Standardized_SMILES>  (955) 
COc1ccc(C(=O)Nc2cccc([C@@H](C)Nc3ncnc4c(C(N)=O)cccc34)c2)cn1

>  <Name>  (955) 
nan

>  <Pocket>  (955) 
nan

>  <ATP_Site>  (955) 
nan

>  <Peripheral>  (955) 
nan

>  <Num_H_Atoms_ProtBoundConf>  (955) 
nan

>  <Num_Resolved_Atoms>  (955) 
nan

>  <Num_Not_Resolved_Atoms>  (955) 
nan

$$$$
CHEMBL3298887
     RDKit          3D

  0  0  0  0  0  0  0  0  0  0999 V3000
M  V30 BEGIN CTAB
M  V30 COUNTS 45 48 0 0 0
M  V30 BEGIN ATOM
M  V30 1 O -0.319441 -3.707525 1.707470 0
M  V30 2 C 0.334731 -3.131864 0.802127 0
M  V30 3 C 0.747248 -1.727349 0.662853 0
M  V30 4 C 0.323572 -0.936274 1.844453 0
M  V30 5 C 0.947215 -1.462048 3.111259 0
M  V30 6 N 2.405210 -1.381369 2.913301 0
M  V30 7 C 2.897703 -0.033912 2.746217 0
M  V30 8 O 4.045669 0.366059 3.141785 0
M  V30 9 C 2.000926 0.930106 2.071099 0
M  V30 10 C 2.081049 2.263996 1.731477 0
M  V30 11 C 0.907788 2.636769 1.106402 0
M  V30 12 C 0.519204 3.936413 0.568688 0
M  V30 13 C 1.463509 4.629368 -0.198496 0
M  V30 14 C 1.170379 5.867567 -0.742942 0
M  V30 15 Cl 2.312892 6.778433 -1.710180 0
M  V30 16 C -0.075546 6.458485 -0.541255 0
M  V30 17 C -0.997460 5.764530 0.217125 0
M  V30 18 C -0.710320 4.529998 0.762095 0
M  V30 19 F -1.580536 3.834385 1.499799 0
M  V30 20 C 0.150502 1.483764 1.094770 0
M  V30 21 N 0.810154 0.442559 1.679919 0
M  V30 22 N 0.709908 -4.051350 -0.234948 0
M  V30 23 C 0.421502 -5.470780 -0.322357 0
M  V30 24 C -1.052591 -5.647928 -0.354404 0
M  V30 25 C -2.035169 -5.877106 0.582709 0
M  V30 26 C -3.271413 -5.958357 -0.010074 0
M  V30 27 C -2.982179 -5.767531 -1.344273 0
M  V30 28 O -1.698994 -5.593701 -1.495095 0
M  V30 29 H 0.276814 -1.343116 -0.281090 0
M  V30 30 H 1.870534 -1.667889 0.576791 0
M  V30 31 H -0.776847 -0.906765 1.993973 0
M  V30 32 H 0.652535 -2.491623 3.378187 0
M  V30 33 H 0.652382 -0.818325 3.995875 0
M  V30 34 H 3.170475 -2.119936 2.869767 0
M  V30 35 H 2.926532 2.909129 1.924932 0
M  V30 36 H 2.462848 4.250535 -0.411491 0
M  V30 37 H -0.359762 7.421536 -0.941250 0
M  V30 38 H -2.000902 6.138857 0.434262 0
M  V30 39 H -0.840336 1.441927 0.667234 0
M  V30 40 H 1.264305 -3.641329 -1.031895 0
M  V30 41 H 0.831132 -5.977153 0.601156 0
M  V30 42 H 0.879899 -5.886324 -1.232610 0
M  V30 43 H -1.796228 -5.975947 1.631854 0
M  V30 44 H -4.223290 -6.126002 0.434352 0
M  V30 45 H -3.686771 -5.755917 -2.179424 0
M  V30 END ATOM
M  V30 BEGIN BOND
M  V30 1 2 1 2
M  V30 2 1 2 3
M  V30 3 1 3 4
M  V30 4 1 4 5
M  V30 5 1 5 6
M  V30 6 1 6 7
M  V30 7 2 7 8
M  V30 8 1 7 9
M  V30 9 2 9 10
M  V30 10 1 10 11
M  V30 11 1 11 12
M  V30 12 2 12 13
M  V30 13 1 13 14
M  V30 14 1 14 15
M  V30 15 2 14 16
M  V30 16 1 16 17
M  V30 17 2 17 18
M  V30 18 1 18 19
M  V30 19 2 11 20
M  V30 20 1 20 21
M  V30 21 1 2 22
M  V30 22 1 22 23
M  V30 23 1 23 24
M  V30 24 2 24 25
M  V30 25 1 25 26
M  V30 26 2 26 27
M  V30 27 1 27 28
M  V30 28 1 21 4
M  V30 29 1 28 24
M  V30 30 1 21 9
M  V30 31 1 18 12
M  V30 32 1 3 29
M  V30 33 1 3 30
M  V30 34 1 4 31
M  V30 35 1 5 32
M  V30 36 1 5 33
M  V30 37 1 6 34
M  V30 38 1 10 35
M  V30 39 1 13 36
M  V30 40 1 16 37
M  V30 41 1 17 38
M  V30 42 1 20 39
M  V30 43 1 22 40
M  V30 44 1 23 41
M  V30 45 1 23 42
M  V30 46 1 25 43
M  V30 47 1 26 44
M  V30 48 1 27 45
M  V30 END BOND
M  V30 END CTAB
M  END
>  <Dataset>  (956) 
ChEMBL_Kinases

>  <Ligand_Instance>  (956) 
nan

>  <PDB_ID>  (956) 
nan

>  <Standardized_SMILES>  (956) 
O=C(CC1CNC(=O)c2cc(-c3cc(Cl)ccc3F)cn21)NCc1ccco1

>  <Name>  (956) 
nan

>  <Pocket>  (956) 
nan

>  <ATP_Site>  (956) 
nan

>  <Peripheral>  (956) 
nan

>  <Num_H_Atoms_ProtBoundConf>  (956) 
nan

>  <Num_Resolved_Atoms>  (956) 
nan

>  <Num_Not_Resolved_Atoms>  (956) 
nan

$$$$
CHEMBL3675436
     RDKit          3D

  0  0  0  0  0  0  0  0  0  0999 V3000
M  V30 BEGIN CTAB
M  V30 COUNTS 67 70 0 0 0
M  V30 BEGIN ATOM
M  V30 1 C 3.436838 -4.229192 1.466630 0
M  V30 2 C 3.215003 -4.947809 0.361728 0
M  V30 3 C 1.914824 -5.406319 -0.252422 0
M  V30 4 N 0.806043 -4.968275 0.520343 0
M  V30 5 C 0.682532 -5.583892 1.792012 0
M  V30 6 C -0.455755 -4.884048 -0.140441 0
M  V30 7 C -0.447297 -3.777564 -1.147446 0
M  V30 8 C -0.163495 -2.454259 -0.455022 0
M  V30 9 N -0.107060 -1.344317 -1.344349 0
M  V30 10 C -0.013763 -0.265554 -2.238265 0
M  V30 11 N 1.119642 -0.513567 -2.944518 0
M  V30 12 C 1.590799 0.271403 -3.923958 0
M  V30 13 N 0.855407 1.360167 -4.182188 0
M  V30 14 C -0.262740 1.653048 -3.522304 0
M  V30 15 C -1.081405 2.749214 -3.716670 0
M  V30 16 C -0.696670 3.696656 -4.752713 0
M  V30 17 N 0.460109 3.504425 -5.540501 0
M  V30 18 O -1.358136 4.730206 -5.009279 0
M  V30 19 C -2.233177 3.021090 -3.011284 0
M  V30 20 C -2.605870 2.109101 -2.012443 0
M  V30 21 C -1.854299 0.986695 -1.744600 0
M  V30 22 C -0.753149 0.862611 -2.523874 0
M  V30 23 C -0.973906 -2.208367 0.740475 0
M  V30 24 C -2.273904 -2.572306 0.997112 0
M  V30 25 C -2.949445 -2.307149 2.160561 0
M  V30 26 C -2.313522 -1.628353 3.168067 0
M  V30 27 C -1.012191 -1.239820 2.964020 0
M  V30 28 N -0.312103 -0.515852 3.999181 0
M  V30 29 C -0.568245 0.855661 3.707722 0
M  V30 30 O -1.291880 0.999059 2.683381 0
M  V30 31 C -0.104099 2.039048 4.433064 0
M  V30 32 C -0.502887 3.237919 3.881146 0
M  V30 33 C -0.103873 4.423141 4.512763 0
M  V30 34 C 0.675122 4.392748 5.668155 0
M  V30 35 Br 1.188298 6.012154 6.485112 0
M  V30 36 C 1.063143 3.159958 6.203138 0
M  V30 37 C 0.665100 1.975407 5.572721 0
M  V30 38 C -0.347506 -1.517699 1.782339 0
M  V30 39 H 4.273169 -3.824994 2.031996 0
M  V30 40 H 2.680158 -3.833317 2.142618 0
M  V30 41 H 4.147551 -5.216835 -0.131806 0
M  V30 42 H 1.987982 -6.519278 -0.322498 0
M  V30 43 H 1.929727 -5.043885 -1.296841 0
M  V30 44 H 0.503677 -4.859105 2.626424 0
M  V30 45 H 1.607465 -6.136671 2.119106 0
M  V30 46 H -0.183008 -6.290323 1.842477 0
M  V30 47 H -1.230406 -4.774987 0.632465 0
M  V30 48 H -0.722668 -5.839979 -0.673713 0
M  V30 49 H -1.417855 -3.753478 -1.699830 0
M  V30 50 H 0.323456 -3.989455 -1.908457 0
M  V30 51 H 0.944130 -2.622784 -0.109484 0
M  V30 52 H -1.027586 -1.079113 -0.981374 0
M  V30 53 H 2.458559 0.206331 -4.560301 0
M  V30 54 H 1.497918 3.514326 -5.651720 0
M  V30 55 H 1.286820 3.356456 -6.137811 0
M  V30 56 H -2.767934 3.919758 -3.280225 0
M  V30 57 H -3.519644 2.336923 -1.463024 0
M  V30 58 H -2.182841 0.330900 -0.974332 0
M  V30 59 H -2.784634 -3.094088 0.202465 0
M  V30 60 H -3.960821 -2.642297 2.243484 0
M  V30 61 H -2.823208 -1.410803 4.087341 0
M  V30 62 H 0.297570 -0.671948 4.858612 0
M  V30 63 H -1.107961 3.370477 2.987722 0
M  V30 64 H -0.389175 5.407767 4.121608 0
M  V30 65 H 1.667933 3.145955 7.100545 0
M  V30 66 H 0.950016 1.014388 5.963289 0
M  V30 67 H 0.685888 -1.175526 1.698647 0
M  V30 END ATOM
M  V30 BEGIN BOND
M  V30 1 2 1 2
M  V30 2 1 2 3
M  V30 3 1 3 4
M  V30 4 1 4 5
M  V30 5 1 4 6
M  V30 6 1 6 7
M  V30 7 1 7 8
M  V30 8 1 8 9
M  V30 9 1 9 10
M  V30 10 2 10 11
M  V30 11 1 11 12
M  V30 12 2 12 13
M  V30 13 1 13 14
M  V30 14 2 14 15
M  V30 15 1 15 16
M  V30 16 1 16 17
M  V30 17 2 16 18
M  V30 18 1 15 19
M  V30 19 2 19 20
M  V30 20 1 20 21
M  V30 21 2 21 22
M  V30 22 1 8 23
M  V30 23 2 23 24
M  V30 24 1 24 25
M  V30 25 2 25 26
M  V30 26 1 26 27
M  V30 27 1 27 28
M  V30 28 1 28 29
M  V30 29 2 29 30
M  V30 30 1 29 31
M  V30 31 2 31 32
M  V30 32 1 32 33
M  V30 33 2 33 34
M  V30 34 1 34 35
M  V30 35 1 34 36
M  V30 36 2 36 37
M  V30 37 2 27 38
M  V30 38 1 22 10
M  V30 39 1 38 23
M  V30 40 1 22 14
M  V30 41 1 37 31
M  V30 42 1 1 39
M  V30 43 1 1 40
M  V30 44 1 2 41
M  V30 45 1 3 42
M  V30 46 1 3 43
M  V30 47 1 5 44
M  V30 48 1 5 45
M  V30 49 1 5 46
M  V30 50 1 6 47
M  V30 51 1 6 48
M  V30 52 1 7 49
M  V30 53 1 7 50
M  V30 54 1 8 51
M  V30 55 1 9 52
M  V30 56 1 12 53
M  V30 57 1 17 54
M  V30 58 1 17 55
M  V30 59 1 19 56
M  V30 60 1 20 57
M  V30 61 1 21 58
M  V30 62 1 24 59
M  V30 63 1 25 60
M  V30 64 1 26 61
M  V30 65 1 28 62
M  V30 66 1 32 63
M  V30 67 1 33 64
M  V30 68 1 36 65
M  V30 69 1 37 66
M  V30 70 1 38 67
M  V30 END BOND
M  V30 END CTAB
M  END
>  <Dataset>  (957) 
ChEMBL_Kinases

>  <Ligand_Instance>  (957) 
nan

>  <PDB_ID>  (957) 
nan

>  <Standardized_SMILES>  (957) 
C=CCN(C)CCC(Nc1ncnc2c(C(N)=O)cccc12)c1cccc(NC(=O)c2ccc(Br)cc2)c1

>  <Name>  (957) 
nan

>  <Pocket>  (957) 
nan

>  <ATP_Site>  (957) 
nan

>  <Peripheral>  (957) 
nan

>  <Num_H_Atoms_ProtBoundConf>  (957) 
nan

>  <Num_Resolved_Atoms>  (957) 
nan

>  <Num_Not_Resolved_Atoms>  (957) 
nan

$$$$
CHEMBL3298889
     RDKit          3D

  0  0  0  0  0  0  0  0  0  0999 V3000
M  V30 BEGIN CTAB
M  V30 COUNTS 52 55 0 0 0
M  V30 BEGIN ATOM
M  V30 1 N -3.332307 -2.281339 3.685218 0
M  V30 2 C -2.239979 -3.197344 3.550490 0
M  V30 3 C -1.290888 -2.808885 2.424986 0 CFG=1
M  V30 4 N -0.713531 -1.516524 2.626231 0
M  V30 5 C -0.873152 -0.327977 1.832568 0
M  V30 6 O -1.643238 -0.656184 0.897310 0
M  V30 7 C -0.078151 0.763310 2.439234 0
M  V30 8 C -0.219172 2.045077 1.655167 0 CFG=1
M  V30 9 C 0.638612 3.103676 2.368579 0
M  V30 10 N 2.037374 2.729614 2.275999 0
M  V30 11 C 2.500092 2.596408 0.915083 0
M  V30 12 O 3.713774 2.838988 0.594818 0
M  V30 13 C 1.498704 2.166294 -0.082466 0
M  V30 14 C 1.700797 1.978077 -1.437456 0
M  V30 15 C 0.483655 1.588153 -1.949134 0
M  V30 16 C 0.237801 1.281345 -3.352785 0
M  V30 17 C -1.032879 1.541549 -3.873814 0
M  V30 18 C -1.260436 1.248666 -5.205901 0
M  V30 19 N -0.308880 0.730530 -5.995381 0
M  V30 20 C 0.907326 0.488832 -5.469905 0
M  V30 21 F 1.863958 -0.042260 -6.301218 0
M  V30 22 C 1.239554 0.746086 -4.146651 0
M  V30 23 C -0.379457 1.563657 -0.876984 0
M  V30 24 N 0.222703 1.913794 0.272657 0
M  V30 25 C -0.341983 -3.916926 2.247837 0
M  V30 26 C 0.763788 -4.095797 3.031795 0
M  V30 27 C 1.667178 -5.116627 2.893161 0
M  V30 28 C 1.479278 -6.064436 1.888635 0
M  V30 29 C 0.376889 -5.934640 1.063879 0
M  V30 30 C -0.508371 -4.868857 1.258014 0
M  V30 31 H -3.698428 -2.165460 4.638382 0
M  V30 32 H -4.042074 -2.314523 2.926155 0
M  V30 33 H -2.624044 -4.198648 3.368865 0
M  V30 34 H -1.695760 -3.191239 4.520508 0
M  V30 35 H -1.918233 -2.759545 1.510406 0
M  V30 36 H -0.165473 -1.740653 3.510331 0
M  V30 37 H 0.985266 0.469404 2.568917 0
M  V30 38 H -0.497524 0.972716 3.443715 0
M  V30 39 H -1.259476 2.416542 1.748810 0
M  V30 40 H 0.414238 4.061245 1.856070 0
M  V30 41 H 0.281291 3.176458 3.396640 0
M  V30 42 H 2.732857 2.549952 3.034885 0
M  V30 43 H 2.609773 2.101719 -2.009490 0
M  V30 44 H -1.844593 1.962163 -3.278478 0
M  V30 45 H -2.267404 1.461288 -5.595428 0
M  V30 46 H 2.212432 0.553274 -3.724000 0
M  V30 47 H -1.414103 1.285163 -1.019637 0
M  V30 48 H 0.975577 -3.403573 3.828872 0
M  V30 49 H 2.543244 -5.277871 3.496761 0
M  V30 50 H 2.121178 -6.890190 1.700587 0
M  V30 51 H 0.175061 -6.646060 0.258268 0
M  V30 52 H -1.368526 -4.814963 0.572583 0
M  V30 END ATOM
M  V30 BEGIN BOND
M  V30 1 1 1 2
M  V30 2 1 2 3
M  V30 3 1 3 4
M  V30 4 1 4 5
M  V30 5 2 5 6
M  V30 6 1 5 7
M  V30 7 1 7 8
M  V30 8 1 8 9
M  V30 9 1 9 10
M  V30 10 1 10 11
M  V30 11 2 11 12
M  V30 12 1 11 13
M  V30 13 2 13 14
M  V30 14 1 14 15
M  V30 15 1 15 16
M  V30 16 2 16 17
M  V30 17 1 17 18
M  V30 18 2 18 19
M  V30 19 1 19 20
M  V30 20 1 20 21
M  V30 21 2 20 22
M  V30 22 2 15 23
M  V30 23 1 23 24
M  V30 24 1 3 25
M  V30 25 2 25 26
M  V30 26 1 26 27
M  V30 27 2 27 28
M  V30 28 1 28 29
M  V30 29 2 29 30
M  V30 30 1 24 8
M  V30 31 1 30 25
M  V30 32 1 24 13
M  V30 33 1 22 16
M  V30 34 1 1 31
M  V30 35 1 1 32
M  V30 36 1 2 33
M  V30 37 1 2 34
M  V30 38 1 3 35 CFG=3
M  V30 39 1 4 36
M  V30 40 1 7 37
M  V30 41 1 7 38
M  V30 42 1 8 39 CFG=3
M  V30 43 1 9 40
M  V30 44 1 9 41
M  V30 45 1 10 42
M  V30 46 1 14 43
M  V30 47 1 17 44
M  V30 48 1 18 45
M  V30 49 1 22 46
M  V30 50 1 23 47
M  V30 51 1 26 48
M  V30 52 1 27 49
M  V30 53 1 28 50
M  V30 54 1 29 51
M  V30 55 1 30 52
M  V30 END BOND
M  V30 END CTAB
M  END
>  <Dataset>  (958) 
ChEMBL_Kinases

>  <Ligand_Instance>  (958) 
nan

>  <PDB_ID>  (958) 
nan

>  <Standardized_SMILES>  (958) 
NC[C@@H](NC(=O)C[C@H]1CNC(=O)c2cc(-c3ccnc(F)c3)cn21)c1ccccc1

>  <Name>  (958) 
nan

>  <Pocket>  (958) 
nan

>  <ATP_Site>  (958) 
nan

>  <Peripheral>  (958) 
nan

>  <Num_H_Atoms_ProtBoundConf>  (958) 
nan

>  <Num_Resolved_Atoms>  (958) 
nan

>  <Num_Not_Resolved_Atoms>  (958) 
nan

$$$$
CHEMBL3298890
     RDKit          3D

  0  0  0  0  0  0  0  0  0  0999 V3000
M  V30 BEGIN CTAB
M  V30 COUNTS 52 55 0 0 0
M  V30 BEGIN ATOM
M  V30 1 N 0.579141 -3.152931 1.934100 0
M  V30 2 C 0.683100 -4.074503 0.805081 0
M  V30 3 C -0.096432 -3.439846 -0.335468 0 CFG=1
M  V30 4 N 0.489326 -2.154934 -0.653252 0
M  V30 5 C -0.049638 -0.846787 -0.470538 0
M  V30 6 O -1.173377 -1.030210 0.040462 0
M  V30 7 C 0.977303 0.100169 -0.972532 0
M  V30 8 C 0.539184 1.541863 -0.815431 0 CFG=2
M  V30 9 C 1.614887 2.441205 -1.347028 0
M  V30 10 N 2.825380 2.405547 -0.560430 0
M  V30 11 C 2.588176 2.715671 0.827640 0
M  V30 12 O 3.474498 3.223149 1.574942 0
M  V30 13 C 1.237129 2.407510 1.346952 0
M  V30 14 C 0.794545 2.639249 2.641559 0
M  V30 15 C -0.518624 2.215744 2.665732 0
M  V30 16 C -1.389208 2.270602 3.836268 0
M  V30 17 C -0.865666 2.125091 5.112307 0
M  V30 18 C -1.641402 2.169464 6.228224 0
M  V30 19 N -2.964196 2.360017 6.114281 0
M  V30 20 C -3.497476 2.505194 4.869024 0
M  V30 21 F -4.843971 2.694174 4.838875 0
M  V30 22 C -2.732923 2.464409 3.717278 0
M  V30 23 C -0.789675 1.759209 1.403575 0
M  V30 24 N 0.261431 1.861389 0.572983 0
M  V30 25 C -0.263745 -4.336418 -1.483231 0
M  V30 26 C 0.740858 -4.526309 -2.408615 0
M  V30 27 C 0.553810 -5.386604 -3.496941 0
M  V30 28 C -0.642316 -6.033843 -3.624111 0
M  V30 29 C -1.661129 -5.875467 -2.733868 0
M  V30 30 C -1.462130 -5.025990 -1.668813 0
M  V30 31 H 0.996582 -2.230095 1.693963 0
M  V30 32 H 1.069090 -3.559278 2.781640 0
M  V30 33 H 1.740397 -4.233081 0.598646 0
M  V30 34 H 0.194811 -5.010076 1.111902 0
M  V30 35 H -1.106361 -3.230136 0.106745 0
M  V30 36 H 1.410309 -2.511377 -1.046847 0
M  V30 37 H 1.869757 -0.003169 -0.306640 0
M  V30 38 H 1.249984 -0.119350 -2.023338 0
M  V30 39 H -0.392164 1.671551 -1.391375 0
M  V30 40 H 1.873131 2.123046 -2.374901 0
M  V30 41 H 1.258565 3.485902 -1.396248 0
M  V30 42 H 3.809647 2.196368 -0.839375 0
M  V30 43 H 1.326473 3.055966 3.475926 0
M  V30 44 H 0.205766 1.968506 5.247348 0
M  V30 45 H -1.229570 2.055963 7.211364 0
M  V30 46 H -3.221989 2.586892 2.763688 0
M  V30 47 H -1.760330 1.376269 1.164032 0
M  V30 48 H 1.683375 -4.046553 -2.349440 0
M  V30 49 H 1.309909 -5.568684 -4.247716 0
M  V30 50 H -0.817266 -6.706511 -4.456431 0
M  V30 51 H -2.626444 -6.354446 -2.776535 0
M  V30 52 H -2.246194 -4.860061 -0.921745 0
M  V30 END ATOM
M  V30 BEGIN BOND
M  V30 1 1 1 2
M  V30 2 1 2 3
M  V30 3 1 3 4
M  V30 4 1 4 5
M  V30 5 2 5 6
M  V30 6 1 5 7
M  V30 7 1 7 8
M  V30 8 1 8 9
M  V30 9 1 9 10
M  V30 10 1 10 11
M  V30 11 2 11 12
M  V30 12 1 11 13
M  V30 13 2 13 14
M  V30 14 1 14 15
M  V30 15 1 15 16
M  V30 16 2 16 17
M  V30 17 1 17 18
M  V30 18 2 18 19
M  V30 19 1 19 20
M  V30 20 1 20 21
M  V30 21 2 20 22
M  V30 22 2 15 23
M  V30 23 1 23 24
M  V30 24 1 3 25
M  V30 25 2 25 26
M  V30 26 1 26 27
M  V30 27 2 27 28
M  V30 28 1 28 29
M  V30 29 2 29 30
M  V30 30 1 24 8
M  V30 31 1 30 25
M  V30 32 1 24 13
M  V30 33 1 22 16
M  V30 34 1 1 31
M  V30 35 1 1 32
M  V30 36 1 2 33
M  V30 37 1 2 34
M  V30 38 1 3 35 CFG=1
M  V30 39 1 4 36
M  V30 40 1 7 37
M  V30 41 1 7 38
M  V30 42 1 8 39 CFG=3
M  V30 43 1 9 40
M  V30 44 1 9 41
M  V30 45 1 10 42
M  V30 46 1 14 43
M  V30 47 1 17 44
M  V30 48 1 18 45
M  V30 49 1 22 46
M  V30 50 1 23 47
M  V30 51 1 26 48
M  V30 52 1 27 49
M  V30 53 1 28 50
M  V30 54 1 29 51
M  V30 55 1 30 52
M  V30 END BOND
M  V30 END CTAB
M  END
>  <Dataset>  (959) 
ChEMBL_Kinases

>  <Ligand_Instance>  (959) 
nan

>  <PDB_ID>  (959) 
nan

>  <Standardized_SMILES>  (959) 
NC[C@@H](NC(=O)C[C@@H]1CNC(=O)c2cc(-c3ccnc(F)c3)cn21)c1ccccc1

>  <Name>  (959) 
nan

>  <Pocket>  (959) 
nan

>  <ATP_Site>  (959) 
nan

>  <Peripheral>  (959) 
nan

>  <Num_H_Atoms_ProtBoundConf>  (959) 
nan

>  <Num_Resolved_Atoms>  (959) 
nan

>  <Num_Not_Resolved_Atoms>  (959) 
nan

$$$$
CHEMBL3298891
     RDKit          3D

  0  0  0  0  0  0  0  0  0  0999 V3000
M  V30 BEGIN CTAB
M  V30 COUNTS 53 56 0 0 0
M  V30 BEGIN ATOM
M  V30 1 N -3.556401 -1.248427 3.925160 0
M  V30 2 C -2.464353 -2.154785 4.223183 0
M  V30 3 C -1.430181 -2.144159 3.121028 0 CFG=1
M  V30 4 N -0.855670 -0.837289 2.924064 0
M  V30 5 C -0.968463 -0.032499 1.762952 0
M  V30 6 O -1.661034 -0.641326 0.907470 0
M  V30 7 C -0.230589 1.237497 1.972164 0
M  V30 8 C -0.266708 2.185381 0.828063 0 CFG=1
M  V30 9 C 0.549770 3.415069 1.257065 0
M  V30 10 N 1.966906 3.056309 1.347791 0
M  V30 11 C 2.512456 2.544749 0.113703 0
M  V30 12 O 3.722880 2.686663 -0.219114 0
M  V30 13 C 1.572019 1.825983 -0.773663 0
M  V30 14 C 1.771053 1.220906 -2.020302 0
M  V30 15 C 0.538833 0.692932 -2.408225 0
M  V30 16 C 0.281456 -0.032042 -3.653942 0
M  V30 17 C -0.982964 0.057367 -4.245395 0
M  V30 18 C -1.303755 -0.606466 -5.433499 0
M  V30 19 C -0.342591 -1.379688 -6.050195 0
M  V30 20 C 0.887877 -1.448508 -5.447130 0
M  V30 21 F 1.806664 -2.230929 -6.102562 0
M  V30 22 C 1.225279 -0.802083 -4.275825 0
M  V30 23 C -0.353881 0.999160 -1.382982 0
M  V30 24 N 0.280191 1.680309 -0.406447 0
M  V30 25 C -0.446002 -3.208447 3.372467 0
M  V30 26 C 0.580647 -2.972364 4.256376 0
M  V30 27 C 1.543642 -3.934950 4.538695 0
M  V30 28 C 1.495907 -5.175759 3.929723 0
M  V30 29 C 0.474232 -5.433781 3.039496 0
M  V30 30 C -0.490779 -4.461830 2.759946 0
M  V30 31 H -4.207111 -1.123984 4.704776 0
M  V30 32 H -4.092909 -1.575731 3.076517 0
M  V30 33 H -2.029385 -1.856178 5.183535 0
M  V30 34 H -2.893101 -3.176947 4.268684 0
M  V30 35 H -1.977970 -2.408837 2.190352 0
M  V30 36 H -0.361711 -0.659691 3.823917 0
M  V30 37 H 0.810234 1.053153 2.264356 0
M  V30 38 H -0.719872 1.739482 2.831804 0
M  V30 39 H -1.295674 2.620117 0.676273 0
M  V30 40 H 0.393077 4.169736 0.460004 0
M  V30 41 H 0.159308 3.829868 2.190030 0
M  V30 42 H 2.650205 3.109121 2.159161 0
M  V30 43 H 2.692243 1.165234 -2.584797 0
M  V30 44 H -1.713431 0.677642 -3.727291 0
M  V30 45 H -2.334711 -0.447025 -5.785239 0
M  V30 46 H -0.637011 -1.864106 -6.951852 0
M  V30 47 H 2.196638 -0.882393 -3.838778 0
M  V30 48 H -1.386431 0.674812 -1.485305 0
M  V30 49 H 0.743510 -2.072402 4.794714 0
M  V30 50 H 2.376767 -3.809512 5.225363 0
M  V30 51 H 2.211788 -5.961521 4.107123 0
M  V30 52 H 0.423960 -6.403586 2.553940 0
M  V30 53 H -1.278790 -4.668228 2.070254 0
M  V30 END ATOM
M  V30 BEGIN BOND
M  V30 1 1 1 2
M  V30 2 1 2 3
M  V30 3 1 3 4
M  V30 4 1 4 5
M  V30 5 2 5 6
M  V30 6 1 5 7
M  V30 7 1 7 8
M  V30 8 1 8 9
M  V30 9 1 9 10
M  V30 10 1 10 11
M  V30 11 2 11 12
M  V30 12 1 11 13
M  V30 13 2 13 14
M  V30 14 1 14 15
M  V30 15 1 15 16
M  V30 16 2 16 17
M  V30 17 1 17 18
M  V30 18 2 18 19
M  V30 19 1 19 20
M  V30 20 1 20 21
M  V30 21 2 20 22
M  V30 22 2 15 23
M  V30 23 1 23 24
M  V30 24 1 3 25
M  V30 25 2 25 26
M  V30 26 1 26 27
M  V30 27 2 27 28
M  V30 28 1 28 29
M  V30 29 2 29 30
M  V30 30 1 24 8
M  V30 31 1 30 25
M  V30 32 1 24 13
M  V30 33 1 22 16
M  V30 34 1 1 31
M  V30 35 1 1 32
M  V30 36 1 2 33
M  V30 37 1 2 34
M  V30 38 1 3 35 CFG=3
M  V30 39 1 4 36
M  V30 40 1 7 37
M  V30 41 1 7 38
M  V30 42 1 8 39 CFG=3
M  V30 43 1 9 40
M  V30 44 1 9 41
M  V30 45 1 10 42
M  V30 46 1 14 43
M  V30 47 1 17 44
M  V30 48 1 18 45
M  V30 49 1 19 46
M  V30 50 1 22 47
M  V30 51 1 23 48
M  V30 52 1 26 49
M  V30 53 1 27 50
M  V30 54 1 28 51
M  V30 55 1 29 52
M  V30 56 1 30 53
M  V30 END BOND
M  V30 END CTAB
M  END
>  <Dataset>  (960) 
ChEMBL_Kinases

>  <Ligand_Instance>  (960) 
nan

>  <PDB_ID>  (960) 
nan

>  <Standardized_SMILES>  (960) 
NC[C@@H](NC(=O)C[C@H]1CNC(=O)c2cc(-c3cccc(F)c3)cn21)c1ccccc1

>  <Name>  (960) 
nan

>  <Pocket>  (960) 
nan

>  <ATP_Site>  (960) 
nan

>  <Peripheral>  (960) 
nan

>  <Num_H_Atoms_ProtBoundConf>  (960) 
nan

>  <Num_Resolved_Atoms>  (960) 
nan

>  <Num_Not_Resolved_Atoms>  (960) 
nan

$$$$
CHEMBL3675432
     RDKit          3D

  0  0  0  0  0  0  0  0  0  0999 V3000
M  V30 BEGIN CTAB
M  V30 COUNTS 55 58 0 0 0
M  V30 BEGIN ATOM
M  V30 1 C 2.229944 -2.902885 3.992052 0
M  V30 2 C 0.999676 -2.486110 3.218522 0 CFG=1
M  V30 3 N 0.772417 -1.051623 3.322456 0
M  V30 4 C 1.815100 -0.186033 2.842563 0
M  V30 5 N 2.944477 -0.693523 2.325491 0
M  V30 6 C 3.954625 0.050392 1.861705 0
M  V30 7 N 3.886736 1.408366 1.891323 0
M  V30 8 C 2.777012 1.991260 2.399287 0
M  V30 9 C 2.687057 3.371521 2.439271 0
M  V30 10 C 3.760581 4.243589 1.946056 0
M  V30 11 N 4.903045 3.625777 1.426746 0
M  V30 12 O 3.658356 5.495246 1.988326 0
M  V30 13 C 1.548581 3.931807 2.960793 0
M  V30 14 C 0.504471 3.170341 3.440257 0
M  V30 15 C 0.638357 1.799192 3.380004 0
M  V30 16 C 1.761749 1.190569 2.865423 0
M  V30 17 C 1.060176 -2.898303 1.802036 0
M  V30 18 C 1.960982 -3.765162 1.205995 0
M  V30 19 C 1.914611 -4.067396 -0.130366 0
M  V30 20 C 0.925584 -3.478162 -0.905191 0
M  V30 21 C 0.016375 -2.611253 -0.334923 0
M  V30 22 N -0.985743 -2.020499 -1.152711 0
M  V30 23 C -2.265797 -2.577980 -1.385724 0
M  V30 24 O -2.357284 -3.681482 -0.744851 0
M  V30 25 C -3.319526 -2.022560 -2.204455 0
M  V30 26 C -4.486837 -2.797222 -2.238857 0
M  V30 27 C -5.581316 -2.398803 -2.976264 0
M  V30 28 C -5.581666 -1.230434 -3.708952 0
M  V30 29 C -6.732047 -0.752605 -4.520382 0
M  V30 30 F -7.043604 0.510935 -3.994767 0
M  V30 31 F -6.332234 -0.559333 -5.826734 0
M  V30 32 F -7.823890 -1.569412 -4.396386 0
M  V30 33 C -4.437468 -0.461922 -3.681037 0
M  V30 34 C -3.355696 -0.878324 -2.938003 0
M  V30 35 F -2.251059 -0.135693 -2.912118 0
M  V30 36 C 0.067473 -2.307957 1.020915 0
M  V30 37 H 2.189109 -3.910134 4.404074 0
M  V30 38 H 2.449484 -2.200885 4.834081 0
M  V30 39 H 3.152566 -2.865731 3.355707 0
M  V30 40 H 0.148599 -3.012834 3.684191 0
M  V30 41 H -0.115186 -0.730616 3.730025 0
M  V30 42 H 4.846683 -0.390861 1.453714 0
M  V30 43 H 5.750434 3.171153 1.072932 0
M  V30 44 H 4.842576 3.535822 0.386378 0
M  V30 45 H 1.538964 5.002734 2.964542 0
M  V30 46 H -0.364935 3.687502 3.838400 0
M  V30 47 H -0.199298 1.248562 3.764473 0
M  V30 48 H 2.693292 -4.179216 1.870098 0
M  V30 49 H 2.678840 -4.760433 -0.468592 0
M  V30 50 H 0.933168 -3.751559 -1.960458 0
M  V30 51 H -0.737759 -1.120579 -1.596755 0
M  V30 52 H -4.584458 -3.743704 -1.688961 0
M  V30 53 H -6.468503 -3.015878 -2.984249 0
M  V30 54 H -4.354360 0.456146 -4.219800 0
M  V30 55 H -0.687351 -1.614742 1.389947 0
M  V30 END ATOM
M  V30 BEGIN BOND
M  V30 1 1 1 2
M  V30 2 1 2 3
M  V30 3 1 3 4
M  V30 4 2 4 5
M  V30 5 1 5 6
M  V30 6 2 6 7
M  V30 7 1 7 8
M  V30 8 2 8 9
M  V30 9 1 9 10
M  V30 10 1 10 11
M  V30 11 2 10 12
M  V30 12 1 9 13
M  V30 13 2 13 14
M  V30 14 1 14 15
M  V30 15 2 15 16
M  V30 16 1 2 17
M  V30 17 2 17 18
M  V30 18 1 18 19
M  V30 19 2 19 20
M  V30 20 1 20 21
M  V30 21 1 21 22
M  V30 22 1 22 23
M  V30 23 2 23 24
M  V30 24 1 23 25
M  V30 25 2 25 26
M  V30 26 1 26 27
M  V30 27 2 27 28
M  V30 28 1 28 29
M  V30 29 1 29 30
M  V30 30 1 29 31
M  V30 31 1 29 32
M  V30 32 1 28 33
M  V30 33 2 33 34
M  V30 34 1 34 35
M  V30 35 2 21 36
M  V30 36 1 16 4
M  V30 37 1 36 17
M  V30 38 1 16 8
M  V30 39 1 34 25
M  V30 40 1 1 37
M  V30 41 1 1 38
M  V30 42 1 1 39
M  V30 43 1 2 40 CFG=1
M  V30 44 1 3 41
M  V30 45 1 6 42
M  V30 46 1 11 43
M  V30 47 1 11 44
M  V30 48 1 13 45
M  V30 49 1 14 46
M  V30 50 1 15 47
M  V30 51 1 18 48
M  V30 52 1 19 49
M  V30 53 1 20 50
M  V30 54 1 22 51
M  V30 55 1 26 52
M  V30 56 1 27 53
M  V30 57 1 33 54
M  V30 58 1 36 55
M  V30 END BOND
M  V30 END CTAB
M  END
>  <Dataset>  (961) 
ChEMBL_Kinases

>  <Ligand_Instance>  (961) 
nan

>  <PDB_ID>  (961) 
nan

>  <Standardized_SMILES>  (961) 
C[C@@H](Nc1ncnc2c(C(N)=O)cccc12)c1cccc(NC(=O)c2ccc(C(F)(F)F)cc2F)c1

>  <Name>  (961) 
nan

>  <Pocket>  (961) 
nan

>  <ATP_Site>  (961) 
nan

>  <Peripheral>  (961) 
nan

>  <Num_H_Atoms_ProtBoundConf>  (961) 
nan

>  <Num_Resolved_Atoms>  (961) 
nan

>  <Num_Not_Resolved_Atoms>  (961) 
nan

$$$$
CHEMBL3675435
     RDKit          3D

  0  0  0  0  0  0  0  0  0  0999 V3000
M  V30 BEGIN CTAB
M  V30 COUNTS 48 50 0 0 0
M  V30 BEGIN ATOM
M  V30 1 C -1.399377 -3.743122 4.547911 0
M  V30 2 C -1.946168 -3.078607 3.261200 0
M  V30 3 N -2.069807 -1.708058 3.558188 0
M  V30 4 C -2.600278 -0.804463 2.630011 0
M  V30 5 C -1.856777 -0.464396 1.398098 0 CFG=1
M  V30 6 N -0.550030 0.109583 1.572965 0
M  V30 7 C 0.220506 0.446000 0.427624 0
M  V30 8 N -0.253335 0.231213 -0.790805 0
M  V30 9 C 0.447100 0.533575 -1.901193 0
M  V30 10 N 1.688424 1.080028 -1.823425 0
M  V30 11 C 2.200523 1.311702 -0.605654 0
M  V30 12 C 1.477119 0.999426 0.525574 0
M  V30 13 C 2.028505 1.248901 1.681992 0
M  V30 14 C 3.374260 1.842795 1.991791 0
M  V30 15 C 4.165631 2.181954 0.776704 0
M  V30 16 C 3.393015 1.835963 -0.431961 0
M  V30 17 C 4.152180 2.161505 -1.615355 0
M  V30 18 N 3.577534 1.901619 -2.912281 0
M  V30 19 O 5.272846 2.651714 -1.808664 0
M  V30 20 C -2.007280 -1.448772 0.346969 0
M  V30 21 C -3.207458 -1.526832 -0.374916 0
M  V30 22 C -3.466410 -2.394059 -1.410435 0
M  V30 23 C -2.483063 -3.268743 -1.790285 0
M  V30 24 C -1.262533 -3.279956 -1.149887 0
M  V30 25 F -0.258987 -4.124706 -1.488647 0
M  V30 26 C -1.105046 -2.372471 -0.126718 0
M  V30 27 H -1.509403 -4.841803 4.498078 0
M  V30 28 H -0.329294 -3.474117 4.610466 0
M  V30 29 H -1.932629 -3.254179 5.374812 0
M  V30 30 H -2.906175 -3.607858 3.076269 0
M  V30 31 H -1.270957 -3.379529 2.463522 0
M  V30 32 H -2.573899 -1.606542 4.466097 0
M  V30 33 H -3.640712 -1.189723 2.359157 0
M  V30 34 H -2.876480 0.136125 3.221574 0
M  V30 35 H -2.468225 0.452272 0.981482 0
M  V30 36 H -0.312261 0.215630 2.579521 0
M  V30 37 H 0.015991 0.338369 -2.884854 0
M  V30 38 H 1.514609 1.027733 2.592612 0
M  V30 39 H 3.950795 1.134724 2.625581 0
M  V30 40 H 3.177105 2.748376 2.580263 0
M  V30 41 H 5.152502 1.648630 0.788740 0
M  V30 42 H 4.348241 3.292102 0.771314 0
M  V30 43 H 2.966156 2.760586 -2.991693 0
M  V30 44 H 3.180900 1.676980 -3.859367 0
M  V30 45 H -4.038206 -0.849939 -0.117071 0
M  V30 46 H -4.420718 -2.389771 -1.916091 0
M  V30 47 H -2.675933 -3.953795 -2.602114 0
M  V30 48 H -0.138477 -2.373274 0.387624 0
M  V30 END ATOM
M  V30 BEGIN BOND
M  V30 1 1 1 2
M  V30 2 1 2 3
M  V30 3 1 3 4
M  V30 4 1 4 5
M  V30 5 1 5 6
M  V30 6 1 6 7
M  V30 7 2 7 8
M  V30 8 1 8 9
M  V30 9 2 9 10
M  V30 10 1 10 11
M  V30 11 1 11 12
M  V30 12 2 12 13
M  V30 13 1 13 14
M  V30 14 1 14 15
M  V30 15 1 15 16
M  V30 16 1 16 17
M  V30 17 1 17 18
M  V30 18 2 17 19
M  V30 19 1 5 20
M  V30 20 2 20 21
M  V30 21 1 21 22
M  V30 22 2 22 23
M  V30 23 1 23 24
M  V30 24 1 24 25
M  V30 25 2 24 26
M  V30 26 1 12 7
M  V30 27 1 26 20
M  V30 28 2 16 11
M  V30 29 1 1 27
M  V30 30 1 1 28
M  V30 31 1 1 29
M  V30 32 1 2 30
M  V30 33 1 2 31
M  V30 34 1 3 32
M  V30 35 1 4 33
M  V30 36 1 4 34
M  V30 37 1 5 35 CFG=3
M  V30 38 1 6 36
M  V30 39 1 9 37
M  V30 40 1 13 38
M  V30 41 1 14 39
M  V30 42 1 14 40
M  V30 43 1 15 41
M  V30 44 1 15 42
M  V30 45 1 18 43
M  V30 46 1 18 44
M  V30 47 1 21 45
M  V30 48 1 22 46
M  V30 49 1 23 47
M  V30 50 1 26 48
M  V30 END BOND
M  V30 END CTAB
M  END
>  <Dataset>  (962) 
ChEMBL_Kinases

>  <Ligand_Instance>  (962) 
nan

>  <PDB_ID>  (962) 
nan

>  <Standardized_SMILES>  (962) 
CCNC[C@@H](Nc1ncnc2c1=CCCC=2C(N)=O)c1cccc(F)c1

>  <Name>  (962) 
nan

>  <Pocket>  (962) 
nan

>  <ATP_Site>  (962) 
nan

>  <Peripheral>  (962) 
nan

>  <Num_H_Atoms_ProtBoundConf>  (962) 
nan

>  <Num_Resolved_Atoms>  (962) 
nan

>  <Num_Not_Resolved_Atoms>  (962) 
nan

$$$$
CHEMBL3298893
     RDKit          3D

  0  0  0  0  0  0  0  0  0  0999 V3000
M  V30 BEGIN CTAB
M  V30 COUNTS 52 55 0 0 0
M  V30 BEGIN ATOM
M  V30 1 O 0.863518 -2.315409 2.836631 0
M  V30 2 C 0.808544 -2.067302 1.613937 0
M  V30 3 C 0.880976 -0.774490 0.893515 0
M  V30 4 C 1.021698 0.308142 1.962676 0 CFG=1
M  V30 5 C 2.235238 0.134580 2.789680 0
M  V30 6 N 3.238987 1.110125 2.445397 0
M  V30 7 C 3.122410 2.365333 1.793895 0
M  V30 8 O 4.040127 3.219304 1.741564 0
M  V30 9 C 1.834568 2.622626 1.164118 0
M  V30 10 C 1.277524 3.646619 0.447705 0
M  V30 11 C -0.003906 3.244033 0.137257 0
M  V30 12 C -0.886084 4.108686 -0.632825 0
M  V30 13 C -0.363764 4.974229 -1.598904 0
M  V30 14 C -1.148881 5.820285 -2.367777 0
M  V30 15 C -2.496176 5.734874 -2.096351 0
M  V30 16 C -3.115361 4.923619 -1.173141 0
M  V30 17 F -4.450326 4.959124 -1.028827 0
M  V30 18 C -2.257905 4.102040 -0.439838 0
M  V30 19 C -0.163758 1.997234 0.679081 0
M  V30 20 N 0.978902 1.600112 1.322592 0
M  V30 21 N 0.648411 -3.235410 0.789529 0
M  V30 22 C 0.567558 -4.526815 1.409966 0 CFG=2
M  V30 23 C 1.670229 -5.463339 0.966481 0
M  V30 24 O 1.433444 -6.655793 1.667857 0
M  V30 25 C -0.703736 -5.167914 0.964034 0
M  V30 26 C -1.594130 -5.788263 1.813943 0
M  V30 27 C -2.757286 -6.375921 1.376640 0
M  V30 28 C -3.003413 -6.318480 0.018673 0
M  V30 29 C -2.160363 -5.712425 -0.917893 0
M  V30 30 C -0.996452 -5.137340 -0.388498 0
M  V30 31 H -0.021934 -0.555172 0.298456 0
M  V30 32 H 1.737701 -0.707008 0.212999 0
M  V30 33 H 0.136446 0.239015 2.670727 0
M  V30 34 H 1.982374 0.209849 3.880503 0
M  V30 35 H 2.673428 -0.871548 2.564289 0
M  V30 36 H 4.234765 0.858073 2.722468 0
M  V30 37 H 1.840923 4.543966 0.234381 0
M  V30 38 H 0.725154 4.958292 -1.730040 0
M  V30 39 H -0.746856 6.477750 -3.103023 0
M  V30 40 H -3.142659 6.398127 -2.694217 0
M  V30 41 H -2.719745 3.441581 0.305413 0
M  V30 42 H -1.148878 1.543905 0.510059 0
M  V30 43 H 0.591439 -3.156597 -0.247943 0
M  V30 44 H 0.637964 -4.486537 2.512302 0
M  V30 45 H 2.676152 -5.117033 1.268044 0
M  V30 46 H 1.594063 -5.727181 -0.117030 0
M  V30 47 H 1.334855 -7.442445 1.112326 0
M  V30 48 H -1.372611 -5.815862 2.873455 0
M  V30 49 H -3.470262 -6.866960 2.020286 0
M  V30 50 H -3.915765 -6.772981 -0.363802 0
M  V30 51 H -2.397905 -5.695311 -1.972001 0
M  V30 52 H -0.384901 -4.684528 -1.165082 0
M  V30 END ATOM
M  V30 BEGIN BOND
M  V30 1 2 1 2
M  V30 2 1 2 3
M  V30 3 1 3 4
M  V30 4 1 4 5
M  V30 5 1 5 6
M  V30 6 1 6 7
M  V30 7 2 7 8
M  V30 8 1 7 9
M  V30 9 2 9 10
M  V30 10 1 10 11
M  V30 11 1 11 12
M  V30 12 2 12 13
M  V30 13 1 13 14
M  V30 14 2 14 15
M  V30 15 1 15 16
M  V30 16 1 16 17
M  V30 17 2 16 18
M  V30 18 2 11 19
M  V30 19 1 19 20
M  V30 20 1 2 21
M  V30 21 1 21 22
M  V30 22 1 22 23
M  V30 23 1 23 24
M  V30 24 1 22 25
M  V30 25 2 25 26
M  V30 26 1 26 27
M  V30 27 2 27 28
M  V30 28 1 28 29
M  V30 29 2 29 30
M  V30 30 1 20 4
M  V30 31 1 30 25
M  V30 32 1 20 9
M  V30 33 1 18 12
M  V30 34 1 3 31
M  V30 35 1 3 32
M  V30 36 1 4 33 CFG=1
M  V30 37 1 5 34
M  V30 38 1 5 35
M  V30 39 1 6 36
M  V30 40 1 10 37
M  V30 41 1 13 38
M  V30 42 1 14 39
M  V30 43 1 15 40
M  V30 44 1 18 41
M  V30 45 1 19 42
M  V30 46 1 21 43
M  V30 47 1 22 44 CFG=1
M  V30 48 1 23 45
M  V30 49 1 23 46
M  V30 50 1 24 47
M  V30 51 1 26 48
M  V30 52 1 27 49
M  V30 53 1 28 50
M  V30 54 1 29 51
M  V30 55 1 30 52
M  V30 END BOND
M  V30 END CTAB
M  END
>  <Dataset>  (963) 
ChEMBL_Kinases

>  <Ligand_Instance>  (963) 
nan

>  <PDB_ID>  (963) 
nan

>  <Standardized_SMILES>  (963) 
O=C(C[C@H]1CNC(=O)c2cc(-c3cccc(F)c3)cn21)N[C@H](CO)c1ccccc1

>  <Name>  (963) 
nan

>  <Pocket>  (963) 
nan

>  <ATP_Site>  (963) 
nan

>  <Peripheral>  (963) 
nan

>  <Num_H_Atoms_ProtBoundConf>  (963) 
nan

>  <Num_Resolved_Atoms>  (963) 
nan

>  <Num_Not_Resolved_Atoms>  (963) 
nan

$$$$
CHEMBL3675434
     RDKit          3D

  0  0  0  0  0  0  0  0  0  0999 V3000
M  V30 BEGIN CTAB
M  V30 COUNTS 50 52 0 0 0
M  V30 BEGIN ATOM
M  V30 1 C 2.720021 -4.036692 1.442289 0
M  V30 2 O 3.500736 -3.495364 0.399043 0
M  V30 3 C 3.133893 -2.396294 -0.344879 0
M  V30 4 C 3.981257 -1.956187 -1.340148 0
M  V30 5 C 3.578308 -0.856880 -2.057782 0
M  V30 6 C 4.401704 -0.323591 -3.120546 0
M  V30 7 N 4.054310 0.816703 -3.896265 0
M  V30 8 O 5.465510 -0.461865 -3.751714 0
M  V30 9 C 2.399488 -0.209437 -1.819758 0
M  V30 10 N 2.037658 0.854933 -2.530644 0
M  V30 11 C 0.909039 1.525325 -2.345317 0
M  V30 12 N 0.074949 1.117358 -1.389248 0
M  V30 13 C 0.337234 0.059966 -0.615097 0
M  V30 14 N -0.439071 -0.498008 0.415340 0
M  V30 15 C -1.223670 -1.061772 1.456635 0 CFG=2
M  V30 16 C -2.608831 -1.498656 1.079120 0
M  V30 17 N -3.413399 -0.465549 0.556758 0
M  V30 18 C -4.692153 -1.025024 0.035215 0
M  V30 19 C -3.693577 0.687342 1.333670 0
M  V30 20 C -1.148561 -0.382852 2.766925 0
M  V30 21 C -1.971436 -0.228148 3.862236 0
M  V30 22 C -1.646081 0.493233 4.986734 0
M  V30 23 C -0.405800 1.120485 5.049882 0
M  V30 24 C 0.468680 1.005206 3.985651 0
M  V30 25 F 1.634743 1.646070 4.151093 0
M  V30 26 C 0.093071 0.271177 2.883268 0
M  V30 27 C 1.534702 -0.623906 -0.836272 0
M  V30 28 C 1.955911 -1.727093 -0.127574 0
M  V30 29 H 2.410395 -3.264525 2.176339 0
M  V30 30 H 3.347870 -4.826960 1.935998 0
M  V30 31 H 1.844695 -4.531256 0.992658 0
M  V30 32 H 4.928877 -2.409984 -1.591798 0
M  V30 33 H 3.576578 1.016352 -4.805287 0
M  V30 34 H 4.254878 1.810786 -3.638859 0
M  V30 35 H 0.594650 2.394270 -2.912014 0
M  V30 36 H -1.218803 0.168991 0.406451 0
M  V30 37 H -0.706210 -2.100037 1.676516 0
M  V30 38 H -3.097504 -1.945322 1.980148 0
M  V30 39 H -2.558912 -2.369214 0.356776 0
M  V30 40 H -5.003320 -0.368179 -0.774882 0
M  V30 41 H -5.420342 -1.193429 0.827947 0
M  V30 42 H -4.412306 -2.007201 -0.396832 0
M  V30 43 H -4.271370 0.490232 2.261987 0
M  V30 44 H -2.789987 1.233913 1.603829 0
M  V30 45 H -4.312622 1.397252 0.709317 0
M  V30 46 H -2.856221 -0.792265 3.621654 0
M  V30 47 H -2.435082 0.486569 5.727014 0
M  V30 48 H -0.274476 1.656000 5.989635 0
M  V30 49 H 0.904121 0.286061 2.137517 0
M  V30 50 H 1.357979 -2.123970 0.656538 0
M  V30 END ATOM
M  V30 BEGIN BOND
M  V30 1 1 1 2
M  V30 2 1 2 3
M  V30 3 2 3 4
M  V30 4 1 4 5
M  V30 5 1 5 6
M  V30 6 1 6 7
M  V30 7 2 6 8
M  V30 8 2 5 9
M  V30 9 1 9 10
M  V30 10 2 10 11
M  V30 11 1 11 12
M  V30 12 2 12 13
M  V30 13 1 13 14
M  V30 14 1 14 15
M  V30 15 1 15 16
M  V30 16 1 16 17
M  V30 17 1 17 18
M  V30 18 1 17 19
M  V30 19 1 15 20
M  V30 20 2 20 21
M  V30 21 1 21 22
M  V30 22 2 22 23
M  V30 23 1 23 24
M  V30 24 1 24 25
M  V30 25 2 24 26
M  V30 26 1 13 27
M  V30 27 2 27 28
M  V30 28 1 28 3
M  V30 29 1 27 9
M  V30 30 1 26 20
M  V30 31 1 1 29
M  V30 32 1 1 30
M  V30 33 1 1 31
M  V30 34 1 4 32
M  V30 35 1 7 33
M  V30 36 1 7 34
M  V30 37 1 11 35
M  V30 38 1 14 36
M  V30 39 1 15 37 CFG=1
M  V30 40 1 16 38
M  V30 41 1 16 39
M  V30 42 1 18 40
M  V30 43 1 18 41
M  V30 44 1 18 42
M  V30 45 1 19 43
M  V30 46 1 19 44
M  V30 47 1 19 45
M  V30 48 1 21 46
M  V30 49 1 22 47
M  V30 50 1 23 48
M  V30 51 1 26 49
M  V30 52 1 28 50
M  V30 END BOND
M  V30 END CTAB
M  END
>  <Dataset>  (964) 
ChEMBL_Kinases

>  <Ligand_Instance>  (964) 
nan

>  <PDB_ID>  (964) 
nan

>  <Standardized_SMILES>  (964) 
COc1cc(C(N)=O)c2ncnc(N[C@H](CN(C)C)c3cccc(F)c3)c2c1

>  <Name>  (964) 
nan

>  <Pocket>  (964) 
nan

>  <ATP_Site>  (964) 
nan

>  <Peripheral>  (964) 
nan

>  <Num_H_Atoms_ProtBoundConf>  (964) 
nan

>  <Num_Resolved_Atoms>  (964) 
nan

>  <Num_Not_Resolved_Atoms>  (964) 
nan

$$$$
CHEMBL4206957
     RDKit          3D

  0  0  0  0  0  0  0  0  0  0999 V3000
M  V30 BEGIN CTAB
M  V30 COUNTS 73 77 0 0 0
M  V30 BEGIN ATOM
M  V30 1 C -1.684999 -6.239213 0.848048 0
M  V30 2 N -1.438679 -5.244702 -0.180481 0
M  V30 3 C -2.321389 -5.495226 -1.282625 0
M  V30 4 C -1.977140 -4.599877 -2.428049 0
M  V30 5 N -0.965331 -3.590841 -2.078488 0
M  V30 6 C -0.731708 -2.850828 -3.301939 0
M  V30 7 C 0.295776 -1.754160 -3.128447 0
M  V30 8 C -0.222452 -0.780626 -2.054776 0
M  V30 9 C 0.761054 0.336236 -1.837646 0
M  V30 10 O 0.357067 1.268649 -0.868821 0
M  V30 11 C 0.129640 0.831433 0.441362 0
M  V30 12 C -1.066016 0.381135 1.045375 0
M  V30 13 O -2.019250 0.447913 0.097231 0
M  V30 14 C -3.355307 0.125177 0.222774 0
M  V30 15 C -4.136320 0.914502 1.199201 0
M  V30 16 C -4.593623 2.151963 0.716730 0
M  V30 17 C -5.357871 3.065000 1.417270 0
M  V30 18 C -5.706479 2.736438 2.708831 0
M  V30 19 C -6.494179 3.590431 3.544519 0
M  V30 20 N -7.131716 4.288457 4.229754 0
M  V30 21 C -5.287462 1.538687 3.233655 0
M  V30 22 C -4.530280 0.667961 2.494578 0
M  V30 23 C -0.920772 0.024094 2.362388 0
M  V30 24 C 0.226205 0.062857 3.114076 0
M  V30 25 O 0.086761 -0.355076 4.419280 0
M  V30 26 C 1.372605 0.508031 2.491774 0
M  V30 27 C 2.498323 0.530205 3.283729 0
M  V30 28 O 2.473105 0.165553 4.497224 0
M  V30 29 C 3.667098 0.967133 2.706244 0
M  V30 30 C 3.584935 1.338911 1.385649 0
M  V30 31 C 4.756575 1.818088 0.667864 0
M  V30 32 C 6.006692 1.938984 1.229526 0
M  V30 33 C 7.144345 2.385922 0.593455 0
M  V30 34 C 7.028239 2.751930 -0.743349 0
M  V30 35 C 5.806236 2.658082 -1.375374 0
M  V30 36 C 4.722067 2.199326 -0.657042 0
M  V30 37 O 2.478291 1.287817 0.706172 0
M  V30 38 C 1.328868 0.889558 1.167884 0
M  V30 39 C 0.245587 -4.208815 -1.580804 0
M  V30 40 C -0.081594 -5.365088 -0.687832 0
M  V30 41 H -1.552368 -7.248857 0.419720 0
M  V30 42 H -1.051163 -6.066088 1.740205 0
M  V30 43 H -2.739529 -6.151344 1.174503 0
M  V30 44 H -2.231878 -6.555560 -1.657195 0
M  V30 45 H -3.400517 -5.385183 -0.997488 0
M  V30 46 H -1.647444 -5.129030 -3.342567 0
M  V30 47 H -2.877905 -3.995888 -2.709888 0
M  V30 48 H -0.434563 -3.560524 -4.098983 0
M  V30 49 H -1.690969 -2.399178 -3.604254 0
M  V30 50 H 0.313999 -1.170257 -4.063899 0
M  V30 51 H 1.257255 -2.122818 -2.772935 0
M  V30 52 H -1.191688 -0.344329 -2.378643 0
M  V30 53 H -0.363303 -1.341135 -1.127898 0
M  V30 54 H 1.781867 -0.058192 -1.636626 0
M  V30 55 H 0.883292 0.929037 -2.790580 0
M  V30 56 H -3.514226 -0.978632 0.385574 0
M  V30 57 H -3.856913 0.282502 -0.787404 0
M  V30 58 H -4.358909 2.483069 -0.295723 0
M  V30 59 H -5.680798 3.997528 1.000544 0
M  V30 60 H -5.505090 1.184108 4.234457 0
M  V30 61 H -4.190967 -0.284265 2.861354 0
M  V30 62 H -1.862609 -0.314923 2.750733 0
M  V30 63 H -0.362227 -1.220733 4.663817 0
M  V30 64 H 4.571987 0.999827 3.291309 0
M  V30 65 H 6.157162 1.670105 2.263179 0
M  V30 66 H 8.100099 2.457367 1.093982 0
M  V30 67 H 7.889975 3.109288 -1.288967 0
M  V30 68 H 5.730457 2.947579 -2.420886 0
M  V30 69 H 3.773227 2.142558 -1.202853 0
M  V30 70 H 0.786673 -3.450410 -0.974933 0
M  V30 71 H 0.904647 -4.557862 -2.416324 0
M  V30 72 H 0.591049 -5.393498 0.211886 0
M  V30 73 H 0.065210 -6.365907 -1.179008 0
M  V30 END ATOM
M  V30 BEGIN BOND
M  V30 1 1 1 2
M  V30 2 1 2 3
M  V30 3 1 3 4
M  V30 4 1 4 5
M  V30 5 1 5 6
M  V30 6 1 6 7
M  V30 7 1 7 8
M  V30 8 1 8 9
M  V30 9 1 9 10
M  V30 10 1 10 11
M  V30 11 1 11 12
M  V30 12 1 12 13
M  V30 13 1 13 14
M  V30 14 1 14 15
M  V30 15 2 15 16
M  V30 16 1 16 17
M  V30 17 2 17 18
M  V30 18 1 18 19
M  V30 19 3 19 20
M  V30 20 1 18 21
M  V30 21 2 21 22
M  V30 22 2 12 23
M  V30 23 1 23 24
M  V30 24 1 24 25
M  V30 25 2 24 26
M  V30 26 1 26 27
M  V30 27 2 27 28
M  V30 28 1 27 29
M  V30 29 2 29 30
M  V30 30 1 30 31
M  V30 31 2 31 32
M  V30 32 1 32 33
M  V30 33 2 33 34
M  V30 34 1 34 35
M  V30 35 2 35 36
M  V30 36 1 30 37
M  V30 37 1 37 38
M  V30 38 1 5 39
M  V30 39 1 39 40
M  V30 40 1 40 2
M  V30 41 2 38 11
M  V30 42 1 22 15
M  V30 43 1 38 26
M  V30 44 1 36 31
M  V30 45 1 1 41
M  V30 46 1 1 42
M  V30 47 1 1 43
M  V30 48 1 3 44
M  V30 49 1 3 45
M  V30 50 1 4 46
M  V30 51 1 4 47
M  V30 52 1 6 48
M  V30 53 1 6 49
M  V30 54 1 7 50
M  V30 55 1 7 51
M  V30 56 1 8 52
M  V30 57 1 8 53
M  V30 58 1 9 54
M  V30 59 1 9 55
M  V30 60 1 14 56
M  V30 61 1 14 57
M  V30 62 1 16 58
M  V30 63 1 17 59
M  V30 64 1 21 60
M  V30 65 1 22 61
M  V30 66 1 23 62
M  V30 67 1 25 63
M  V30 68 1 29 64
M  V30 69 1 32 65
M  V30 70 1 33 66
M  V30 71 1 34 67
M  V30 72 1 35 68
M  V30 73 1 36 69
M  V30 74 1 39 70
M  V30 75 1 39 71
M  V30 76 1 40 72
M  V30 77 1 40 73
M  V30 END BOND
M  V30 END CTAB
M  END
>  <Dataset>  (965) 
ChEMBL_Kinases

>  <Ligand_Instance>  (965) 
nan

>  <PDB_ID>  (965) 
nan

>  <Standardized_SMILES>  (965) 
CN1CCN(CCCCOc2c(OCc3ccc(C#N)cc3)cc(O)c3c(=O)cc(-c4ccccc4)oc23)CC1

>  <Name>  (965) 
nan

>  <Pocket>  (965) 
nan

>  <ATP_Site>  (965) 
nan

>  <Peripheral>  (965) 
nan

>  <Num_H_Atoms_ProtBoundConf>  (965) 
nan

>  <Num_Resolved_Atoms>  (965) 
nan

>  <Num_Not_Resolved_Atoms>  (965) 
nan

$$$$
CHEMBL3298982
     RDKit          3D

  0  0  0  0  0  0  0  0  0  0999 V3000
M  V30 BEGIN CTAB
M  V30 COUNTS 56 59 0 0 0
M  V30 BEGIN ATOM
M  V30 1 O 3.583440 -0.865348 1.611163 0
M  V30 2 C 2.636055 -0.303672 0.999562 0
M  V30 3 N 2.347457 1.054906 1.228051 0
M  V30 4 C 3.052413 1.917875 2.130702 0 CFG=2
M  V30 5 C 2.094451 2.436171 3.182061 0
M  V30 6 O 2.767929 3.275679 4.064600 0
M  V30 7 C 3.672211 3.081991 1.449338 0
M  V30 8 C 4.972342 3.513090 1.697552 0
M  V30 9 C 5.547202 4.587784 1.069741 0
M  V30 10 C 4.791591 5.290691 0.130042 0
M  V30 11 Cl 5.525305 6.663603 -0.672277 0
M  V30 12 C 3.499592 4.867072 -0.120607 0
M  V30 13 Cl 2.617490 5.793533 -1.305946 0
M  V30 14 C 2.919374 3.786034 0.509998 0
M  V30 15 N 1.930689 -1.154387 0.100943 0
M  V30 16 C 2.384859 -2.530837 0.007077 0
M  V30 17 C 1.329141 -3.394654 0.674468 0
M  V30 18 C 0.012767 -2.933541 0.161614 0
M  V30 19 C -1.040896 -3.803010 0.345608 0
M  V30 20 N -2.259834 -3.453857 -0.091933 0
M  V30 21 C -2.564027 -2.303184 -0.711612 0
M  V30 22 N -3.868015 -1.965723 -1.162749 0
M  V30 23 C -5.050202 -2.789082 -1.041379 0
M  V30 24 C -4.997832 -4.082563 -1.776690 0
M  V30 25 C -4.648610 -5.303356 -1.011397 0
M  V30 26 O -4.814233 -5.214075 0.349531 0
M  V30 27 C -5.923895 -4.405486 0.639824 0
M  V30 28 C -5.513042 -2.977121 0.352556 0
M  V30 29 N -1.523401 -1.470705 -0.880727 0
M  V30 30 C -0.275992 -1.744339 -0.473134 0
M  V30 31 C 0.802171 -0.740255 -0.716362 0
M  V30 32 H 1.554912 1.487424 0.703260 0
M  V30 33 H 3.886613 1.398384 2.662091 0
M  V30 34 H 1.696319 1.585019 3.774876 0
M  V30 35 H 1.233138 2.947743 2.704683 0
M  V30 36 H 2.135302 3.568333 4.770693 0
M  V30 37 H 5.556231 2.964169 2.428465 0
M  V30 38 H 6.575783 4.855558 1.327244 0
M  V30 39 H 1.896099 3.527372 0.247393 0
M  V30 40 H 3.386607 -2.667702 0.458489 0
M  V30 41 H 2.449137 -2.843078 -1.072070 0
M  V30 42 H 1.401264 -3.385537 1.763177 0
M  V30 43 H 1.542559 -4.440932 0.307602 0
M  V30 44 H -1.018606 -4.776957 0.818024 0
M  V30 45 H -3.923786 -1.006788 -1.625214 0
M  V30 46 H -5.865316 -2.179699 -1.553856 0
M  V30 47 H -4.315103 -3.965700 -2.661392 0
M  V30 48 H -6.018780 -4.246243 -2.249692 0
M  V30 49 H -3.578900 -5.588791 -1.251295 0
M  V30 50 H -5.263828 -6.161168 -1.428055 0
M  V30 51 H -6.799244 -4.703838 0.026766 0
M  V30 52 H -6.194044 -4.506297 1.710233 0
M  V30 53 H -4.768241 -2.706085 1.125268 0
M  V30 54 H -6.416905 -2.362376 0.616936 0
M  V30 55 H 0.406589 0.239204 -0.429697 0
M  V30 56 H 1.059203 -0.671114 -1.790699 0
M  V30 END ATOM
M  V30 BEGIN BOND
M  V30 1 2 1 2
M  V30 2 1 2 3
M  V30 3 1 3 4
M  V30 4 1 4 5
M  V30 5 1 5 6
M  V30 6 1 4 7
M  V30 7 2 7 8
M  V30 8 1 8 9
M  V30 9 2 9 10
M  V30 10 1 10 11
M  V30 11 1 10 12
M  V30 12 1 12 13
M  V30 13 2 12 14
M  V30 14 1 2 15
M  V30 15 1 15 16
M  V30 16 1 16 17
M  V30 17 1 17 18
M  V30 18 2 18 19
M  V30 19 1 19 20
M  V30 20 2 20 21
M  V30 21 1 21 22
M  V30 22 1 22 23
M  V30 23 1 23 24
M  V30 24 1 24 25
M  V30 25 1 25 26
M  V30 26 1 26 27
M  V30 27 1 27 28
M  V30 28 1 21 29
M  V30 29 2 29 30
M  V30 30 1 30 31
M  V30 31 1 14 7
M  V30 32 1 31 15
M  V30 33 1 30 18
M  V30 34 1 28 23
M  V30 35 1 3 32
M  V30 36 1 4 33 CFG=1
M  V30 37 1 5 34
M  V30 38 1 5 35
M  V30 39 1 6 36
M  V30 40 1 8 37
M  V30 41 1 9 38
M  V30 42 1 14 39
M  V30 43 1 16 40
M  V30 44 1 16 41
M  V30 45 1 17 42
M  V30 46 1 17 43
M  V30 47 1 19 44
M  V30 48 1 22 45
M  V30 49 1 23 46
M  V30 50 1 24 47
M  V30 51 1 24 48
M  V30 52 1 25 49
M  V30 53 1 25 50
M  V30 54 1 27 51
M  V30 55 1 27 52
M  V30 56 1 28 53
M  V30 57 1 28 54
M  V30 58 1 31 55
M  V30 59 1 31 56
M  V30 END BOND
M  V30 END CTAB
M  END
>  <Dataset>  (966) 
ChEMBL_Kinases

>  <Ligand_Instance>  (966) 
nan

>  <PDB_ID>  (966) 
nan

>  <Standardized_SMILES>  (966) 
O=C(N[C@H](CO)c1ccc(Cl)c(Cl)c1)N1CCc2cnc(NC3CCOCC3)nc2C1

>  <Name>  (966) 
nan

>  <Pocket>  (966) 
nan

>  <ATP_Site>  (966) 
nan

>  <Peripheral>  (966) 
nan

>  <Num_H_Atoms_ProtBoundConf>  (966) 
nan

>  <Num_Resolved_Atoms>  (966) 
nan

>  <Num_Not_Resolved_Atoms>  (966) 
nan

$$$$
CHEMBL3298983
     RDKit          3D

  0  0  0  0  0  0  0  0  0  0999 V3000
M  V30 BEGIN CTAB
M  V30 COUNTS 59 63 0 0 0
M  V30 BEGIN ATOM
M  V30 1 C 4.418081 -3.211578 1.090444 0
M  V30 2 C 3.030008 -2.880243 0.573380 0 CFG=1
M  V30 3 N 2.746109 -1.461955 0.633968 0
M  V30 4 C 1.690854 -0.983800 1.456036 0
M  V30 5 O 1.040658 -1.828521 2.104219 0
M  V30 6 N 1.385750 0.399597 1.538906 0
M  V30 7 C 2.176735 1.332806 0.763107 0
M  V30 8 C 1.703079 2.768415 1.036400 0
M  V30 9 C 0.227565 2.854811 0.938648 0
M  V30 10 C -0.420072 3.818772 0.228482 0
M  V30 11 N -1.764308 3.767287 0.232086 0
M  V30 12 C -2.487764 2.845192 0.877974 0
M  V30 13 N -3.912649 2.829273 0.851751 0
M  V30 14 C -4.700512 1.832686 1.553107 0
M  V30 15 C -4.430946 1.904285 3.007006 0
M  V30 16 C -4.531599 0.590215 3.731928 0
M  V30 17 O -5.312861 -0.326131 2.991605 0
M  V30 18 C -4.499997 -0.656972 1.891164 0
M  V30 19 C -4.540294 0.478321 0.933170 0
M  V30 20 N -1.814318 1.896962 1.577526 0
M  V30 21 C -0.449821 1.871377 1.629907 0
M  V30 22 C 0.294235 0.834302 2.395819 0
M  V30 23 C 2.897681 -3.436866 -0.788739 0
M  V30 24 C 3.394634 -2.854781 -1.938859 0
M  V30 25 C 3.242605 -3.418895 -3.189317 0
M  V30 26 C 2.571394 -4.610383 -3.318165 0
M  V30 27 C 2.235968 -5.445191 -4.375790 0
M  V30 28 C 1.538578 -6.528413 -3.867386 0
M  V30 29 N 1.419421 -6.412673 -2.532071 0
M  V30 30 C 2.042170 -5.261102 -2.221246 0
M  V30 31 C 2.227123 -4.645428 -0.993140 0
M  V30 32 H 5.154513 -2.544369 0.623010 0
M  V30 33 H 4.573466 -4.288402 0.849946 0
M  V30 34 H 4.451331 -3.146375 2.194047 0
M  V30 35 H 2.323181 -3.404835 1.231915 0
M  V30 36 H 3.312789 -0.784224 0.076131 0
M  V30 37 H 3.262382 1.243060 0.969781 0
M  V30 38 H 2.044330 1.198675 -0.325202 0
M  V30 39 H 2.102764 3.458573 0.265497 0
M  V30 40 H 2.114223 3.086931 2.008646 0
M  V30 41 H 0.127709 4.575406 -0.302651 0
M  V30 42 H -4.378541 3.598347 0.282124 0
M  V30 43 H -5.775941 2.098788 1.407174 0
M  V30 44 H -3.440773 2.342243 3.248681 0
M  V30 45 H -5.155023 2.602332 3.524292 0
M  V30 46 H -3.542278 0.108038 3.883374 0
M  V30 47 H -5.007165 0.701904 4.724850 0
M  V30 48 H -3.477858 -0.787265 2.300015 0
M  V30 49 H -4.874561 -1.589483 1.386031 0
M  V30 50 H -5.300506 0.253256 0.154336 0
M  V30 51 H -3.556599 0.508069 0.380684 0
M  V30 52 H -0.359632 0.002064 2.683283 0
M  V30 53 H 0.707847 1.372851 3.282110 0
M  V30 54 H 3.922538 -1.915579 -1.828315 0
M  V30 55 H 3.642689 -2.940681 -4.075481 0
M  V30 56 H 2.478122 -5.277670 -5.417710 0
M  V30 57 H 1.117939 -7.384804 -4.403256 0
M  V30 58 H 0.957966 -7.043534 -1.838991 0
M  V30 59 H 1.826453 -5.119618 -0.086692 0
M  V30 END ATOM
M  V30 BEGIN BOND
M  V30 1 1 1 2
M  V30 2 1 2 3
M  V30 3 1 3 4
M  V30 4 2 4 5
M  V30 5 1 4 6
M  V30 6 1 6 7
M  V30 7 1 7 8
M  V30 8 1 8 9
M  V30 9 2 9 10
M  V30 10 1 10 11
M  V30 11 2 11 12
M  V30 12 1 12 13
M  V30 13 1 13 14
M  V30 14 1 14 15
M  V30 15 1 15 16
M  V30 16 1 16 17
M  V30 17 1 17 18
M  V30 18 1 18 19
M  V30 19 1 12 20
M  V30 20 2 20 21
M  V30 21 1 21 22
M  V30 22 1 2 23
M  V30 23 2 23 24
M  V30 24 1 24 25
M  V30 25 2 25 26
M  V30 26 1 26 27
M  V30 27 2 27 28
M  V30 28 1 28 29
M  V30 29 1 29 30
M  V30 30 2 30 31
M  V30 31 1 22 6
M  V30 32 1 31 23
M  V30 33 1 21 9
M  V30 34 1 30 26
M  V30 35 1 19 14
M  V30 36 1 1 32
M  V30 37 1 1 33
M  V30 38 1 1 34
M  V30 39 1 2 35 CFG=1
M  V30 40 1 3 36
M  V30 41 1 7 37
M  V30 42 1 7 38
M  V30 43 1 8 39
M  V30 44 1 8 40
M  V30 45 1 10 41
M  V30 46 1 13 42
M  V30 47 1 14 43
M  V30 48 1 15 44
M  V30 49 1 15 45
M  V30 50 1 16 46
M  V30 51 1 16 47
M  V30 52 1 18 48
M  V30 53 1 18 49
M  V30 54 1 19 50
M  V30 55 1 19 51
M  V30 56 1 22 52
M  V30 57 1 22 53
M  V30 58 1 24 54
M  V30 59 1 25 55
M  V30 60 1 27 56
M  V30 61 1 28 57
M  V30 62 1 29 58
M  V30 63 1 31 59
M  V30 END BOND
M  V30 END CTAB
M  END
>  <Dataset>  (967) 
ChEMBL_Kinases

>  <Ligand_Instance>  (967) 
nan

>  <PDB_ID>  (967) 
nan

>  <Standardized_SMILES>  (967) 
C[C@@H](NC(=O)N1CCc2cnc(NC3CCOCC3)nc2C1)c1ccc2cc[nH]c2c1

>  <Name>  (967) 
nan

>  <Pocket>  (967) 
nan

>  <ATP_Site>  (967) 
nan

>  <Peripheral>  (967) 
nan

>  <Num_H_Atoms_ProtBoundConf>  (967) 
nan

>  <Num_Resolved_Atoms>  (967) 
nan

>  <Num_Not_Resolved_Atoms>  (967) 
nan

$$$$
CHEMBL3298984
     RDKit          3D

  0  0  0  0  0  0  0  0  0  0999 V3000
M  V30 BEGIN CTAB
M  V30 COUNTS 55 58 0 0 0
M  V30 BEGIN ATOM
M  V30 1 C 0.837551 -4.467768 -0.914913 0
M  V30 2 C 1.255953 -4.340168 0.555510 0 CFG=1
M  V30 3 N 1.012644 -2.996309 0.977760 0
M  V30 4 C 2.050445 -2.126945 1.360753 0
M  V30 5 O 3.287481 -2.372235 1.393211 0
M  V30 6 N 1.846584 -0.776055 1.789079 0
M  V30 7 C 3.105528 -0.134010 2.117030 0
M  V30 8 C 2.887706 1.286310 2.647361 0
M  V30 9 C 2.071210 1.967267 1.606118 0
M  V30 10 C 2.344236 3.160140 0.974195 0
M  V30 11 N 1.487273 3.630511 0.050091 0
M  V30 12 C 0.360238 3.005802 -0.307464 0
M  V30 13 N -0.523346 3.540556 -1.294981 0
M  V30 14 C -1.721565 2.772843 -1.603535 0
M  V30 15 C -2.581334 2.603063 -0.381472 0
M  V30 16 C -3.815603 3.470177 -0.597932 0
M  V30 17 O -4.537916 2.865453 -1.624190 0
M  V30 18 C -3.894457 2.960733 -2.846836 0
M  V30 19 C -2.471225 3.366611 -2.765930 0
M  V30 20 N 0.119638 1.849386 0.321998 0
M  V30 21 C 0.914721 1.298932 1.258057 0
M  V30 22 C 0.609318 0.008072 1.935158 0
M  V30 23 C 0.536187 -5.370254 1.348780 0
M  V30 24 C 1.162123 -6.534798 1.800125 0
M  V30 25 C 0.524555 -7.510306 2.537758 0
M  V30 26 C -0.795016 -7.347566 2.855901 0
M  V30 27 Cl -1.522064 -8.633054 3.792689 0
M  V30 28 C -1.442257 -6.215843 2.429304 0
M  V30 29 F -2.755307 -6.103784 2.773589 0
M  V30 30 C -0.802022 -5.248110 1.695204 0
M  V30 31 H 0.928401 -5.536201 -1.180885 0
M  V30 32 H 1.513540 -3.869600 -1.559178 0
M  V30 33 H -0.189752 -4.141660 -1.071405 0
M  V30 34 H 2.326830 -4.619649 0.561697 0
M  V30 35 H 0.035330 -2.659918 0.999249 0
M  V30 36 H 3.715017 0.027445 1.179737 0
M  V30 37 H 3.721884 -0.710422 2.805752 0
M  V30 38 H 3.884119 1.744312 2.747314 0
M  V30 39 H 2.305259 1.265955 3.591826 0
M  V30 40 H 3.261476 3.640643 1.284478 0
M  V30 41 H -0.259093 4.447888 -1.736465 0
M  V30 42 H -1.348068 1.770849 -1.897468 0
M  V30 43 H -2.059087 2.871495 0.557090 0
M  V30 44 H -2.934590 1.555897 -0.311652 0
M  V30 45 H -4.449066 3.568767 0.281633 0
M  V30 46 H -3.503576 4.474074 -1.010843 0
M  V30 47 H -4.024552 2.007628 -3.427032 0
M  V30 48 H -4.454223 3.730710 -3.422311 0
M  V30 49 H -1.957357 3.034491 -3.691852 0
M  V30 50 H -2.351324 4.469141 -2.717173 0
M  V30 51 H 0.450052 0.272694 3.012469 0
M  V30 52 H -0.248608 -0.504679 1.498336 0
M  V30 53 H 2.215362 -6.653247 1.539670 0
M  V30 54 H 1.126018 -8.363872 2.824486 0
M  V30 55 H -1.310191 -4.372329 1.367358 0
M  V30 END ATOM
M  V30 BEGIN BOND
M  V30 1 1 1 2
M  V30 2 1 2 3
M  V30 3 1 3 4
M  V30 4 2 4 5
M  V30 5 1 4 6
M  V30 6 1 6 7
M  V30 7 1 7 8
M  V30 8 1 8 9
M  V30 9 2 9 10
M  V30 10 1 10 11
M  V30 11 2 11 12
M  V30 12 1 12 13
M  V30 13 1 13 14
M  V30 14 1 14 15
M  V30 15 1 15 16
M  V30 16 1 16 17
M  V30 17 1 17 18
M  V30 18 1 18 19
M  V30 19 1 12 20
M  V30 20 2 20 21
M  V30 21 1 21 22
M  V30 22 1 2 23
M  V30 23 2 23 24
M  V30 24 1 24 25
M  V30 25 2 25 26
M  V30 26 1 26 27
M  V30 27 1 26 28
M  V30 28 1 28 29
M  V30 29 2 28 30
M  V30 30 1 22 6
M  V30 31 1 30 23
M  V30 32 1 21 9
M  V30 33 1 19 14
M  V30 34 1 1 31
M  V30 35 1 1 32
M  V30 36 1 1 33
M  V30 37 1 2 34 CFG=3
M  V30 38 1 3 35
M  V30 39 1 7 36
M  V30 40 1 7 37
M  V30 41 1 8 38
M  V30 42 1 8 39
M  V30 43 1 10 40
M  V30 44 1 13 41
M  V30 45 1 14 42
M  V30 46 1 15 43
M  V30 47 1 15 44
M  V30 48 1 16 45
M  V30 49 1 16 46
M  V30 50 1 18 47
M  V30 51 1 18 48
M  V30 52 1 19 49
M  V30 53 1 19 50
M  V30 54 1 22 51
M  V30 55 1 22 52
M  V30 56 1 24 53
M  V30 57 1 25 54
M  V30 58 1 30 55
M  V30 END BOND
M  V30 END CTAB
M  END
>  <Dataset>  (968) 
ChEMBL_Kinases

>  <Ligand_Instance>  (968) 
nan

>  <PDB_ID>  (968) 
nan

>  <Standardized_SMILES>  (968) 
C[C@@H](NC(=O)N1CCc2cnc(NC3CCOCC3)nc2C1)c1ccc(Cl)c(F)c1

>  <Name>  (968) 
nan

>  <Pocket>  (968) 
nan

>  <ATP_Site>  (968) 
nan

>  <Peripheral>  (968) 
nan

>  <Num_H_Atoms_ProtBoundConf>  (968) 
nan

>  <Num_Resolved_Atoms>  (968) 
nan

>  <Num_Not_Resolved_Atoms>  (968) 
nan

$$$$
CHEMBL3675433
     RDKit          3D

  0  0  0  0  0  0  0  0  0  0999 V3000
M  V30 BEGIN CTAB
M  V30 COUNTS 50 52 0 0 0
M  V30 BEGIN ATOM
M  V30 1 C 2.658160 -5.205160 0.234385 0
M  V30 2 C 2.786588 -3.763769 0.609772 0
M  V30 3 N 1.511134 -3.093176 0.821926 0
M  V30 4 C 0.787154 -2.976231 -0.440174 0
M  V30 5 C -0.476930 -2.208678 -0.176986 0 CFG=1
M  V30 6 N -0.264318 -0.866841 0.322089 0
M  V30 7 C 0.268281 -0.346988 1.525078 0
M  V30 8 N 0.695860 -1.137601 2.517115 0
M  V30 9 C 1.198735 -0.727483 3.686828 0
M  V30 10 N 1.283849 0.607231 3.886998 0
M  V30 11 C 0.860713 1.419602 2.904087 0
M  V30 12 C 0.964259 2.769604 3.140712 0
M  V30 13 C 1.490076 3.350655 4.362796 0
M  V30 14 N 2.013429 2.766818 5.547428 0
M  V30 15 O 1.657045 4.502909 4.779498 0
M  V30 16 C 0.565759 3.731474 2.207303 0
M  V30 17 C 0.042755 3.312964 0.988591 0
M  V30 18 O -0.345725 4.271659 0.076601 0
M  V30 19 C -0.881689 3.933006 -1.184064 0
M  V30 20 C -0.042777 1.954563 0.796209 0
M  V30 21 C 0.342873 1.012659 1.700038 0
M  V30 22 C -1.494434 -2.322231 -1.231099 0
M  V30 23 C -2.655620 -1.626711 -0.953888 0
M  V30 24 C -3.714612 -1.633071 -1.836168 0
M  V30 25 C -3.571959 -2.364117 -3.015811 0
M  V30 26 C -2.412897 -3.052855 -3.282926 0
M  V30 27 C -1.335887 -3.050493 -2.392057 0
M  V30 28 H 3.225855 -5.780662 1.021189 0
M  V30 29 H 1.634686 -5.571176 0.244397 0
M  V30 30 H 3.201292 -5.455825 -0.709111 0
M  V30 31 H 3.309739 -3.245681 -0.218842 0
M  V30 32 H 3.377848 -3.595025 1.544072 0
M  V30 33 H 0.898085 -3.666014 1.464122 0
M  V30 34 H 0.492045 -4.005835 -0.700052 0
M  V30 35 H 1.428647 -2.493288 -1.201486 0
M  V30 36 H -0.941487 -2.758336 0.716250 0
M  V30 37 H -0.597182 -0.234405 -0.431522 0
M  V30 38 H 1.502330 -1.486615 4.387517 0
M  V30 39 H 1.544735 2.013200 6.113944 0
M  V30 40 H 1.215611 2.089034 5.738088 0
M  V30 41 H 0.642706 4.799912 2.382525 0
M  V30 42 H -0.991978 4.885022 -1.748979 0
M  V30 43 H -0.160521 3.244530 -1.682348 0
M  V30 44 H -1.852344 3.436424 -1.044062 0
M  V30 45 H -0.449897 1.657774 -0.148738 0
M  V30 46 H -2.819939 -1.037734 -0.042721 0
M  V30 47 H -4.645284 -1.101783 -1.658678 0
M  V30 48 H -4.360183 -2.416715 -3.753939 0
M  V30 49 H -2.273885 -3.622766 -4.174780 0
M  V30 50 H -0.409178 -3.553209 -2.521864 0
M  V30 END ATOM
M  V30 BEGIN BOND
M  V30 1 1 1 2
M  V30 2 1 2 3
M  V30 3 1 3 4
M  V30 4 1 4 5
M  V30 5 1 5 6
M  V30 6 1 6 7
M  V30 7 2 7 8
M  V30 8 1 8 9
M  V30 9 2 9 10
M  V30 10 1 10 11
M  V30 11 2 11 12
M  V30 12 1 12 13
M  V30 13 1 13 14
M  V30 14 2 13 15
M  V30 15 1 12 16
M  V30 16 2 16 17
M  V30 17 1 17 18
M  V30 18 1 18 19
M  V30 19 1 17 20
M  V30 20 2 20 21
M  V30 21 1 5 22
M  V30 22 2 22 23
M  V30 23 1 23 24
M  V30 24 2 24 25
M  V30 25 1 25 26
M  V30 26 2 26 27
M  V30 27 1 21 7
M  V30 28 1 27 22
M  V30 29 1 21 11
M  V30 30 1 1 28
M  V30 31 1 1 29
M  V30 32 1 1 30
M  V30 33 1 2 31
M  V30 34 1 2 32
M  V30 35 1 3 33
M  V30 36 1 4 34
M  V30 37 1 4 35
M  V30 38 1 5 36 CFG=1
M  V30 39 1 6 37
M  V30 40 1 9 38
M  V30 41 1 14 39
M  V30 42 1 14 40
M  V30 43 1 16 41
M  V30 44 1 19 42
M  V30 45 1 19 43
M  V30 46 1 19 44
M  V30 47 1 20 45
M  V30 48 1 23 46
M  V30 49 1 24 47
M  V30 50 1 25 48
M  V30 51 1 26 49
M  V30 52 1 27 50
M  V30 END BOND
M  V30 END CTAB
M  END
>  <Dataset>  (969) 
ChEMBL_Kinases

>  <Ligand_Instance>  (969) 
nan

>  <PDB_ID>  (969) 
nan

>  <Standardized_SMILES>  (969) 
CCNC[C@@H](Nc1ncnc2c(C(N)=O)cc(OC)cc12)c1ccccc1

>  <Name>  (969) 
nan

>  <Pocket>  (969) 
nan

>  <ATP_Site>  (969) 
nan

>  <Peripheral>  (969) 
nan

>  <Num_H_Atoms_ProtBoundConf>  (969) 
nan

>  <Num_Resolved_Atoms>  (969) 
nan

>  <Num_Not_Resolved_Atoms>  (969) 
nan

$$$$
CHEMBL3298985
     RDKit          3D

  0  0  0  0  0  0  0  0  0  0999 V3000
M  V30 BEGIN CTAB
M  V30 COUNTS 59 62 0 0 0
M  V30 BEGIN ATOM
M  V30 1 C 2.621409 -3.481597 4.895945 0
M  V30 2 C 2.831033 -2.944852 3.481892 0
M  V30 3 C 2.076553 -1.651893 3.378309 0 CFG=1
M  V30 4 N 2.160741 -1.002410 2.111673 0
M  V30 5 C 2.607525 0.333148 1.838154 0
M  V30 6 O 3.021384 1.250715 2.560908 0
M  V30 7 N 2.627325 0.826815 0.498975 0
M  V30 8 C 3.104629 2.197113 0.379171 0
M  V30 9 C 3.004154 2.737010 -1.027380 0
M  V30 10 C 1.632164 2.422994 -1.507553 0
M  V30 11 C 0.716747 3.305849 -2.076406 0
M  V30 12 N -0.479471 2.844587 -2.452387 0
M  V30 13 C -0.866831 1.562434 -2.316460 0
M  V30 14 N -2.139071 1.139254 -2.731618 0
M  V30 15 C -2.577558 -0.221857 -2.598353 0
M  V30 16 C -1.712254 -1.208321 -3.351083 0
M  V30 17 C -2.203531 -2.593266 -2.962067 0
M  V30 18 O -3.321432 -2.548958 -2.132830 0
M  V30 19 C -4.380300 -1.844271 -2.681628 0
M  V30 20 C -3.993900 -0.407821 -3.038487 0
M  V30 21 N 0.021031 0.715428 -1.766831 0
M  V30 22 C 1.243707 1.105772 -1.364079 0
M  V30 23 C 2.245971 0.171951 -0.748660 0
M  V30 24 C 0.655591 -1.991464 3.665621 0
M  V30 25 C -0.098210 -2.561666 2.641974 0
M  V30 26 C -1.416696 -2.888822 2.872084 0
M  V30 27 C -2.037059 -2.676408 4.084812 0
M  V30 28 C -3.411587 -3.038024 4.262888 0
M  V30 29 N -4.527728 -3.312331 4.405239 0
M  V30 30 C -1.250180 -2.113839 5.054909 0
M  V30 31 Cl -1.967118 -1.812851 6.623692 0
M  V30 32 C 0.071648 -1.763594 4.891347 0
M  V30 33 H 1.662096 -4.001121 4.970417 0
M  V30 34 H 3.505700 -4.105329 5.201243 0
M  V30 35 H 2.677045 -2.593563 5.573342 0
M  V30 36 H 3.921205 -2.844465 3.375436 0
M  V30 37 H 2.466872 -3.647144 2.733088 0
M  V30 38 H 2.411363 -0.997167 4.227676 0
M  V30 39 H 1.862166 -1.563935 1.283507 0
M  V30 40 H 2.371844 2.813532 0.978607 0
M  V30 41 H 4.086275 2.365583 0.841698 0
M  V30 42 H 3.797492 2.289805 -1.663431 0
M  V30 43 H 3.160556 3.828604 -0.962138 0
M  V30 44 H 1.068625 4.317883 -2.165204 0
M  V30 45 H -2.799568 1.824288 -3.152941 0
M  V30 46 H -2.538340 -0.534609 -1.514893 0
M  V30 47 H -0.641639 -1.100747 -3.154636 0
M  V30 48 H -1.893308 -1.069532 -4.447601 0
M  V30 49 H -1.402893 -3.066881 -2.356093 0
M  V30 50 H -2.425788 -3.180637 -3.862957 0
M  V30 51 H -5.161865 -1.806065 -1.879813 0
M  V30 52 H -4.786761 -2.391893 -3.534734 0
M  V30 53 H -4.690993 0.301906 -2.544865 0
M  V30 54 H -4.107752 -0.290037 -4.125121 0
M  V30 55 H 1.886879 -0.845086 -0.638562 0
M  V30 56 H 3.102783 0.179384 -1.472404 0
M  V30 57 H 0.265939 -2.779699 1.648821 0
M  V30 58 H -2.028266 -3.338371 2.081020 0
M  V30 59 H 0.640515 -1.328466 5.678318 0
M  V30 END ATOM
M  V30 BEGIN BOND
M  V30 1 1 1 2
M  V30 2 1 2 3
M  V30 3 1 3 4
M  V30 4 1 4 5
M  V30 5 2 5 6
M  V30 6 1 5 7
M  V30 7 1 7 8
M  V30 8 1 8 9
M  V30 9 1 9 10
M  V30 10 2 10 11
M  V30 11 1 11 12
M  V30 12 2 12 13
M  V30 13 1 13 14
M  V30 14 1 14 15
M  V30 15 1 15 16
M  V30 16 1 16 17
M  V30 17 1 17 18
M  V30 18 1 18 19
M  V30 19 1 19 20
M  V30 20 1 13 21
M  V30 21 2 21 22
M  V30 22 1 22 23
M  V30 23 1 3 24
M  V30 24 2 24 25
M  V30 25 1 25 26
M  V30 26 2 26 27
M  V30 27 1 27 28
M  V30 28 3 28 29
M  V30 29 1 27 30
M  V30 30 1 30 31
M  V30 31 2 30 32
M  V30 32 1 23 7
M  V30 33 1 32 24
M  V30 34 1 22 10
M  V30 35 1 20 15
M  V30 36 1 1 33
M  V30 37 1 1 34
M  V30 38 1 1 35
M  V30 39 1 2 36
M  V30 40 1 2 37
M  V30 41 1 3 38 CFG=1
M  V30 42 1 4 39
M  V30 43 1 8 40
M  V30 44 1 8 41
M  V30 45 1 9 42
M  V30 46 1 9 43
M  V30 47 1 11 44
M  V30 48 1 14 45
M  V30 49 1 15 46
M  V30 50 1 16 47
M  V30 51 1 16 48
M  V30 52 1 17 49
M  V30 53 1 17 50
M  V30 54 1 19 51
M  V30 55 1 19 52
M  V30 56 1 20 53
M  V30 57 1 20 54
M  V30 58 1 23 55
M  V30 59 1 23 56
M  V30 60 1 25 57
M  V30 61 1 26 58
M  V30 62 1 32 59
M  V30 END BOND
M  V30 END CTAB
M  END
>  <Dataset>  (970) 
ChEMBL_Kinases

>  <Ligand_Instance>  (970) 
nan

>  <PDB_ID>  (970) 
nan

>  <Standardized_SMILES>  (970) 
CC[C@@H](NC(=O)N1CCc2cnc(NC3CCOCC3)nc2C1)c1ccc(C#N)c(Cl)c1

>  <Name>  (970) 
nan

>  <Pocket>  (970) 
nan

>  <ATP_Site>  (970) 
nan

>  <Peripheral>  (970) 
nan

>  <Num_H_Atoms_ProtBoundConf>  (970) 
nan

>  <Num_Resolved_Atoms>  (970) 
nan

>  <Num_Not_Resolved_Atoms>  (970) 
nan

$$$$
CHEMBL3298892
     RDKit          3D

  0  0  0  0  0  0  0  0  0  0999 V3000
M  V30 BEGIN CTAB
M  V30 COUNTS 58 61 0 0 0
M  V30 BEGIN ATOM
M  V30 1 O 0.941988 -1.910078 1.849532 0
M  V30 2 C 1.193252 -2.076835 0.610422 0
M  V30 3 C 2.061061 -1.806580 -0.538451 0
M  V30 4 C 3.201533 -0.891576 -0.319275 0 CFG=1
M  V30 5 C 4.045406 -0.732000 -1.597689 0
M  V30 6 N 5.252302 -0.022547 -1.221347 0
M  V30 7 C 4.982377 1.340339 -0.823467 0
M  V30 8 O 5.795107 2.310914 -1.022851 0
M  V30 9 C 3.667762 1.506570 -0.157462 0
M  V30 10 C 3.135173 2.699638 0.279445 0
M  V30 11 C 1.889714 2.395963 0.787283 0
M  V30 12 C 1.015935 3.390985 1.345371 0
M  V30 13 C 0.977338 4.695679 0.906294 0
M  V30 14 C 0.095903 5.535656 1.531712 0
M  V30 15 C -0.729928 5.110366 2.563710 0
M  V30 16 C -0.696262 3.812170 3.005443 0
M  V30 17 F -1.493735 3.391235 4.005170 0
M  V30 18 C 0.189552 2.956162 2.381256 0
M  V30 19 C 1.766246 1.033767 0.616805 0
M  V30 20 N 2.839161 0.463422 0.042679 0
M  V30 21 N 0.106715 -2.923116 0.168268 0
M  V30 22 C -0.975318 -3.423078 0.994011 0 CFG=2
M  V30 23 C -0.995412 -4.953244 1.009532 0
M  V30 24 O 0.252180 -5.346272 1.537017 0
M  V30 25 C -2.260320 -2.848310 0.440498 0
M  V30 26 C -2.559787 -3.207614 -0.961287 0
M  V30 27 C -3.965560 -3.670604 -1.217491 0
M  V30 28 C -5.028355 -3.008344 -0.421141 0
M  V30 29 C -4.564337 -2.221965 0.763970 0
M  V30 30 C -3.426705 -3.045213 1.385515 0
M  V30 31 H 1.451050 -1.367029 -1.369127 0
M  V30 32 H 2.412229 -2.782657 -0.942554 0
M  V30 33 H 3.891219 -1.329032 0.430205 0
M  V30 34 H 3.515415 -0.181501 -2.380225 0
M  V30 35 H 4.350206 -1.750114 -1.927636 0
M  V30 36 H 6.278348 -0.315772 -1.188891 0
M  V30 37 H 3.597422 3.692553 0.236677 0
M  V30 38 H 1.632907 4.967467 0.111683 0
M  V30 39 H 0.037596 6.571309 1.212280 0
M  V30 40 H -1.424919 5.792061 3.049501 0
M  V30 41 H 0.189627 1.935080 2.757017 0
M  V30 42 H 0.844163 0.602437 0.951037 0
M  V30 43 H -0.084857 -3.315534 -0.801996 0
M  V30 44 H -0.889887 -3.091692 2.053745 0
M  V30 45 H -1.733661 -5.272426 1.773440 0
M  V30 46 H -1.167228 -5.395380 0.029990 0
M  V30 47 H 0.483800 -4.678670 2.254780 0
M  V30 48 H -2.089307 -1.728773 0.451328 0
M  V30 49 H -1.904091 -4.042860 -1.279515 0
M  V30 50 H -2.308858 -2.379696 -1.688207 0
M  V30 51 H -4.023711 -4.798626 -1.166569 0
M  V30 52 H -4.187876 -3.461224 -2.290954 0
M  V30 53 H -5.744059 -2.407310 -1.049895 0
M  V30 54 H -5.691604 -3.824432 -0.006262 0
M  V30 55 H -5.379545 -2.066837 1.468764 0
M  V30 56 H -4.090060 -1.271146 0.433796 0
M  V30 57 H -3.224821 -2.579936 2.356490 0
M  V30 58 H -3.707876 -4.113603 1.464890 0
M  V30 END ATOM
M  V30 BEGIN BOND
M  V30 1 2 1 2
M  V30 2 1 2 3
M  V30 3 1 3 4
M  V30 4 1 4 5
M  V30 5 1 5 6
M  V30 6 1 6 7
M  V30 7 2 7 8
M  V30 8 1 7 9
M  V30 9 2 9 10
M  V30 10 1 10 11
M  V30 11 1 11 12
M  V30 12 2 12 13
M  V30 13 1 13 14
M  V30 14 2 14 15
M  V30 15 1 15 16
M  V30 16 1 16 17
M  V30 17 2 16 18
M  V30 18 2 11 19
M  V30 19 1 19 20
M  V30 20 1 2 21
M  V30 21 1 21 22
M  V30 22 1 22 23
M  V30 23 1 23 24
M  V30 24 1 22 25
M  V30 25 1 25 26
M  V30 26 1 26 27
M  V30 27 1 27 28
M  V30 28 1 28 29
M  V30 29 1 29 30
M  V30 30 1 20 4
M  V30 31 1 30 25
M  V30 32 1 20 9
M  V30 33 1 18 12
M  V30 34 1 3 31
M  V30 35 1 3 32
M  V30 36 1 4 33 CFG=1
M  V30 37 1 5 34
M  V30 38 1 5 35
M  V30 39 1 6 36
M  V30 40 1 10 37
M  V30 41 1 13 38
M  V30 42 1 14 39
M  V30 43 1 15 40
M  V30 44 1 18 41
M  V30 45 1 19 42
M  V30 46 1 21 43
M  V30 47 1 22 44 CFG=1
M  V30 48 1 23 45
M  V30 49 1 23 46
M  V30 50 1 24 47
M  V30 51 1 25 48
M  V30 52 1 26 49
M  V30 53 1 26 50
M  V30 54 1 27 51
M  V30 55 1 27 52
M  V30 56 1 28 53
M  V30 57 1 28 54
M  V30 58 1 29 55
M  V30 59 1 29 56
M  V30 60 1 30 57
M  V30 61 1 30 58
M  V30 END BOND
M  V30 END CTAB
M  END
>  <Dataset>  (971) 
ChEMBL_Kinases

>  <Ligand_Instance>  (971) 
nan

>  <PDB_ID>  (971) 
nan

>  <Standardized_SMILES>  (971) 
O=C(C[C@H]1CNC(=O)c2cc(-c3cccc(F)c3)cn21)N[C@H](CO)C1CCCCC1

>  <Name>  (971) 
nan

>  <Pocket>  (971) 
nan

>  <ATP_Site>  (971) 
nan

>  <Peripheral>  (971) 
nan

>  <Num_H_Atoms_ProtBoundConf>  (971) 
nan

>  <Num_Resolved_Atoms>  (971) 
nan

>  <Num_Not_Resolved_Atoms>  (971) 
nan

$$$$
CHEMBL3675409
     RDKit          3D

  0  0  0  0  0  0  0  0  0  0999 V3000
M  V30 BEGIN CTAB
M  V30 COUNTS 46 48 0 0 0
M  V30 BEGIN ATOM
M  V30 1 C -0.225490 -5.056809 3.461353 0
M  V30 2 N -0.467939 -4.365344 2.171837 0
M  V30 3 C -1.879693 -4.369888 2.010373 0
M  V30 4 C 0.198457 -3.123840 2.256336 0
M  V30 5 C 0.231275 -2.230366 1.090363 0
M  V30 6 N 0.986573 -1.011703 1.411152 0
M  V30 7 C 1.064161 0.012634 0.400226 0
M  V30 8 N 0.445026 -0.170605 -0.777364 0
M  V30 9 C 0.476137 0.750570 -1.747042 0
M  V30 10 N 1.150599 1.893962 -1.529677 0
M  V30 11 C 1.788449 2.136358 -0.377415 0
M  V30 12 C 2.469166 3.316656 -0.184098 0
M  V30 13 C 2.527174 4.345432 -1.213612 0
M  V30 14 N 3.210594 5.568441 -1.002081 0
M  V30 15 O 1.948107 4.142207 -2.336711 0
M  V30 16 C 3.115165 3.537526 1.013530 0
M  V30 17 C 3.098450 2.605943 2.027060 0
M  V30 18 C 2.405663 1.422054 1.811074 0
M  V30 19 C 1.759514 1.178608 0.638812 0
M  V30 20 C -1.055805 -1.779251 0.541178 0
M  V30 21 C -1.821600 -0.737445 1.023703 0
M  V30 22 C -3.008566 -0.446896 0.369722 0
M  V30 23 C -3.458326 -1.154418 -0.743872 0
M  V30 24 Cl -4.951303 -0.769973 -1.546414 0
M  V30 25 C -2.698870 -2.194723 -1.229979 0
M  V30 26 Cl -3.201353 -3.126612 -2.623538 0
M  V30 27 C -1.518268 -2.482670 -0.578489 0
M  V30 28 H 0.822037 -4.921043 3.775429 0
M  V30 29 H -0.985813 -4.692905 4.152518 0
M  V30 30 H -0.405748 -6.147591 3.291577 0
M  V30 31 H -2.406527 -4.899985 2.848049 0
M  V30 32 H -2.225041 -4.777123 1.038442 0
M  V30 33 H -2.255497 -3.332245 2.074305 0
M  V30 34 H -0.275157 -2.563686 3.119839 0
M  V30 35 H 1.243540 -3.286548 2.598556 0
M  V30 36 H 0.857655 -2.739508 0.300373 0
M  V30 37 H 1.418812 -0.971086 2.354882 0
M  V30 38 H -0.021449 0.599159 -2.689329 0
M  V30 39 H 3.051583 5.948468 -0.038708 0
M  V30 40 H 3.794498 6.033891 -1.707069 0
M  V30 41 H 3.666980 4.459822 1.209487 0
M  V30 42 H 3.614409 2.799258 2.964696 0
M  V30 43 H 2.409276 0.709127 2.621203 0
M  V30 44 H -1.451684 -0.206928 1.885170 0
M  V30 45 H -3.611526 0.370074 0.746592 0
M  V30 46 H -0.939348 -3.317469 -0.994539 0
M  V30 END ATOM
M  V30 BEGIN BOND
M  V30 1 1 1 2
M  V30 2 1 2 3
M  V30 3 1 2 4
M  V30 4 1 4 5
M  V30 5 1 5 6
M  V30 6 1 6 7
M  V30 7 2 7 8
M  V30 8 1 8 9
M  V30 9 2 9 10
M  V30 10 1 10 11
M  V30 11 2 11 12
M  V30 12 1 12 13
M  V30 13 1 13 14
M  V30 14 2 13 15
M  V30 15 1 12 16
M  V30 16 2 16 17
M  V30 17 1 17 18
M  V30 18 2 18 19
M  V30 19 1 5 20
M  V30 20 2 20 21
M  V30 21 1 21 22
M  V30 22 2 22 23
M  V30 23 1 23 24
M  V30 24 1 23 25
M  V30 25 1 25 26
M  V30 26 2 25 27
M  V30 27 1 19 7
M  V30 28 1 27 20
M  V30 29 1 19 11
M  V30 30 1 1 28
M  V30 31 1 1 29
M  V30 32 1 1 30
M  V30 33 1 3 31
M  V30 34 1 3 32
M  V30 35 1 3 33
M  V30 36 1 4 34
M  V30 37 1 4 35
M  V30 38 1 5 36
M  V30 39 1 6 37
M  V30 40 1 9 38
M  V30 41 1 14 39
M  V30 42 1 14 40
M  V30 43 1 16 41
M  V30 44 1 17 42
M  V30 45 1 18 43
M  V30 46 1 21 44
M  V30 47 1 22 45
M  V30 48 1 27 46
M  V30 END BOND
M  V30 END CTAB
M  END
>  <Dataset>  (972) 
ChEMBL_Kinases

>  <Ligand_Instance>  (972) 
nan

>  <PDB_ID>  (972) 
nan

>  <Standardized_SMILES>  (972) 
CN(C)CC(Nc1ncnc2c(C(N)=O)cccc12)c1ccc(Cl)c(Cl)c1

>  <Name>  (972) 
nan

>  <Pocket>  (972) 
nan

>  <ATP_Site>  (972) 
nan

>  <Peripheral>  (972) 
nan

>  <Num_H_Atoms_ProtBoundConf>  (972) 
nan

>  <Num_Resolved_Atoms>  (972) 
nan

>  <Num_Not_Resolved_Atoms>  (972) 
nan

$$$$
CHEMBL3318023
     RDKit          3D

  0  0  0  0  0  0  0  0  0  0999 V3000
M  V30 BEGIN CTAB
M  V30 COUNTS 42 44 0 0 0
M  V30 BEGIN ATOM
M  V30 1 C -0.089007 -7.526018 -0.060225 0
M  V30 2 C 0.056606 -6.046042 -0.069344 0
M  V30 3 N 0.512096 -5.519555 -1.339932 0
M  V30 4 C 0.631404 -4.103155 -1.286103 0
M  V30 5 O 0.360121 -3.440127 -0.233678 0
M  V30 6 N 1.068939 -3.340865 -2.429391 0
M  V30 7 C 1.190410 -1.908750 -2.377995 0
M  V30 8 C 1.610481 -1.168447 -3.473313 0
M  V30 9 C 1.684587 0.202552 -3.292030 0
M  V30 10 C 1.359712 0.805599 -2.090006 0
M  V30 11 N 1.417445 2.133164 -1.870219 0
M  V30 12 C 1.092335 2.684582 -0.682908 0
M  V30 13 C 0.677049 1.909018 0.386668 0
M  V30 14 C 0.308736 2.434524 1.701556 0
M  V30 15 C 0.537619 1.652993 2.817267 0
M  V30 16 C 0.223231 2.064159 4.098487 0
M  V30 17 C -0.349038 3.315026 4.296299 0
M  V30 18 O -0.703974 3.825183 5.547537 0
M  V30 19 C -0.520525 3.128112 6.743099 0
M  V30 20 C -0.584588 4.109210 3.190864 0
M  V30 21 C -0.266854 3.692563 1.900718 0
M  V30 22 C 0.601999 0.535897 0.207494 0
M  V30 23 C 0.946788 0.023640 -1.029764 0
M  V30 24 N 0.877005 -1.308467 -1.212852 0
M  V30 25 H 0.190986 -7.899830 0.946925 0
M  V30 26 H -1.157268 -7.843842 -0.182847 0
M  V30 27 H 0.571856 -8.051621 -0.784054 0
M  V30 28 H 0.832649 -5.760145 0.669583 0
M  V30 29 H -0.901164 -5.593378 0.255862 0
M  V30 30 H 0.751852 -5.994885 -2.236123 0
M  V30 31 H 1.308403 -3.815587 -3.324896 0
M  V30 32 H 1.855977 -1.654036 -4.390780 0
M  V30 33 H 2.005709 0.835337 -4.109124 0
M  V30 34 H 1.147763 3.753911 -0.533746 0
M  V30 35 H 0.977474 0.661737 2.792284 0
M  V30 36 H 0.386488 1.483086 4.995402 0
M  V30 37 H 0.531017 2.806898 6.911178 0
M  V30 38 H -0.958332 3.708037 7.561479 0
M  V30 39 H -1.128554 2.179766 6.662409 0
M  V30 40 H -1.031492 5.087706 3.337376 0
M  V30 41 H -0.445619 4.304283 1.023259 0
M  V30 42 H 0.284568 -0.154776 0.995297 0
M  V30 END ATOM
M  V30 BEGIN BOND
M  V30 1 1 1 2
M  V30 2 1 2 3
M  V30 3 1 3 4
M  V30 4 2 4 5
M  V30 5 1 4 6
M  V30 6 1 6 7
M  V30 7 2 7 8
M  V30 8 1 8 9
M  V30 9 2 9 10
M  V30 10 1 10 11
M  V30 11 2 11 12
M  V30 12 1 12 13
M  V30 13 1 13 14
M  V30 14 2 14 15
M  V30 15 1 15 16
M  V30 16 2 16 17
M  V30 17 1 17 18
M  V30 18 1 18 19
M  V30 19 1 17 20
M  V30 20 2 20 21
M  V30 21 2 13 22
M  V30 22 1 22 23
M  V30 23 2 23 24
M  V30 24 1 24 7
M  V30 25 1 23 10
M  V30 26 1 21 14
M  V30 27 1 1 25
M  V30 28 1 1 26
M  V30 29 1 1 27
M  V30 30 1 2 28
M  V30 31 1 2 29
M  V30 32 1 3 30
M  V30 33 1 6 31
M  V30 34 1 8 32
M  V30 35 1 9 33
M  V30 36 1 12 34
M  V30 37 1 15 35
M  V30 38 1 16 36
M  V30 39 1 19 37
M  V30 40 1 19 38
M  V30 41 1 19 39
M  V30 42 1 20 40
M  V30 43 1 21 41
M  V30 44 1 22 42
M  V30 END BOND
M  V30 END CTAB
M  END
>  <Dataset>  (973) 
ChEMBL_Kinases

>  <Ligand_Instance>  (973) 
nan

>  <PDB_ID>  (973) 
nan

>  <Standardized_SMILES>  (973) 
CCNC(=O)Nc1ccc2ncc(-c3ccc(OC)cc3)cc2n1

>  <Name>  (973) 
nan

>  <Pocket>  (973) 
nan

>  <ATP_Site>  (973) 
nan

>  <Peripheral>  (973) 
nan

>  <Num_H_Atoms_ProtBoundConf>  (973) 
nan

>  <Num_Resolved_Atoms>  (973) 
nan

>  <Num_Not_Resolved_Atoms>  (973) 
nan

$$$$
CHEMBL3318024
     RDKit          3D

  0  0  0  0  0  0  0  0  0  0999 V3000
M  V30 BEGIN CTAB
M  V30 COUNTS 46 48 0 0 0
M  V30 BEGIN ATOM
M  V30 1 C 3.623079 -6.089897 1.175800 0
M  V30 2 C 4.549761 -5.822441 0.040503 0
M  V30 3 N 3.962846 -5.084039 -1.056967 0
M  V30 4 C 3.434013 -3.802689 -0.871497 0
M  V30 5 O 3.428873 -3.222507 0.222080 0
M  V30 6 N 2.876844 -3.145187 -2.009217 0
M  V30 7 C 2.308127 -1.841907 -1.964470 0
M  V30 8 C 3.241899 -0.831269 -2.208869 0
M  V30 9 C 2.846873 0.505738 -2.199882 0
M  V30 10 C 1.515691 0.741740 -1.941222 0
M  V30 11 N 1.140842 2.035714 -1.932866 0
M  V30 12 C -0.160440 2.367440 -1.684211 0
M  V30 13 C -1.065389 1.354170 -1.445580 0
M  V30 14 C -2.443206 1.829211 -1.187358 0
M  V30 15 C -2.607945 3.064628 -0.549146 0
M  V30 16 C -3.923423 3.494728 -0.317879 0
M  V30 17 C -4.981205 2.703565 -0.718519 0
M  V30 18 O -6.266074 3.164363 -0.471952 0
M  V30 19 C -6.456585 4.409391 0.173183 0
M  V30 20 C -4.802510 1.488472 -1.346430 0
M  V30 21 O -5.937398 0.755870 -1.716519 0
M  V30 22 C -5.790071 -0.504575 -2.368242 0
M  V30 23 C -3.500298 1.038070 -1.587858 0
M  V30 24 C -0.747944 0.013360 -1.439926 0
M  V30 25 C 0.580511 -0.256845 -1.697333 0
M  V30 26 N 1.006008 -1.538274 -1.715432 0
M  V30 27 H 3.663793 -5.288232 1.958798 0
M  V30 28 H 2.602805 -6.371549 0.882014 0
M  V30 29 H 4.017081 -6.995523 1.723402 0
M  V30 30 H 5.401445 -5.214050 0.425047 0
M  V30 31 H 4.999604 -6.779402 -0.293394 0
M  V30 32 H 3.947096 -5.535877 -1.983896 0
M  V30 33 H 2.818667 -3.525815 -2.992457 0
M  V30 34 H 4.290905 -1.016350 -2.412395 0
M  V30 35 H 3.553256 1.292352 -2.386042 0
M  V30 36 H -0.384731 3.424713 -1.694353 0
M  V30 37 H -1.780787 3.686664 -0.233833 0
M  V30 38 H -4.015975 4.454102 0.177514 0
M  V30 39 H -5.852708 5.232288 -0.256449 0
M  V30 40 H -7.533296 4.658532 0.233648 0
M  V30 41 H -6.068410 4.259419 1.219065 0
M  V30 42 H -5.381818 -1.285790 -1.713883 0
M  V30 43 H -6.808188 -0.830580 -2.671032 0
M  V30 44 H -5.162566 -0.398265 -3.298891 0
M  V30 45 H -3.357000 0.087071 -2.079373 0
M  V30 46 H -1.490430 -0.738489 -1.248232 0
M  V30 END ATOM
M  V30 BEGIN BOND
M  V30 1 1 1 2
M  V30 2 1 2 3
M  V30 3 1 3 4
M  V30 4 2 4 5
M  V30 5 1 4 6
M  V30 6 1 6 7
M  V30 7 2 7 8
M  V30 8 1 8 9
M  V30 9 2 9 10
M  V30 10 1 10 11
M  V30 11 2 11 12
M  V30 12 1 12 13
M  V30 13 1 13 14
M  V30 14 2 14 15
M  V30 15 1 15 16
M  V30 16 2 16 17
M  V30 17 1 17 18
M  V30 18 1 18 19
M  V30 19 1 17 20
M  V30 20 1 20 21
M  V30 21 1 21 22
M  V30 22 2 20 23
M  V30 23 2 13 24
M  V30 24 1 24 25
M  V30 25 2 25 26
M  V30 26 1 26 7
M  V30 27 1 25 10
M  V30 28 1 23 14
M  V30 29 1 1 27
M  V30 30 1 1 28
M  V30 31 1 1 29
M  V30 32 1 2 30
M  V30 33 1 2 31
M  V30 34 1 3 32
M  V30 35 1 6 33
M  V30 36 1 8 34
M  V30 37 1 9 35
M  V30 38 1 12 36
M  V30 39 1 15 37
M  V30 40 1 16 38
M  V30 41 1 19 39
M  V30 42 1 19 40
M  V30 43 1 19 41
M  V30 44 1 22 42
M  V30 45 1 22 43
M  V30 46 1 22 44
M  V30 47 1 23 45
M  V30 48 1 24 46
M  V30 END BOND
M  V30 END CTAB
M  END
>  <Dataset>  (974) 
ChEMBL_Kinases

>  <Ligand_Instance>  (974) 
nan

>  <PDB_ID>  (974) 
nan

>  <Standardized_SMILES>  (974) 
CCNC(=O)Nc1ccc2ncc(-c3ccc(OC)c(OC)c3)cc2n1

>  <Name>  (974) 
nan

>  <Pocket>  (974) 
nan

>  <ATP_Site>  (974) 
nan

>  <Peripheral>  (974) 
nan

>  <Num_H_Atoms_ProtBoundConf>  (974) 
nan

>  <Num_Resolved_Atoms>  (974) 
nan

>  <Num_Not_Resolved_Atoms>  (974) 
nan

$$$$
CHEMBL3318025
     RDKit          3D

  0  0  0  0  0  0  0  0  0  0999 V3000
M  V30 BEGIN CTAB
M  V30 COUNTS 52 54 0 0 0
M  V30 BEGIN ATOM
M  V30 1 C -2.968110 -6.704371 0.410665 0
M  V30 2 O -1.659051 -6.812918 -0.116955 0
M  V30 3 C -0.963662 -5.652188 -0.432121 0
M  V30 4 C -1.625051 -4.439678 -0.198501 0
M  V30 5 C -0.971927 -3.260530 -0.497087 0
M  V30 6 C 0.307908 -3.293824 -1.015319 0
M  V30 7 C 1.000930 -2.048739 -1.330520 0
M  V30 8 C 1.930281 -1.852239 -2.330751 0
M  V30 9 N 2.508638 -0.654527 -2.529882 0
M  V30 10 C 2.234406 0.432380 -1.784045 0
M  V30 11 C 2.823856 1.663866 -1.982404 0
M  V30 12 C 2.497104 2.756913 -1.172869 0
M  V30 13 C 1.564376 2.521239 -0.184053 0
M  V30 14 N 1.146607 3.552528 0.706850 0
M  V30 15 C 0.195399 3.346752 1.737407 0
M  V30 16 O -0.262368 2.164774 1.811072 0
M  V30 17 N -0.275421 4.291497 2.655878 0
M  V30 18 C -1.262673 3.733571 3.592431 0
M  V30 19 C -0.548189 2.620351 4.324098 0
M  V30 20 C -2.443748 3.162475 2.881963 0
M  V30 21 C -1.723398 4.770446 4.572187 0
M  V30 22 N 1.007196 1.307833 -0.016051 0
M  V30 23 C 1.306709 0.248398 -0.780806 0
M  V30 24 C 0.688319 -0.961214 -0.539981 0
M  V30 25 C 0.935612 -4.503410 -1.235445 0
M  V30 26 C 0.320223 -5.705243 -0.951360 0
M  V30 27 O 0.842474 -6.977321 -1.126558 0
M  V30 28 C 2.137376 -7.197095 -1.644556 0
M  V30 29 H -2.877499 -6.095406 1.356428 0
M  V30 30 H -3.365605 -7.680350 0.712989 0
M  V30 31 H -3.601040 -6.163890 -0.332162 0
M  V30 32 H -2.628054 -4.395272 0.207005 0
M  V30 33 H -1.472622 -2.307698 -0.321112 0
M  V30 34 H 2.158601 -2.718271 -2.936293 0
M  V30 35 H 3.553553 1.781269 -2.782083 0
M  V30 36 H 2.945515 3.730300 -1.309496 0
M  V30 37 H 1.541734 4.535125 0.628770 0
M  V30 38 H 0.122299 5.258064 2.567584 0
M  V30 39 H -0.768083 2.665293 5.412101 0
M  V30 40 H 0.551516 2.629855 4.160730 0
M  V30 41 H -0.893256 1.614268 3.994011 0
M  V30 42 H -3.367762 3.392533 3.457780 0
M  V30 43 H -2.361647 2.050501 2.830792 0
M  V30 44 H -2.615205 3.605406 1.879847 0
M  V30 45 H -1.053409 4.924943 5.423161 0
M  V30 46 H -1.928257 5.728237 4.015834 0
M  V30 47 H -2.713708 4.405918 4.974931 0
M  V30 48 H -0.030890 -0.994925 0.280390 0
M  V30 49 H 1.935913 -4.568626 -1.639818 0
M  V30 50 H 2.602172 -8.118151 -1.213687 0
M  V30 51 H 2.849140 -6.375414 -1.458604 0
M  V30 52 H 2.037117 -7.309978 -2.748698 0
M  V30 END ATOM
M  V30 BEGIN BOND
M  V30 1 1 1 2
M  V30 2 1 2 3
M  V30 3 2 3 4
M  V30 4 1 4 5
M  V30 5 2 5 6
M  V30 6 1 6 7
M  V30 7 2 7 8
M  V30 8 1 8 9
M  V30 9 2 9 10
M  V30 10 1 10 11
M  V30 11 2 11 12
M  V30 12 1 12 13
M  V30 13 1 13 14
M  V30 14 1 14 15
M  V30 15 2 15 16
M  V30 16 1 15 17
M  V30 17 1 17 18
M  V30 18 1 18 19
M  V30 19 1 18 20
M  V30 20 1 18 21
M  V30 21 2 13 22
M  V30 22 1 22 23
M  V30 23 2 23 24
M  V30 24 1 6 25
M  V30 25 2 25 26
M  V30 26 1 26 27
M  V30 27 1 27 28
M  V30 28 1 26 3
M  V30 29 1 24 7
M  V30 30 1 23 10
M  V30 31 1 1 29
M  V30 32 1 1 30
M  V30 33 1 1 31
M  V30 34 1 4 32
M  V30 35 1 5 33
M  V30 36 1 8 34
M  V30 37 1 11 35
M  V30 38 1 12 36
M  V30 39 1 14 37
M  V30 40 1 17 38
M  V30 41 1 19 39
M  V30 42 1 19 40
M  V30 43 1 19 41
M  V30 44 1 20 42
M  V30 45 1 20 43
M  V30 46 1 20 44
M  V30 47 1 21 45
M  V30 48 1 21 46
M  V30 49 1 21 47
M  V30 50 1 24 48
M  V30 51 1 25 49
M  V30 52 1 28 50
M  V30 53 1 28 51
M  V30 54 1 28 52
M  V30 END BOND
M  V30 END CTAB
M  END
>  <Dataset>  (975) 
ChEMBL_Kinases

>  <Ligand_Instance>  (975) 
nan

>  <PDB_ID>  (975) 
nan

>  <Standardized_SMILES>  (975) 
COc1ccc(-c2cnc3ccc(NC(=O)NC(C)(C)C)nc3c2)cc1OC

>  <Name>  (975) 
nan

>  <Pocket>  (975) 
nan

>  <ATP_Site>  (975) 
nan

>  <Peripheral>  (975) 
nan

>  <Num_H_Atoms_ProtBoundConf>  (975) 
nan

>  <Num_Resolved_Atoms>  (975) 
nan

>  <Num_Not_Resolved_Atoms>  (975) 
nan

$$$$
CHEMBL3318026
     RDKit          3D

  0  0  0  0  0  0  0  0  0  0999 V3000
M  V30 BEGIN CTAB
M  V30 COUNTS 49 51 0 0 0
M  V30 BEGIN ATOM
M  V30 1 C -2.060857 -7.342409 -2.426534 0
M  V30 2 O -3.010906 -6.848322 -1.527923 0
M  V30 3 C -3.121272 -5.558091 -1.075058 0
M  V30 4 C -2.315517 -4.495860 -1.418773 0
M  V30 5 C -2.469627 -3.214141 -0.933061 0
M  V30 6 C -1.585372 -2.126064 -1.334856 0
M  V30 7 C -0.968171 -1.981499 -2.560134 0
M  V30 8 N -0.165321 -0.928381 -2.822341 0
M  V30 9 C 0.075659 0.034340 -1.905397 0
M  V30 10 C 0.910491 1.074510 -2.261943 0
M  V30 11 C 1.172366 2.070777 -1.341343 0
M  V30 12 C 0.570502 1.958147 -0.102489 0
M  V30 13 N 0.660388 2.834680 1.037331 0
M  V30 14 C 1.741720 2.497239 1.924337 0
M  V30 15 O 2.531183 1.525696 1.708549 0
M  V30 16 N 1.898710 3.310795 3.081103 0
M  V30 17 C 2.980560 3.015925 4.018605 0
M  V30 18 C 2.983614 3.972537 5.180304 0
M  V30 19 C 4.267426 3.235166 3.237495 0
M  V30 20 C 2.964577 1.581970 4.459842 0
M  V30 21 N -0.237493 0.923819 0.199768 0
M  V30 22 C -0.523059 -0.073156 -0.666317 0
M  V30 23 C -1.349701 -1.140230 -0.369873 0
M  V30 24 C -3.502682 -2.956011 -0.034167 0
M  V30 25 C -4.307501 -4.030708 0.305178 0
M  V30 26 C -4.161392 -5.310137 -0.173522 0
M  V30 27 O -5.050335 -6.303126 0.256008 0
M  V30 28 H -2.534157 -8.139357 -3.018637 0
M  V30 29 H -1.202577 -7.823976 -1.876072 0
M  V30 30 H -1.614369 -6.533363 -3.068566 0
M  V30 31 H -1.509340 -4.713158 -2.124465 0
M  V30 32 H -1.177713 -2.770364 -3.283356 0
M  V30 33 H 1.396663 1.198302 -3.212791 0
M  V30 34 H 1.785853 2.947404 -1.429803 0
M  V30 35 H -0.008986 3.601743 1.151341 0
M  V30 36 H 1.241488 4.111276 3.252301 0
M  V30 37 H 2.136185 4.693489 5.158195 0
M  V30 38 H 2.797033 3.351084 6.099135 0
M  V30 39 H 3.950033 4.470500 5.279408 0
M  V30 40 H 4.519839 2.399528 2.564549 0
M  V30 41 H 4.108659 4.160756 2.613893 0
M  V30 42 H 5.087874 3.475502 3.945613 0
M  V30 43 H 1.936567 1.162684 4.487855 0
M  V30 44 H 3.658811 0.988809 3.857412 0
M  V30 45 H 3.362379 1.544431 5.516722 0
M  V30 46 H -1.777555 -1.143537 0.629045 0
M  V30 47 H -3.668344 -1.973491 0.376097 0
M  V30 48 H -5.100706 -3.794634 1.005859 0
M  V30 49 H -4.722723 -7.048548 0.867074 0
M  V30 END ATOM
M  V30 BEGIN BOND
M  V30 1 1 1 2
M  V30 2 1 2 3
M  V30 3 2 3 4
M  V30 4 1 4 5
M  V30 5 1 5 6
M  V30 6 2 6 7
M  V30 7 1 7 8
M  V30 8 2 8 9
M  V30 9 1 9 10
M  V30 10 2 10 11
M  V30 11 1 11 12
M  V30 12 1 12 13
M  V30 13 1 13 14
M  V30 14 2 14 15
M  V30 15 1 14 16
M  V30 16 1 16 17
M  V30 17 1 17 18
M  V30 18 1 17 19
M  V30 19 1 17 20
M  V30 20 2 12 21
M  V30 21 1 21 22
M  V30 22 2 22 23
M  V30 23 2 5 24
M  V30 24 1 24 25
M  V30 25 2 25 26
M  V30 26 1 26 27
M  V30 27 1 26 3
M  V30 28 1 23 6
M  V30 29 1 22 9
M  V30 30 1 1 28
M  V30 31 1 1 29
M  V30 32 1 1 30
M  V30 33 1 4 31
M  V30 34 1 7 32
M  V30 35 1 10 33
M  V30 36 1 11 34
M  V30 37 1 13 35
M  V30 38 1 16 36
M  V30 39 1 18 37
M  V30 40 1 18 38
M  V30 41 1 18 39
M  V30 42 1 19 40
M  V30 43 1 19 41
M  V30 44 1 19 42
M  V30 45 1 20 43
M  V30 46 1 20 44
M  V30 47 1 20 45
M  V30 48 1 23 46
M  V30 49 1 24 47
M  V30 50 1 25 48
M  V30 51 1 27 49
M  V30 END BOND
M  V30 END CTAB
M  END
>  <Dataset>  (976) 
ChEMBL_Kinases

>  <Ligand_Instance>  (976) 
nan

>  <PDB_ID>  (976) 
nan

>  <Standardized_SMILES>  (976) 
COc1cc(-c2cnc3ccc(NC(=O)NC(C)(C)C)nc3c2)ccc1O

>  <Name>  (976) 
nan

>  <Pocket>  (976) 
nan

>  <ATP_Site>  (976) 
nan

>  <Peripheral>  (976) 
nan

>  <Num_H_Atoms_ProtBoundConf>  (976) 
nan

>  <Num_Resolved_Atoms>  (976) 
nan

>  <Num_Not_Resolved_Atoms>  (976) 
nan

$$$$
CHEMBL3318027
     RDKit          3D

  0  0  0  0  0  0  0  0  0  0999 V3000
M  V30 BEGIN CTAB
M  V30 COUNTS 44 46 0 0 0
M  V30 BEGIN ATOM
M  V30 1 C -3.181280 -7.820236 1.439485 0
M  V30 2 N -2.473856 -6.577395 1.202088 0
M  V30 3 C -2.828653 -5.628330 0.317164 0
M  V30 4 C -1.886720 -4.620802 0.414263 0
M  V30 5 C -1.736239 -3.347767 -0.280802 0
M  V30 6 C -2.118939 -3.109618 -1.584356 0
M  V30 7 N -1.962641 -1.918506 -2.190622 0
M  V30 8 C -1.411785 -0.858905 -1.553706 0
M  V30 9 C -1.288439 0.313599 -2.238512 0
M  V30 10 C -0.726469 1.391209 -1.586877 0
M  V30 11 C -0.321924 1.219145 -0.279345 0
M  V30 12 N 0.285836 2.163664 0.618563 0
M  V30 13 C 1.670843 2.415097 0.804990 0
M  V30 14 O 2.402004 1.717912 0.090244 0
M  V30 15 N 2.063969 3.385616 1.739026 0
M  V30 16 C 3.476438 3.645249 1.933479 0
M  V30 17 C 4.158784 4.112510 0.666514 0
M  V30 18 C 3.615334 4.671811 3.038975 0
M  V30 19 C 4.180553 2.373867 2.398224 0
M  V30 20 N -0.468157 0.029597 0.355259 0
M  V30 21 C -1.016697 -1.054617 -0.252300 0
M  V30 22 C -1.164189 -2.271181 0.401725 0
M  V30 23 C -0.994246 -5.052640 1.391661 0
M  V30 24 N -1.373658 -6.253868 1.860471 0
M  V30 25 H -3.973778 -7.605998 2.178127 0
M  V30 26 H -3.623671 -8.183299 0.503174 0
M  V30 27 H -2.479093 -8.605706 1.783582 0
M  V30 28 H -3.657076 -5.584697 -0.361982 0
M  V30 29 H -2.561557 -3.918703 -2.133609 0
M  V30 30 H -1.585604 0.497359 -3.249696 0
M  V30 31 H -0.543854 2.391714 -1.950185 0
M  V30 32 H -0.479736 2.654436 1.132406 0
M  V30 33 H 1.325988 3.901768 2.275661 0
M  V30 34 H 4.080438 3.334575 -0.092541 0
M  V30 35 H 5.231464 4.239638 0.919095 0
M  V30 36 H 3.752135 5.096407 0.353379 0
M  V30 37 H 3.793423 5.698441 2.629782 0
M  V30 38 H 2.680557 4.745354 3.637588 0
M  V30 39 H 4.408045 4.409217 3.777280 0
M  V30 40 H 4.738586 1.900011 1.563586 0
M  V30 41 H 3.410858 1.702143 2.835564 0
M  V30 42 H 4.918435 2.573367 3.202147 0
M  V30 43 H -0.821774 -2.328807 1.430839 0
M  V30 44 H -0.115767 -4.513449 1.737777 0
M  V30 END ATOM
M  V30 BEGIN BOND
M  V30 1 1 1 2
M  V30 2 1 2 3
M  V30 3 2 3 4
M  V30 4 1 4 5
M  V30 5 2 5 6
M  V30 6 1 6 7
M  V30 7 2 7 8
M  V30 8 1 8 9
M  V30 9 2 9 10
M  V30 10 1 10 11
M  V30 11 1 11 12
M  V30 12 1 12 13
M  V30 13 2 13 14
M  V30 14 1 13 15
M  V30 15 1 15 16
M  V30 16 1 16 17
M  V30 17 1 16 18
M  V30 18 1 16 19
M  V30 19 2 11 20
M  V30 20 1 20 21
M  V30 21 2 21 22
M  V30 22 1 4 23
M  V30 23 2 23 24
M  V30 24 1 24 2
M  V30 25 1 22 5
M  V30 26 1 21 8
M  V30 27 1 1 25
M  V30 28 1 1 26
M  V30 29 1 1 27
M  V30 30 1 3 28
M  V30 31 1 6 29
M  V30 32 1 9 30
M  V30 33 1 10 31
M  V30 34 1 12 32
M  V30 35 1 15 33
M  V30 36 1 17 34
M  V30 37 1 17 35
M  V30 38 1 17 36
M  V30 39 1 18 37
M  V30 40 1 18 38
M  V30 41 1 18 39
M  V30 42 1 19 40
M  V30 43 1 19 41
M  V30 44 1 19 42
M  V30 45 1 22 43
M  V30 46 1 23 44
M  V30 END BOND
M  V30 END CTAB
M  END
>  <Dataset>  (977) 
ChEMBL_Kinases

>  <Ligand_Instance>  (977) 
nan

>  <PDB_ID>  (977) 
nan

>  <Standardized_SMILES>  (977) 
Cn1cc(-c2cnc3ccc(NC(=O)NC(C)(C)C)nc3c2)cn1

>  <Name>  (977) 
nan

>  <Pocket>  (977) 
nan

>  <ATP_Site>  (977) 
nan

>  <Peripheral>  (977) 
nan

>  <Num_H_Atoms_ProtBoundConf>  (977) 
nan

>  <Num_Resolved_Atoms>  (977) 
nan

>  <Num_Not_Resolved_Atoms>  (977) 
nan

$$$$
CHEMBL3318028
     RDKit          3D

  0  0  0  0  0  0  0  0  0  0999 V3000
M  V30 BEGIN CTAB
M  V30 COUNTS 42 45 0 0 0
M  V30 BEGIN ATOM
M  V30 1 C 1.455289 -6.698206 1.375549 0
M  V30 2 N 1.407905 -6.041918 0.074447 0
M  V30 3 C 1.562754 -4.711596 -0.012055 0
M  V30 4 C 1.479381 -4.316320 -1.351707 0
M  V30 5 C 1.600083 -2.938041 -1.844101 0
M  V30 6 C 2.117205 -2.596160 -3.076432 0
M  V30 7 N 2.196381 -1.297854 -3.461666 0
M  V30 8 C 1.781243 -0.286556 -2.675084 0
M  V30 9 C 1.844156 1.045337 -3.028260 0
M  V30 10 C 1.406145 2.061845 -2.190025 0
M  V30 11 C 0.903271 1.637872 -0.977098 0
M  V30 12 N 0.430986 2.614951 -0.053598 0
M  V30 13 C -0.095608 2.226604 1.206318 0
M  V30 14 O -0.114114 1.006975 1.436740 0
M  V30 15 N -0.576401 3.119064 2.164187 0
M  V30 16 C -1.123891 2.881088 3.447957 0
M  V30 17 C -1.298646 1.648065 4.031027 0
M  V30 18 C -1.831583 1.421035 5.281576 0
M  V30 19 C -2.230622 2.507571 6.030209 0
M  V30 20 C -2.069866 3.759316 5.476249 0
M  V30 21 C -1.529535 3.920308 4.218700 0
M  V30 22 N 0.847643 0.334247 -0.645104 0
M  V30 23 C 1.267284 -0.652479 -1.446123 0
M  V30 24 C 1.147809 -1.943093 -0.970353 0
M  V30 25 C 1.267297 -5.496596 -2.033661 0
M  V30 26 N 1.229058 -6.521752 -1.143542 0
M  V30 27 H 1.496741 -7.799027 1.243399 0
M  V30 28 H 2.392438 -6.423762 1.924768 0
M  V30 29 H 0.542006 -6.439737 1.961821 0
M  V30 30 H 1.729328 -3.988489 0.777922 0
M  V30 31 H 2.455009 -3.398025 -3.719700 0
M  V30 32 H 2.263281 1.255550 -4.016845 0
M  V30 33 H 1.470448 3.088647 -2.498309 0
M  V30 34 H 0.461257 3.629968 -0.279566 0
M  V30 35 H -0.502706 4.118983 1.842654 0
M  V30 36 H -1.009772 0.752299 3.505105 0
M  V30 37 H -1.945770 0.428326 5.690597 0
M  V30 38 H -2.653120 2.370346 7.015473 0
M  V30 39 H -2.364186 4.648553 6.015309 0
M  V30 40 H -1.426600 4.946274 3.830575 0
M  V30 41 H 0.727874 -2.119315 0.014604 0
M  V30 42 H 1.155041 -5.546844 -3.110241 0
M  V30 END ATOM
M  V30 BEGIN BOND
M  V30 1 1 1 2
M  V30 2 1 2 3
M  V30 3 2 3 4
M  V30 4 1 4 5
M  V30 5 2 5 6
M  V30 6 1 6 7
M  V30 7 2 7 8
M  V30 8 1 8 9
M  V30 9 2 9 10
M  V30 10 1 10 11
M  V30 11 1 11 12
M  V30 12 1 12 13
M  V30 13 2 13 14
M  V30 14 1 13 15
M  V30 15 1 15 16
M  V30 16 2 16 17
M  V30 17 1 17 18
M  V30 18 2 18 19
M  V30 19 1 19 20
M  V30 20 2 20 21
M  V30 21 2 11 22
M  V30 22 1 22 23
M  V30 23 2 23 24
M  V30 24 1 4 25
M  V30 25 2 25 26
M  V30 26 1 26 2
M  V30 27 1 24 5
M  V30 28 1 23 8
M  V30 29 1 21 16
M  V30 30 1 1 27
M  V30 31 1 1 28
M  V30 32 1 1 29
M  V30 33 1 3 30
M  V30 34 1 6 31
M  V30 35 1 9 32
M  V30 36 1 10 33
M  V30 37 1 12 34
M  V30 38 1 15 35
M  V30 39 1 17 36
M  V30 40 1 18 37
M  V30 41 1 19 38
M  V30 42 1 20 39
M  V30 43 1 21 40
M  V30 44 1 24 41
M  V30 45 1 25 42
M  V30 END BOND
M  V30 END CTAB
M  END
>  <Dataset>  (978) 
ChEMBL_Kinases

>  <Ligand_Instance>  (978) 
nan

>  <PDB_ID>  (978) 
nan

>  <Standardized_SMILES>  (978) 
Cn1cc(-c2cnc3ccc(NC(=O)Nc4ccccc4)nc3c2)cn1

>  <Name>  (978) 
nan

>  <Pocket>  (978) 
nan

>  <ATP_Site>  (978) 
nan

>  <Peripheral>  (978) 
nan

>  <Num_H_Atoms_ProtBoundConf>  (978) 
nan

>  <Num_Resolved_Atoms>  (978) 
nan

>  <Num_Not_Resolved_Atoms>  (978) 
nan

$$$$
CHEMBL3318029
     RDKit          3D

  0  0  0  0  0  0  0  0  0  0999 V3000
M  V30 BEGIN CTAB
M  V30 COUNTS 45 48 0 0 0
M  V30 BEGIN ATOM
M  V30 1 C 1.104903 -7.009533 1.695958 0
M  V30 2 N 1.102538 -6.203489 0.470180 0
M  V30 3 C 1.433937 -4.898814 0.354127 0
M  V30 4 C 1.307802 -4.491789 -0.962467 0
M  V30 5 C 1.550356 -3.188577 -1.575000 0
M  V30 6 C 1.985279 -2.981014 -2.867679 0
M  V30 7 N 2.181134 -1.727949 -3.341560 0
M  V30 8 C 1.970784 -0.623530 -2.604116 0
M  V30 9 C 2.161958 0.664981 -3.060203 0
M  V30 10 C 1.932598 1.779680 -2.264361 0
M  V30 11 C 1.498744 1.520202 -0.980498 0
M  V30 12 N 1.236527 2.600730 -0.090200 0
M  V30 13 C 0.786508 2.369071 1.223786 0
M  V30 14 O 0.635794 1.142578 1.548024 0
M  V30 15 N 0.505624 3.396938 2.161130 0
M  V30 16 C 0.038630 3.236476 3.522594 0
M  V30 17 C -1.381742 2.898405 3.639642 0
M  V30 18 C -1.809999 1.587248 3.664056 0
M  V30 19 C -3.129575 1.201842 3.769653 0
M  V30 20 C -4.114911 2.168413 3.859091 0
M  V30 21 C -3.713222 3.494951 3.837077 0
M  V30 22 C -2.383582 3.871019 3.730527 0
M  V30 23 N 1.318127 0.256737 -0.553539 0
M  V30 24 C 1.532261 -0.841776 -1.301776 0
M  V30 25 C 1.316060 -2.095474 -0.766422 0
M  V30 26 C 0.881478 -5.619335 -1.642555 0
M  V30 27 N 0.779334 -6.603368 -0.730506 0
M  V30 28 H 1.422906 -8.051596 1.504093 0
M  V30 29 H 0.092124 -6.943825 2.143606 0
M  V30 30 H 1.815894 -6.562494 2.431073 0
M  V30 31 H 1.757973 -4.238233 1.166952 0
M  V30 32 H 2.159954 -3.859675 -3.477081 0
M  V30 33 H 2.509507 0.781247 -4.097679 0
M  V30 34 H 2.092126 2.777905 -2.652440 0
M  V30 35 H 1.379784 3.591399 -0.415893 0
M  V30 36 H 0.677376 4.365004 1.756338 0
M  V30 37 H 0.278747 4.172299 4.058051 0
M  V30 38 H 0.638452 2.445105 4.053913 0
M  V30 39 H -1.134245 0.746466 3.602491 0
M  V30 40 H -3.458657 0.176169 3.788170 0
M  V30 41 H -5.172714 1.970792 3.944577 0
M  V30 42 H -4.486618 4.270889 3.907289 0
M  V30 43 H -2.111000 4.917107 3.716918 0
M  V30 44 H 0.972226 -2.135392 0.267250 0
M  V30 45 H 0.667653 -5.700796 -2.712445 0
M  V30 END ATOM
M  V30 BEGIN BOND
M  V30 1 1 1 2
M  V30 2 1 2 3
M  V30 3 2 3 4
M  V30 4 1 4 5
M  V30 5 2 5 6
M  V30 6 1 6 7
M  V30 7 2 7 8
M  V30 8 1 8 9
M  V30 9 2 9 10
M  V30 10 1 10 11
M  V30 11 1 11 12
M  V30 12 1 12 13
M  V30 13 2 13 14
M  V30 14 1 13 15
M  V30 15 1 15 16
M  V30 16 1 16 17
M  V30 17 2 17 18
M  V30 18 1 18 19
M  V30 19 2 19 20
M  V30 20 1 20 21
M  V30 21 2 21 22
M  V30 22 2 11 23
M  V30 23 1 23 24
M  V30 24 2 24 25
M  V30 25 1 4 26
M  V30 26 2 26 27
M  V30 27 1 27 2
M  V30 28 1 25 5
M  V30 29 1 24 8
M  V30 30 1 22 17
M  V30 31 1 1 28
M  V30 32 1 1 29
M  V30 33 1 1 30
M  V30 34 1 3 31
M  V30 35 1 6 32
M  V30 36 1 9 33
M  V30 37 1 10 34
M  V30 38 1 12 35
M  V30 39 1 15 36
M  V30 40 1 16 37
M  V30 41 1 16 38
M  V30 42 1 18 39
M  V30 43 1 19 40
M  V30 44 1 20 41
M  V30 45 1 21 42
M  V30 46 1 22 43
M  V30 47 1 25 44
M  V30 48 1 26 45
M  V30 END BOND
M  V30 END CTAB
M  END
>  <Dataset>  (979) 
ChEMBL_Kinases

>  <Ligand_Instance>  (979) 
nan

>  <PDB_ID>  (979) 
nan

>  <Standardized_SMILES>  (979) 
Cn1cc(-c2cnc3ccc(NC(=O)NCc4ccccc4)nc3c2)cn1

>  <Name>  (979) 
nan

>  <Pocket>  (979) 
nan

>  <ATP_Site>  (979) 
nan

>  <Peripheral>  (979) 
nan

>  <Num_H_Atoms_ProtBoundConf>  (979) 
nan

>  <Num_Resolved_Atoms>  (979) 
nan

>  <Num_Not_Resolved_Atoms>  (979) 
nan

$$$$
CHEMBL3318030
     RDKit          3D

  0  0  0  0  0  0  0  0  0  0999 V3000
M  V30 BEGIN CTAB
M  V30 COUNTS 48 51 0 0 0
M  V30 BEGIN ATOM
M  V30 1 C -2.295892 -8.482843 -1.688297 0
M  V30 2 N -1.316780 -7.428088 -1.386428 0
M  V30 3 C -1.260377 -6.205438 -1.979502 0
M  V30 4 C -0.187747 -5.535171 -1.394207 0
M  V30 5 C 0.176905 -4.159338 -1.798289 0
M  V30 6 C -0.063590 -3.827655 -3.117479 0
M  V30 7 N 0.253464 -2.576438 -3.538447 0
M  V30 8 C 0.795812 -1.672366 -2.677265 0
M  V30 9 C 1.105180 -0.394704 -3.159730 0
M  V30 10 C 1.658698 0.528905 -2.280909 0
M  V30 11 C 1.884677 0.160473 -0.968857 0
M  V30 12 N 2.456323 1.067150 0.004366 0
M  V30 13 C 1.573145 1.883688 0.766991 0
M  V30 14 O 0.339084 1.772151 0.552492 0
M  V30 15 N 2.112840 2.763785 1.710524 0
M  V30 16 C 1.305948 3.638811 2.542220 0
M  V30 17 C 0.393487 2.771920 3.366216 0
M  V30 18 C -0.484237 3.576014 4.262736 0
M  V30 19 C -1.725323 3.996876 3.801830 0
M  V30 20 C -2.611488 4.744486 4.551505 0
M  V30 21 C -2.222431 5.083617 5.832508 0
M  V30 22 C -1.006119 4.695723 6.343378 0
M  V30 23 C -0.147049 3.949536 5.564958 0
M  V30 24 N 1.579681 -1.089551 -0.505464 0
M  V30 25 C 1.034993 -2.011238 -1.353859 0
M  V30 26 C 0.728544 -3.278182 -0.873222 0
M  V30 27 C 0.354124 -6.411857 -0.459978 0
M  V30 28 N -0.357228 -7.552525 -0.482399 0
M  V30 29 H -2.773501 -8.839441 -0.750414 0
M  V30 30 H -1.720577 -9.325362 -2.115226 0
M  V30 31 H -3.049867 -8.071276 -2.362796 0
M  V30 32 H -1.948294 -5.863067 -2.760662 0
M  V30 33 H -0.497542 -4.543930 -3.815429 0
M  V30 34 H 0.926607 -0.110188 -4.188720 0
M  V30 35 H 1.928040 1.539600 -2.571658 0
M  V30 36 H 3.510321 1.113035 0.136968 0
M  V30 37 H 3.164522 2.813751 1.844699 0
M  V30 38 H 1.899031 4.331418 3.134415 0
M  V30 39 H 0.643735 4.183074 1.805149 0
M  V30 40 H -0.283629 2.154295 2.761281 0
M  V30 41 H 1.038506 2.073656 3.943769 0
M  V30 42 H -2.030226 3.727926 2.790657 0
M  V30 43 H -3.555963 5.028866 4.114145 0
M  V30 44 H -2.884569 5.667691 6.454226 0
M  V30 45 H -0.648174 4.927181 7.327864 0
M  V30 46 H 0.830514 3.599681 5.883828 0
M  V30 47 H 0.901673 -3.567028 0.140160 0
M  V30 48 H 1.218772 -6.014832 0.087081 0
M  V30 END ATOM
M  V30 BEGIN BOND
M  V30 1 1 1 2
M  V30 2 1 2 3
M  V30 3 2 3 4
M  V30 4 1 4 5
M  V30 5 2 5 6
M  V30 6 1 6 7
M  V30 7 2 7 8
M  V30 8 1 8 9
M  V30 9 2 9 10
M  V30 10 1 10 11
M  V30 11 1 11 12
M  V30 12 1 12 13
M  V30 13 2 13 14
M  V30 14 1 13 15
M  V30 15 1 15 16
M  V30 16 1 16 17
M  V30 17 1 17 18
M  V30 18 2 18 19
M  V30 19 1 19 20
M  V30 20 2 20 21
M  V30 21 1 21 22
M  V30 22 2 22 23
M  V30 23 2 11 24
M  V30 24 1 24 25
M  V30 25 2 25 26
M  V30 26 1 4 27
M  V30 27 2 27 28
M  V30 28 1 28 2
M  V30 29 1 26 5
M  V30 30 1 25 8
M  V30 31 1 23 18
M  V30 32 1 1 29
M  V30 33 1 1 30
M  V30 34 1 1 31
M  V30 35 1 3 32
M  V30 36 1 6 33
M  V30 37 1 9 34
M  V30 38 1 10 35
M  V30 39 1 12 36
M  V30 40 1 15 37
M  V30 41 1 16 38
M  V30 42 1 16 39
M  V30 43 1 17 40
M  V30 44 1 17 41
M  V30 45 1 19 42
M  V30 46 1 20 43
M  V30 47 1 21 44
M  V30 48 1 22 45
M  V30 49 1 23 46
M  V30 50 1 26 47
M  V30 51 1 27 48
M  V30 END BOND
M  V30 END CTAB
M  END
>  <Dataset>  (980) 
ChEMBL_Kinases

>  <Ligand_Instance>  (980) 
nan

>  <PDB_ID>  (980) 
nan

>  <Standardized_SMILES>  (980) 
Cn1cc(-c2cnc3ccc(NC(=O)NCCc4ccccc4)nc3c2)cn1

>  <Name>  (980) 
nan

>  <Pocket>  (980) 
nan

>  <ATP_Site>  (980) 
nan

>  <Peripheral>  (980) 
nan

>  <Num_H_Atoms_ProtBoundConf>  (980) 
nan

>  <Num_Resolved_Atoms>  (980) 
nan

>  <Num_Not_Resolved_Atoms>  (980) 
nan

$$$$
CHEMBL3675417
     RDKit          3D

  0  0  0  0  0  0  0  0  0  0999 V3000
M  V30 BEGIN CTAB
M  V30 COUNTS 63 66 0 0 0
M  V30 BEGIN ATOM
M  V30 1 C 1.850757 0.745461 2.364871 0
M  V30 2 N 1.110427 1.761777 1.701852 0
M  V30 3 C 1.615733 3.061511 2.083869 0
M  V30 4 C 0.962651 1.696860 0.289544 0
M  V30 5 C 0.076641 0.636812 -0.281631 0
M  V30 6 N 0.017903 0.720400 -1.734812 0
M  V30 7 C 1.101786 0.786729 -2.656196 0
M  V30 8 N 2.391158 0.800141 -2.293765 0
M  V30 9 C 3.401614 0.874240 -3.160584 0
M  V30 10 N 3.163760 0.941029 -4.481102 0
M  V30 11 C 1.890266 0.932805 -4.928003 0
M  V30 12 C 1.646607 1.001091 -6.279611 0
M  V30 13 C 2.797768 1.080735 -7.170196 0
M  V30 14 N 2.700160 1.153892 -8.583917 0
M  V30 15 O 3.977446 1.090363 -6.740553 0
M  V30 16 C 0.374298 0.996947 -6.808374 0
M  V30 17 C -0.661812 0.920293 -5.909580 0
M  V30 18 C -0.386783 0.852675 -4.553049 0
M  V30 19 C 0.867107 0.855582 -4.011767 0
M  V30 20 C 0.305921 -0.673507 0.268022 0
M  V30 21 C 1.127384 -1.683220 -0.184506 0
M  V30 22 C 1.301464 -2.924696 0.384650 0
M  V30 23 C 0.593531 -3.221564 1.529742 0
M  V30 24 C -0.263403 -2.293445 2.082470 0
M  V30 25 N -1.005304 -2.552122 3.263029 0
M  V30 26 C -2.273358 -3.120462 3.449240 0
M  V30 27 O -2.760104 -3.420839 2.323382 0
M  V30 28 C -2.900977 -3.319640 4.747308 0
M  V30 29 C -4.136122 -3.961248 4.637572 0
M  V30 30 C -4.889115 -4.249872 5.754704 0
M  V30 31 C -4.471689 -3.927530 7.007805 0
M  V30 32 C -5.203755 -4.194418 8.285767 0
M  V30 33 F -5.975162 -3.096043 8.637945 0
M  V30 34 F -6.062915 -5.253509 8.149082 0
M  V30 35 F -4.331073 -4.434997 9.318830 0
M  V30 36 C -3.255853 -3.294481 7.128164 0
M  V30 37 C -2.503250 -3.005311 6.020485 0
M  V30 38 F -1.308002 -2.385911 6.077567 0
M  V30 39 C -0.362786 -1.083627 1.433125 0
M  V30 40 H 2.729428 1.268163 2.888474 0
M  V30 41 H 2.306392 -0.021792 1.733780 0
M  V30 42 H 1.293835 0.328687 3.258932 0
M  V30 43 H 2.543736 3.230881 1.482581 0
M  V30 44 H 1.909448 3.125800 3.131626 0
M  V30 45 H 0.901795 3.830015 1.736601 0
M  V30 46 H 0.713721 2.714586 -0.144265 0
M  V30 47 H 2.005550 1.531758 -0.114310 0
M  V30 48 H -0.977846 0.933885 0.110842 0
M  V30 49 H -0.948726 0.725729 -2.091511 0
M  V30 50 H 4.406416 0.876620 -2.723132 0
M  V30 51 H 2.011659 1.437152 -9.333677 0
M  V30 52 H 1.954818 1.456300 -9.222401 0
M  V30 53 H 0.262162 1.053400 -7.875002 0
M  V30 54 H -1.657804 0.916658 -6.321426 0
M  V30 55 H -1.279902 0.796723 -3.953893 0
M  V30 56 H 1.700335 -1.522367 -1.069265 0
M  V30 57 H 1.969405 -3.663785 -0.036007 0
M  V30 58 H 0.679501 -4.173821 2.027982 0
M  V30 59 H -0.410580 -2.225240 4.051975 0
M  V30 60 H -4.592973 -4.277666 3.685989 0
M  V30 61 H -5.843915 -4.746475 5.673399 0
M  V30 62 H -2.799732 -2.980184 8.064833 0
M  V30 63 H -1.055106 -0.360498 1.896787 0
M  V30 END ATOM
M  V30 BEGIN BOND
M  V30 1 1 1 2
M  V30 2 1 2 3
M  V30 3 1 2 4
M  V30 4 1 4 5
M  V30 5 1 5 6
M  V30 6 1 6 7
M  V30 7 2 7 8
M  V30 8 1 8 9
M  V30 9 2 9 10
M  V30 10 1 10 11
M  V30 11 2 11 12
M  V30 12 1 12 13
M  V30 13 1 13 14
M  V30 14 2 13 15
M  V30 15 1 12 16
M  V30 16 2 16 17
M  V30 17 1 17 18
M  V30 18 2 18 19
M  V30 19 1 5 20
M  V30 20 2 20 21
M  V30 21 1 21 22
M  V30 22 2 22 23
M  V30 23 1 23 24
M  V30 24 1 24 25
M  V30 25 1 25 26
M  V30 26 2 26 27
M  V30 27 1 26 28
M  V30 28 2 28 29
M  V30 29 1 29 30
M  V30 30 2 30 31
M  V30 31 1 31 32
M  V30 32 1 32 33
M  V30 33 1 32 34
M  V30 34 1 32 35
M  V30 35 1 31 36
M  V30 36 2 36 37
M  V30 37 1 37 38
M  V30 38 2 24 39
M  V30 39 1 19 7
M  V30 40 1 39 20
M  V30 41 1 19 11
M  V30 42 1 37 28
M  V30 43 1 1 40
M  V30 44 1 1 41
M  V30 45 1 1 42
M  V30 46 1 3 43
M  V30 47 1 3 44
M  V30 48 1 3 45
M  V30 49 1 4 46
M  V30 50 1 4 47
M  V30 51 1 5 48
M  V30 52 1 6 49
M  V30 53 1 9 50
M  V30 54 1 14 51
M  V30 55 1 14 52
M  V30 56 1 16 53
M  V30 57 1 17 54
M  V30 58 1 18 55
M  V30 59 1 21 56
M  V30 60 1 22 57
M  V30 61 1 23 58
M  V30 62 1 25 59
M  V30 63 1 29 60
M  V30 64 1 30 61
M  V30 65 1 36 62
M  V30 66 1 39 63
M  V30 END BOND
M  V30 END CTAB
M  END
>  <Dataset>  (981) 
ChEMBL_Kinases

>  <Ligand_Instance>  (981) 
nan

>  <PDB_ID>  (981) 
nan

>  <Standardized_SMILES>  (981) 
CN(C)CC(Nc1ncnc2c(C(N)=O)cccc12)c1cccc(NC(=O)c2ccc(C(F)(F)F)cc2F)c1

>  <Name>  (981) 
nan

>  <Pocket>  (981) 
nan

>  <ATP_Site>  (981) 
nan

>  <Peripheral>  (981) 
nan

>  <Num_H_Atoms_ProtBoundConf>  (981) 
nan

>  <Num_Resolved_Atoms>  (981) 
nan

>  <Num_Not_Resolved_Atoms>  (981) 
nan

$$$$
CHEMBL4203539
     RDKit          3D

  0  0  0  0  0  0  0  0  0  0999 V3000
M  V30 BEGIN CTAB
M  V30 COUNTS 68 73 0 0 0
M  V30 BEGIN ATOM
M  V30 1 C 3.806996 -2.924993 3.680669 0
M  V30 2 N 5.165683 -3.113973 3.247113 0
M  V30 3 C 5.261894 -3.539359 1.878077 0
M  V30 4 C 4.708525 -2.530778 0.929423 0
M  V30 5 N 4.603570 -1.202326 1.455406 0
M  V30 6 C 3.783024 -0.249771 0.805525 0
M  V30 7 C 3.088965 -0.563031 -0.342982 0
M  V30 8 C 2.282058 0.344653 -0.993083 0
M  V30 9 C 2.122269 1.628805 -0.526535 0
M  V30 10 C 1.271373 2.662074 -1.151436 0
M  V30 11 N -0.069566 2.718614 -0.627951 0
M  V30 12 C -1.078556 1.727666 -0.611000 0
M  V30 13 N -0.939799 0.489344 -1.114676 0
M  V30 14 C -1.910106 -0.438715 -1.088503 0
M  V30 15 N -1.776901 -1.748976 -1.619063 0
M  V30 16 C -0.629534 -2.285510 -2.316549 0
M  V30 17 C -0.348902 -3.691519 -1.822409 0
M  V30 18 O -1.390154 -4.553794 -2.059351 0
M  V30 19 C -2.546544 -3.848065 -2.459824 0
M  V30 20 C -2.841631 -2.717617 -1.496695 0
M  V30 21 N -3.086246 -0.112375 -0.527528 0
M  V30 22 C -3.333900 1.094218 0.005464 0
M  V30 23 C -2.323359 2.013550 -0.039058 0
M  V30 24 N -2.790593 3.147298 0.549571 0
M  V30 25 C -4.057191 2.951404 0.953724 0
M  V30 26 N -4.376141 1.690239 0.613922 0
M  V30 27 C -5.637225 1.033741 0.847751 0
M  V30 28 C -5.722725 -0.109503 1.625173 0
M  V30 29 C -6.929159 -0.725522 1.840454 0
M  V30 30 C -8.053633 -0.172699 1.259982 0
M  V30 31 C -8.026546 0.967384 0.474574 0
M  V30 32 F -9.167251 1.466254 -0.071530 0
M  V30 33 C -6.790829 1.553560 0.285098 0
M  V30 34 C 2.808449 1.991414 0.636978 0
M  V30 35 C 3.600634 1.041315 1.243262 0
M  V30 36 C 5.300168 -0.749219 2.642875 0
M  V30 37 C 5.914005 -1.881403 3.435757 0
M  V30 38 H 3.081314 -3.146619 2.873063 0
M  V30 39 H 3.562479 -3.627678 4.528872 0
M  V30 40 H 3.634285 -1.906229 4.100726 0
M  V30 41 H 6.353242 -3.705708 1.674632 0
M  V30 42 H 4.720509 -4.512240 1.792233 0
M  V30 43 H 5.356140 -2.539674 0.018004 0
M  V30 44 H 3.718619 -2.919333 0.559396 0
M  V30 45 H 3.131666 -1.524903 -0.801063 0
M  V30 46 H 1.715332 0.178164 -1.892770 0
M  V30 47 H 1.788996 3.620846 -1.138690 0
M  V30 48 H 1.186577 2.364993 -2.240983 0
M  V30 49 H -0.314892 3.657454 -0.192594 0
M  V30 50 H -0.773938 -2.282500 -3.421120 0
M  V30 51 H 0.307988 -1.722551 -2.149059 0
M  V30 52 H -0.181026 -3.626389 -0.730716 0
M  V30 53 H 0.602672 -4.007283 -2.294279 0
M  V30 54 H -2.443915 -3.484923 -3.488642 0
M  V30 55 H -3.364514 -4.601679 -2.459683 0
M  V30 56 H -2.919422 -3.132533 -0.470985 0
M  V30 57 H -3.790062 -2.260627 -1.833299 0
M  V30 58 H -4.702712 3.663951 1.455519 0
M  V30 59 H -4.836342 -0.535467 2.075941 0
M  V30 60 H -7.063903 -1.622756 2.438910 0
M  V30 61 H -9.017375 -0.659943 1.428515 0
M  V30 62 H -6.732694 2.453746 -0.328479 0
M  V30 63 H 2.719285 2.994654 1.051597 0
M  V30 64 H 4.111989 1.371339 2.141764 0
M  V30 65 H 6.073234 -0.025423 2.355386 0
M  V30 66 H 4.528371 -0.259590 3.290389 0
M  V30 67 H 6.964529 -2.087427 3.126866 0
M  V30 68 H 5.875224 -1.656924 4.522694 0
M  V30 END ATOM
M  V30 BEGIN BOND
M  V30 1 1 1 2
M  V30 2 1 2 3
M  V30 3 1 3 4
M  V30 4 1 4 5
M  V30 5 1 5 6
M  V30 6 2 6 7
M  V30 7 1 7 8
M  V30 8 2 8 9
M  V30 9 1 9 10
M  V30 10 1 10 11
M  V30 11 1 11 12
M  V30 12 2 12 13
M  V30 13 1 13 14
M  V30 14 1 14 15
M  V30 15 1 15 16
M  V30 16 1 16 17
M  V30 17 1 17 18
M  V30 18 1 18 19
M  V30 19 1 19 20
M  V30 20 2 14 21
M  V30 21 1 21 22
M  V30 22 2 22 23
M  V30 23 1 23 24
M  V30 24 2 24 25
M  V30 25 1 25 26
M  V30 26 1 26 27
M  V30 27 2 27 28
M  V30 28 1 28 29
M  V30 29 2 29 30
M  V30 30 1 30 31
M  V30 31 1 31 32
M  V30 32 2 31 33
M  V30 33 1 9 34
M  V30 34 2 34 35
M  V30 35 1 5 36
M  V30 36 1 36 37
M  V30 37 1 37 2
M  V30 38 1 35 6
M  V30 39 1 23 12
M  V30 40 1 33 27
M  V30 41 1 20 15
M  V30 42 1 26 22
M  V30 43 1 1 38
M  V30 44 1 1 39
M  V30 45 1 1 40
M  V30 46 1 3 41
M  V30 47 1 3 42
M  V30 48 1 4 43
M  V30 49 1 4 44
M  V30 50 1 7 45
M  V30 51 1 8 46
M  V30 52 1 10 47
M  V30 53 1 10 48
M  V30 54 1 11 49
M  V30 55 1 16 50
M  V30 56 1 16 51
M  V30 57 1 17 52
M  V30 58 1 17 53
M  V30 59 1 19 54
M  V30 60 1 19 55
M  V30 61 1 20 56
M  V30 62 1 20 57
M  V30 63 1 25 58
M  V30 64 1 28 59
M  V30 65 1 29 60
M  V30 66 1 30 61
M  V30 67 1 33 62
M  V30 68 1 34 63
M  V30 69 1 35 64
M  V30 70 1 36 65
M  V30 71 1 36 66
M  V30 72 1 37 67
M  V30 73 1 37 68
M  V30 END BOND
M  V30 END CTAB
M  END
>  <Dataset>  (982) 
ChEMBL_Kinases

>  <Ligand_Instance>  (982) 
nan

>  <PDB_ID>  (982) 
nan

>  <Standardized_SMILES>  (982) 
CN1CCN(c2ccc(CNc3nc(N4CCOCC4)nc4c3ncn4-c3cccc(F)c3)cc2)CC1

>  <Name>  (982) 
nan

>  <Pocket>  (982) 
nan

>  <ATP_Site>  (982) 
nan

>  <Peripheral>  (982) 
nan

>  <Num_H_Atoms_ProtBoundConf>  (982) 
nan

>  <Num_Resolved_Atoms>  (982) 
nan

>  <Num_Not_Resolved_Atoms>  (982) 
nan

$$$$
CHEMBL3675408
     RDKit          3D

  0  0  0  0  0  0  0  0  0  0999 V3000
M  V30 BEGIN CTAB
M  V30 COUNTS 47 49 0 0 0
M  V30 BEGIN ATOM
M  V30 1 C 1.102432 -3.908877 0.953776 0
M  V30 2 N 0.858030 -3.527941 -0.405227 0
M  V30 3 C -0.542950 -3.209703 -0.583947 0
M  V30 4 C -0.935452 -1.926615 0.168875 0
M  V30 5 N -0.219889 -0.798861 -0.250663 0
M  V30 6 C 0.491885 0.322978 -0.668114 0
M  V30 7 N 0.609298 0.945958 -1.834217 0
M  V30 8 C 1.371738 2.030088 -2.003852 0
M  V30 9 N 2.062144 2.544492 -0.989344 0
M  V30 10 C 2.009805 1.991514 0.219396 0
M  V30 11 C 2.743190 2.557726 1.253793 0
M  V30 12 C 3.506791 3.723670 0.872933 0
M  V30 13 N 4.243646 4.281417 1.984341 0
M  V30 14 O 4.098828 4.690693 0.413192 0
M  V30 15 C 2.726619 2.032869 2.519587 0
M  V30 16 C 1.950999 0.921555 2.714304 0
M  V30 17 O 1.936901 0.396055 3.989748 0
M  V30 18 C 1.208443 -0.729453 4.375159 0
M  V30 19 C 1.255226 0.406561 1.676689 0
M  V30 20 C 1.220315 0.873434 0.384539 0
M  V30 21 C -2.430756 -1.843237 0.082591 0
M  V30 22 C -3.084937 -1.356264 -1.016093 0
M  V30 23 C -4.452955 -1.271241 -1.115219 0
M  V30 24 C -5.245081 -1.689323 -0.072131 0
M  V30 25 C -4.650802 -2.191371 1.066339 0
M  V30 26 Cl -5.548912 -2.761182 2.477779 0
M  V30 27 C -3.277122 -2.250737 1.104330 0
M  V30 28 H 1.715342 -4.845292 0.992538 0
M  V30 29 H 1.621196 -3.070232 1.468788 0
M  V30 30 H 0.142858 -4.108922 1.472892 0
M  V30 31 H 1.067825 -4.310168 -1.033415 0
M  V30 32 H -0.806430 -3.021940 -1.646988 0
M  V30 33 H -1.116363 -4.072058 -0.204793 0
M  V30 34 H -0.765351 -2.172855 1.263252 0
M  V30 35 H -0.669851 -1.000067 -1.200882 0
M  V30 36 H 1.369585 2.428530 -3.008978 0
M  V30 37 H 4.022260 4.585664 2.980129 0
M  V30 38 H 4.711629 4.681175 2.818868 0
M  V30 39 H 3.302759 2.494797 3.292442 0
M  V30 40 H 1.650890 -1.674821 4.005823 0
M  V30 41 H 1.203779 -0.784103 5.498478 0
M  V30 42 H 0.146670 -0.655061 4.074093 0
M  V30 43 H 0.677346 -0.463183 1.928920 0
M  V30 44 H -2.562102 -1.004824 -1.884866 0
M  V30 45 H -5.004827 -0.896690 -1.957584 0
M  V30 46 H -6.327066 -1.659096 -0.063926 0
M  V30 47 H -2.797500 -2.649328 2.008245 0
M  V30 END ATOM
M  V30 BEGIN BOND
M  V30 1 1 1 2
M  V30 2 1 2 3
M  V30 3 1 3 4
M  V30 4 1 4 5
M  V30 5 1 5 6
M  V30 6 2 6 7
M  V30 7 1 7 8
M  V30 8 2 8 9
M  V30 9 1 9 10
M  V30 10 2 10 11
M  V30 11 1 11 12
M  V30 12 1 12 13
M  V30 13 2 12 14
M  V30 14 1 11 15
M  V30 15 2 15 16
M  V30 16 1 16 17
M  V30 17 1 17 18
M  V30 18 1 16 19
M  V30 19 2 19 20
M  V30 20 1 4 21
M  V30 21 2 21 22
M  V30 22 1 22 23
M  V30 23 2 23 24
M  V30 24 1 24 25
M  V30 25 1 25 26
M  V30 26 2 25 27
M  V30 27 1 20 6
M  V30 28 1 27 21
M  V30 29 1 20 10
M  V30 30 1 1 28
M  V30 31 1 1 29
M  V30 32 1 1 30
M  V30 33 1 2 31
M  V30 34 1 3 32
M  V30 35 1 3 33
M  V30 36 1 4 34
M  V30 37 1 5 35
M  V30 38 1 8 36
M  V30 39 1 13 37
M  V30 40 1 13 38
M  V30 41 1 15 39
M  V30 42 1 18 40
M  V30 43 1 18 41
M  V30 44 1 18 42
M  V30 45 1 19 43
M  V30 46 1 22 44
M  V30 47 1 23 45
M  V30 48 1 24 46
M  V30 49 1 27 47
M  V30 END BOND
M  V30 END CTAB
M  END
>  <Dataset>  (983) 
ChEMBL_Kinases

>  <Ligand_Instance>  (983) 
nan

>  <PDB_ID>  (983) 
nan

>  <Standardized_SMILES>  (983) 
CNCC(Nc1ncnc2c(C(N)=O)cc(OC)cc12)c1cccc(Cl)c1

>  <Name>  (983) 
nan

>  <Pocket>  (983) 
nan

>  <ATP_Site>  (983) 
nan

>  <Peripheral>  (983) 
nan

>  <Num_H_Atoms_ProtBoundConf>  (983) 
nan

>  <Num_Resolved_Atoms>  (983) 
nan

>  <Num_Not_Resolved_Atoms>  (983) 
nan

$$$$
CHEMBL4203536
     RDKit          3D

  0  0  0  0  0  0  0  0  0  0999 V3000
M  V30 BEGIN CTAB
M  V30 COUNTS 47 52 0 0 0
M  V30 BEGIN ATOM
M  V30 1 C 4.536193 -2.227411 -4.492539 0
M  V30 2 O 5.165109 -2.035677 -3.227887 0
M  V30 3 C 4.500856 -1.300279 -2.254846 0
M  V30 4 C 5.212918 -1.178643 -1.057959 0
M  V30 5 C 4.704861 -0.475223 0.033205 0
M  V30 6 C 3.458319 0.083023 -0.163743 0
M  V30 7 C 2.721818 -0.012416 -1.326960 0
M  V30 8 C 3.259445 -0.718669 -2.387833 0
M  V30 9 C 1.454825 0.698048 -1.174971 0
M  V30 10 O 0.547580 0.817457 -2.024506 0
M  V30 11 N 1.443667 1.235598 0.134214 0
M  V30 12 C 0.443232 2.014502 0.791086 0
M  V30 13 C 0.357673 3.404054 0.780302 0
M  V30 14 N -0.730871 3.762649 1.519895 0
M  V30 15 N -1.320762 2.669935 1.985855 0
M  V30 16 C -2.410444 2.473246 2.754397 0
M  V30 17 C -2.849901 1.218643 3.123870 0
M  V30 18 C -2.173238 0.088723 2.710043 0
M  V30 19 C -2.511034 -1.299092 3.015429 0
M  V30 20 C -1.417227 -2.079853 3.394170 0
M  V30 21 C -1.667317 -3.416750 3.700534 0
M  V30 22 N -2.909101 -3.942813 3.636817 0
M  V30 23 C -3.966159 -3.194230 3.272344 0
M  V30 24 N -5.287837 -3.452828 3.126367 0
M  V30 25 C -5.886119 -2.300565 2.731121 0
M  V30 26 C -4.932210 -1.307444 2.627353 0
M  V30 27 C -3.741659 -1.867879 2.964585 0
M  V30 28 C -1.044866 0.313353 1.913155 0
M  V30 29 C -0.635353 1.597093 1.563048 0
M  V30 30 C 2.677853 0.886881 0.831177 0
M  V30 31 H 4.487912 -1.241609 -4.976545 0
M  V30 32 H 3.468502 -2.510122 -4.255364 0
M  V30 33 H 5.028499 -3.011232 -5.084848 0
M  V30 34 H 6.200411 -1.622465 -0.905746 0
M  V30 35 H 5.249181 -0.376741 0.961709 0
M  V30 36 H 2.758242 -0.841452 -3.321883 0
M  V30 37 H 1.040845 4.080033 0.270579 0
M  V30 38 H -2.993343 3.331017 3.116720 0
M  V30 39 H -3.716566 1.040852 3.736264 0
M  V30 40 H -0.381013 -1.788097 3.485507 0
M  V30 41 H -0.896728 -4.120876 4.007315 0
M  V30 42 H -5.773696 -4.358771 3.282976 0
M  V30 43 H -6.959345 -2.217035 2.536463 0
M  V30 44 H -5.127858 -0.302358 2.335164 0
M  V30 45 H -0.462270 -0.522235 1.549907 0
M  V30 46 H 2.433701 0.285694 1.734698 0
M  V30 47 H 3.233360 1.777693 1.150956 0
M  V30 END ATOM
M  V30 BEGIN BOND
M  V30 1 1 1 2
M  V30 2 1 2 3
M  V30 3 2 3 4
M  V30 4 1 4 5
M  V30 5 2 5 6
M  V30 6 1 6 7
M  V30 7 2 7 8
M  V30 8 1 7 9
M  V30 9 2 9 10
M  V30 10 1 9 11
M  V30 11 1 11 12
M  V30 12 1 12 13
M  V30 13 2 13 14
M  V30 14 1 14 15
M  V30 15 1 15 16
M  V30 16 2 16 17
M  V30 17 1 17 18
M  V30 18 1 18 19
M  V30 19 2 19 20
M  V30 20 1 20 21
M  V30 21 2 21 22
M  V30 22 1 22 23
M  V30 23 1 23 24
M  V30 24 1 24 25
M  V30 25 2 25 26
M  V30 26 1 26 27
M  V30 27 2 18 28
M  V30 28 1 28 29
M  V30 29 1 11 30
M  V30 30 1 8 3
M  V30 31 2 29 12
M  V30 32 1 30 6
M  V30 33 1 29 15
M  V30 34 1 27 19
M  V30 35 2 27 23
M  V30 36 1 1 31
M  V30 37 1 1 32
M  V30 38 1 1 33
M  V30 39 1 4 34
M  V30 40 1 5 35
M  V30 41 1 8 36
M  V30 42 1 13 37
M  V30 43 1 16 38
M  V30 44 1 17 39
M  V30 45 1 20 40
M  V30 46 1 21 41
M  V30 47 1 24 42
M  V30 48 1 25 43
M  V30 49 1 26 44
M  V30 50 1 28 45
M  V30 51 1 30 46
M  V30 52 1 30 47
M  V30 END BOND
M  V30 END CTAB
M  END
>  <Dataset>  (984) 
ChEMBL_Kinases

>  <Ligand_Instance>  (984) 
nan

>  <PDB_ID>  (984) 
nan

>  <Standardized_SMILES>  (984) 
COc1ccc2c(c1)C(=O)N(c1cnn3ccc(-c4ccnc5[nH]ccc45)cc13)C2

>  <Name>  (984) 
nan

>  <Pocket>  (984) 
nan

>  <ATP_Site>  (984) 
nan

>  <Peripheral>  (984) 
nan

>  <Num_H_Atoms_ProtBoundConf>  (984) 
nan

>  <Num_Resolved_Atoms>  (984) 
nan

>  <Num_Not_Resolved_Atoms>  (984) 
nan

$$$$
CHEMBL4203375
     RDKit          3D

  0  0  0  0  0  0  0  0  0  0999 V3000
M  V30 BEGIN CTAB
M  V30 COUNTS 54 59 0 0 0
M  V30 BEGIN ATOM
M  V30 1 F 5.245384 -5.592639 1.232805 0
M  V30 2 C 4.650945 -4.645234 2.002017 0
M  V30 3 C 4.409500 -4.878185 3.342479 0
M  V30 4 C 3.805355 -3.918763 4.130009 0
M  V30 5 C 3.416749 -2.684782 3.610046 0
M  V30 6 C 3.678167 -2.496838 2.265683 0
M  V30 7 N 3.308873 -1.255757 1.657728 0
M  V30 8 C 3.987031 -0.101161 1.794420 0
M  V30 9 N 3.344138 0.866549 1.076410 0
M  V30 10 C 2.265141 0.291574 0.498818 0
M  V30 11 C 1.260364 0.796457 -0.335833 0
M  V30 12 N 1.265760 2.161040 -0.724135 0
M  V30 13 C 0.249008 2.731649 -1.584161 0
M  V30 14 C -1.116639 2.637535 -1.003528 0
M  V30 15 N -2.081068 1.706534 -1.081289 0
M  V30 16 C -3.160413 2.066962 -0.376777 0
M  V30 17 C -4.376421 1.456322 -0.156912 0
M  V30 18 F -4.608681 0.237978 -0.736803 0
M  V30 19 C -5.314070 2.095625 0.639250 0
M  V30 20 F -6.480324 1.403640 0.790108 0
M  V30 21 C -5.037776 3.337031 1.211685 0
M  V30 22 C -3.818205 3.940180 0.985936 0
M  V30 23 C -2.901972 3.294544 0.196136 0
M  V30 24 N -1.657049 3.604298 -0.206973 0
M  V30 25 N 0.284339 -0.030069 -0.770850 0
M  V30 26 C 0.271033 -1.344364 -0.405075 0
M  V30 27 N -0.706862 -2.293430 -0.808628 0
M  V30 28 C -0.695459 -3.682136 -0.389382 0
M  V30 29 C -1.829135 -3.815790 0.629406 0
M  V30 30 O -2.955643 -3.134695 0.176911 0
M  V30 31 C -2.955177 -2.984600 -1.204056 0
M  V30 32 C -1.840885 -2.046608 -1.676805 0
M  V30 33 N 1.245877 -1.808191 0.397332 0
M  V30 34 C 2.235099 -1.038384 0.857645 0
M  V30 35 C 4.279474 -3.422724 1.433561 0
M  V30 36 F 4.494574 -3.144414 0.121656 0
M  V30 37 H 4.702795 -5.825466 3.761459 0
M  V30 38 H 3.603890 -4.080736 5.194554 0
M  V30 39 H 2.940228 -1.893288 4.173409 0
M  V30 40 H 4.878208 0.130569 2.340847 0
M  V30 41 H 2.029152 2.777500 -0.378554 0
M  V30 42 H 0.283370 2.250412 -2.602706 0
M  V30 43 H 0.448696 3.802100 -1.792205 0
M  V30 44 H -5.821503 3.755903 1.811959 0
M  V30 45 H -3.609458 4.903533 1.432769 0
M  V30 46 H -1.169493 4.494194 0.068973 0
M  V30 47 H 0.273209 -3.840084 0.163571 0
M  V30 48 H -0.798939 -4.337841 -1.250072 0
M  V30 49 H -1.461956 -3.260241 1.535887 0
M  V30 50 H -2.003942 -4.844508 0.941429 0
M  V30 51 H -3.896119 -2.455466 -1.456973 0
M  V30 52 H -2.945092 -3.944335 -1.731541 0
M  V30 53 H -1.545416 -2.451380 -2.677914 0
M  V30 54 H -2.177701 -1.013471 -1.715026 0
M  V30 END ATOM
M  V30 BEGIN BOND
M  V30 1 1 1 2
M  V30 2 2 2 3
M  V30 3 1 3 4
M  V30 4 2 4 5
M  V30 5 1 5 6
M  V30 6 1 6 7
M  V30 7 1 7 8
M  V30 8 2 8 9
M  V30 9 1 9 10
M  V30 10 2 10 11
M  V30 11 1 11 12
M  V30 12 1 12 13
M  V30 13 1 13 14
M  V30 14 2 14 15
M  V30 15 1 15 16
M  V30 16 2 16 17
M  V30 17 1 17 18
M  V30 18 1 17 19
M  V30 19 1 19 20
M  V30 20 2 19 21
M  V30 21 1 21 22
M  V30 22 2 22 23
M  V30 23 1 23 24
M  V30 24 1 11 25
M  V30 25 2 25 26
M  V30 26 1 26 27
M  V30 27 1 27 28
M  V30 28 1 28 29
M  V30 29 1 29 30
M  V30 30 1 30 31
M  V30 31 1 31 32
M  V30 32 1 26 33
M  V30 33 2 33 34
M  V30 34 2 6 35
M  V30 35 1 35 36
M  V30 36 1 35 2
M  V30 37 1 34 7
M  V30 38 1 34 10
M  V30 39 1 24 14
M  V30 40 1 32 27
M  V30 41 1 23 16
M  V30 42 1 3 37
M  V30 43 1 4 38
M  V30 44 1 5 39
M  V30 45 1 8 40
M  V30 46 1 12 41
M  V30 47 1 13 42
M  V30 48 1 13 43
M  V30 49 1 21 44
M  V30 50 1 22 45
M  V30 51 1 24 46
M  V30 52 1 28 47
M  V30 53 1 28 48
M  V30 54 1 29 49
M  V30 55 1 29 50
M  V30 56 1 31 51
M  V30 57 1 31 52
M  V30 58 1 32 53
M  V30 59 1 32 54
M  V30 END BOND
M  V30 END CTAB
M  END
>  <Dataset>  (985) 
ChEMBL_Kinases

>  <Ligand_Instance>  (985) 
nan

>  <PDB_ID>  (985) 
nan

>  <Standardized_SMILES>  (985) 
Fc1cccc(-n2cnc3c(NCc4nc5c(F)c(F)ccc5[nH]4)nc(N4CCOCC4)nc32)c1F

>  <Name>  (985) 
nan

>  <Pocket>  (985) 
nan

>  <ATP_Site>  (985) 
nan

>  <Peripheral>  (985) 
nan

>  <Num_H_Atoms_ProtBoundConf>  (985) 
nan

>  <Num_Resolved_Atoms>  (985) 
nan

>  <Num_Not_Resolved_Atoms>  (985) 
nan

$$$$
CHEMBL4203354
     RDKit          3D

  0  0  0  0  0  0  0  0  0  0999 V3000
M  V30 BEGIN CTAB
M  V30 COUNTS 57 62 0 0 0
M  V30 BEGIN ATOM
M  V30 1 C 4.680624 -3.740291 3.069066 0
M  V30 2 N 4.790475 -3.358279 1.679371 0
M  V30 3 C 4.965152 -1.986281 1.449039 0
M  V30 4 C 4.432489 -1.423773 0.162157 0
M  V30 5 N 3.152655 -2.070488 -0.050010 0
M  V30 6 C 1.884998 -1.442455 -0.034230 0
M  V30 7 N 1.893330 -0.136060 -0.158350 0
M  V30 8 C 0.755795 0.568555 -0.146992 0
M  V30 9 N 0.448441 1.926183 -0.258073 0
M  V30 10 C 0.148002 3.305205 -0.371649 0
M  V30 11 C -1.378393 3.491458 -0.326406 0
M  V30 12 N -2.138869 3.668493 0.798858 0
M  V30 13 C -3.440150 3.791843 0.389607 0
M  V30 14 C -4.601901 3.985991 1.132598 0
M  V30 15 C -5.796296 4.071227 0.423380 0
M  V30 16 Cl -7.280125 4.320149 1.353445 0
M  V30 17 C -5.871402 3.973369 -0.951821 0
M  V30 18 C -4.679490 3.782747 -1.604646 0
M  V30 19 C -3.437905 3.684357 -0.998249 0
M  V30 20 N -2.170427 3.500965 -1.418992 0
M  V30 21 C -0.486770 -0.108205 0.002509 0
M  V30 22 N -1.803140 0.192521 0.067522 0
M  V30 23 C -2.474024 -0.955692 0.224915 0
M  V30 24 N -1.682978 -2.032898 0.271533 0
M  V30 25 C -1.982534 -3.413271 0.431259 0
M  V30 26 C -2.010849 -4.285375 -0.612291 0
M  V30 27 C -2.309594 -5.621129 -0.362454 0
M  V30 28 C -2.550779 -5.924569 0.950418 0
M  V30 29 N -2.520062 -5.049257 1.981064 0
M  V30 30 C -2.228217 -3.745590 1.734523 0
M  V30 31 C -0.471533 -1.504154 0.134065 0
M  V30 32 N 0.730622 -2.093961 0.106575 0
M  V30 33 C 3.304636 -3.487756 -0.307575 0
M  V30 34 C 4.054820 -4.155925 0.786953 0
M  V30 35 H 4.904727 -2.915900 3.769169 0
M  V30 36 H 5.320003 -4.639592 3.204927 0
M  V30 37 H 3.638464 -4.121114 3.204917 0
M  V30 38 H 4.558519 -1.329302 2.276411 0
M  V30 39 H 6.062277 -1.750713 1.449044 0
M  V30 40 H 4.322169 -0.324018 0.285303 0
M  V30 41 H 5.107532 -1.697024 -0.653836 0
M  V30 42 H 1.479739 2.231547 -0.345047 0
M  V30 43 H 0.531627 3.977010 0.423506 0
M  V30 44 H 0.427494 3.746191 -1.371413 0
M  V30 45 H -4.581186 4.067330 2.207828 0
M  V30 46 H -6.790169 4.038252 -1.515850 0
M  V30 47 H -4.611779 3.691435 -2.700710 0
M  V30 48 H -1.908253 3.393297 -2.421454 0
M  V30 49 H -3.572386 -1.003772 0.308341 0
M  V30 50 H -1.803666 -3.936374 -1.628506 0
M  V30 51 H -2.346481 -6.358352 -1.160069 0
M  V30 52 H -2.791908 -6.944408 1.228383 0
M  V30 53 H -2.218333 -3.089824 2.603505 0
M  V30 54 H 3.933665 -3.540801 -1.247608 0
M  V30 55 H 2.335216 -4.006330 -0.461114 0
M  V30 56 H 3.368378 -4.841562 1.372597 0
M  V30 57 H 4.769762 -4.887382 0.315648 0
M  V30 END ATOM
M  V30 BEGIN BOND
M  V30 1 1 1 2
M  V30 2 1 2 3
M  V30 3 1 3 4
M  V30 4 1 4 5
M  V30 5 1 5 6
M  V30 6 2 6 7
M  V30 7 1 7 8
M  V30 8 1 8 9
M  V30 9 1 9 10
M  V30 10 1 10 11
M  V30 11 2 11 12
M  V30 12 1 12 13
M  V30 13 2 13 14
M  V30 14 1 14 15
M  V30 15 1 15 16
M  V30 16 2 15 17
M  V30 17 1 17 18
M  V30 18 2 18 19
M  V30 19 1 19 20
M  V30 20 2 8 21
M  V30 21 1 21 22
M  V30 22 2 22 23
M  V30 23 1 23 24
M  V30 24 1 24 25
M  V30 25 2 25 26
M  V30 26 1 26 27
M  V30 27 2 27 28
M  V30 28 1 28 29
M  V30 29 2 29 30
M  V30 30 1 24 31
M  V30 31 2 31 32
M  V30 32 1 5 33
M  V30 33 1 33 34
M  V30 34 1 34 2
M  V30 35 1 32 6
M  V30 36 1 20 11
M  V30 37 1 31 21
M  V30 38 1 19 13
M  V30 39 1 30 25
M  V30 40 1 1 35
M  V30 41 1 1 36
M  V30 42 1 1 37
M  V30 43 1 3 38
M  V30 44 1 3 39
M  V30 45 1 4 40
M  V30 46 1 4 41
M  V30 47 1 9 42
M  V30 48 1 10 43
M  V30 49 1 10 44
M  V30 50 1 14 45
M  V30 51 1 17 46
M  V30 52 1 18 47
M  V30 53 1 20 48
M  V30 54 1 23 49
M  V30 55 1 26 50
M  V30 56 1 27 51
M  V30 57 1 28 52
M  V30 58 1 30 53
M  V30 59 1 33 54
M  V30 60 1 33 55
M  V30 61 1 34 56
M  V30 62 1 34 57
M  V30 END BOND
M  V30 END CTAB
M  END
>  <Dataset>  (986) 
ChEMBL_Kinases

>  <Ligand_Instance>  (986) 
nan

>  <PDB_ID>  (986) 
nan

>  <Standardized_SMILES>  (986) 
CN1CCN(c2nc(NCc3nc4cc(Cl)ccc4[nH]3)c3ncn(-c4cccnc4)c3n2)CC1

>  <Name>  (986) 
nan

>  <Pocket>  (986) 
nan

>  <ATP_Site>  (986) 
nan

>  <Peripheral>  (986) 
nan

>  <Num_H_Atoms_ProtBoundConf>  (986) 
nan

>  <Num_Resolved_Atoms>  (986) 
nan

>  <Num_Not_Resolved_Atoms>  (986) 
nan

$$$$
CHEMBL4203268
     RDKit          3D

  0  0  0  0  0  0  0  0  0  0999 V3000
M  V30 BEGIN CTAB
M  V30 COUNTS 55 60 0 0 0
M  V30 BEGIN ATOM
M  V30 1 C 3.945887 -0.339388 3.807392 0
M  V30 2 N 2.596090 0.176053 3.865054 0
M  V30 3 C 1.619848 -0.874164 3.962791 0
M  V30 4 C 1.454568 -1.596931 2.648738 0
M  V30 5 N 1.029534 -0.645563 1.638849 0
M  V30 6 C 0.612429 -1.057315 0.339044 0
M  V30 7 N 0.213604 -0.174771 -0.606673 0
M  V30 8 C -0.171366 -0.610260 -1.819724 0
M  V30 9 N -0.596958 0.275007 -2.842653 0
M  V30 10 C -0.624403 1.703406 -2.588347 0
M  V30 11 C -1.536710 2.036778 -1.457220 0
M  V30 12 N -1.364513 2.147429 -0.127622 0
M  V30 13 C -2.521181 2.475790 0.468182 0
M  V30 14 C -2.840889 2.696523 1.788339 0
M  V30 15 F -1.900775 2.595142 2.775226 0
M  V30 16 C -4.156781 3.031846 2.126249 0
M  V30 17 F -4.439417 3.243746 3.442349 0
M  V30 18 C -5.116800 3.136601 1.129202 0
M  V30 19 C -4.779086 2.911613 -0.192631 0
M  V30 20 C -3.470402 2.576925 -0.539389 0
M  V30 21 N -2.832794 2.301600 -1.706315 0
M  V30 22 C -0.135722 -1.991535 -2.038895 0
M  V30 23 N -0.467274 -2.665540 -3.153309 0
M  V30 24 C -0.278570 -3.988564 -2.916940 0
M  V30 25 N 0.175260 -4.142962 -1.642631 0
M  V30 26 C 0.509871 -5.343544 -0.956428 0
M  V30 27 C 1.780018 -5.657049 -0.583816 0
M  V30 28 C 2.102157 -6.782905 0.061052 0
M  V30 29 S 0.547819 -7.652413 0.264211 0
M  V30 30 C -0.453084 -6.328892 -0.595626 0
M  V30 31 C 0.259904 -2.909592 -1.110679 0
M  V30 32 N 0.624574 -2.373531 0.067213 0
M  V30 33 C 1.056122 0.749392 2.035578 0
M  V30 34 C 2.388037 1.024484 2.730540 0
M  V30 35 H 4.620559 0.428505 4.254507 0
M  V30 36 H 4.247437 -0.385760 2.729293 0
M  V30 37 H 4.080982 -1.316929 4.297109 0
M  V30 38 H 0.673729 -0.473484 4.328929 0
M  V30 39 H 2.004659 -1.604311 4.728957 0
M  V30 40 H 2.378610 -2.125316 2.387141 0
M  V30 41 H 0.679942 -2.385476 2.806557 0
M  V30 42 H -0.881690 -0.118107 -3.757163 0
M  V30 43 H -0.831327 2.288327 -3.483977 0
M  V30 44 H 0.433444 1.944691 -2.272876 0
M  V30 45 H -6.121594 3.395426 1.411924 0
M  V30 46 H -5.522509 2.990954 -0.980509 0
M  V30 47 H -3.388403 2.327144 -2.595294 0
M  V30 48 H -0.455466 -4.788579 -3.614224 0
M  V30 49 H 2.643724 -5.033606 -0.770500 0
M  V30 50 H 2.971135 -7.263657 0.456032 0
M  V30 51 H -1.602236 -6.120785 -0.893024 0
M  V30 52 H 1.016280 1.367496 1.122046 0
M  V30 53 H 0.216232 0.920371 2.718331 0
M  V30 54 H 2.384579 2.116371 3.017037 0
M  V30 55 H 3.167998 0.948375 1.945841 0
M  V30 END ATOM
M  V30 BEGIN BOND
M  V30 1 1 1 2
M  V30 2 1 2 3
M  V30 3 1 3 4
M  V30 4 1 4 5
M  V30 5 1 5 6
M  V30 6 2 6 7
M  V30 7 1 7 8
M  V30 8 1 8 9
M  V30 9 1 9 10
M  V30 10 1 10 11
M  V30 11 2 11 12
M  V30 12 1 12 13
M  V30 13 2 13 14
M  V30 14 1 14 15
M  V30 15 1 14 16
M  V30 16 1 16 17
M  V30 17 2 16 18
M  V30 18 1 18 19
M  V30 19 2 19 20
M  V30 20 1 20 21
M  V30 21 2 8 22
M  V30 22 1 22 23
M  V30 23 2 23 24
M  V30 24 1 24 25
M  V30 25 1 25 26
M  V30 26 1 26 27
M  V30 27 2 27 28
M  V30 28 1 28 29
M  V30 29 1 29 30
M  V30 30 1 25 31
M  V30 31 2 31 32
M  V30 32 1 5 33
M  V30 33 1 33 34
M  V30 34 1 34 2
M  V30 35 1 32 6
M  V30 36 1 21 11
M  V30 37 1 31 22
M  V30 38 1 20 13
M  V30 39 2 30 26
M  V30 40 1 1 35
M  V30 41 1 1 36
M  V30 42 1 1 37
M  V30 43 1 3 38
M  V30 44 1 3 39
M  V30 45 1 4 40
M  V30 46 1 4 41
M  V30 47 1 9 42
M  V30 48 1 10 43
M  V30 49 1 10 44
M  V30 50 1 18 45
M  V30 51 1 19 46
M  V30 52 1 21 47
M  V30 53 1 24 48
M  V30 54 1 27 49
M  V30 55 1 28 50
M  V30 56 1 30 51
M  V30 57 1 33 52
M  V30 58 1 33 53
M  V30 59 1 34 54
M  V30 60 1 34 55
M  V30 END BOND
M  V30 END CTAB
M  END
>  <Dataset>  (987) 
ChEMBL_Kinases

>  <Ligand_Instance>  (987) 
nan

>  <PDB_ID>  (987) 
nan

>  <Standardized_SMILES>  (987) 
CN1CCN(c2nc(NCc3nc4c(F)c(F)ccc4[nH]3)c3ncn(-c4ccsc4)c3n2)CC1

>  <Name>  (987) 
nan

>  <Pocket>  (987) 
nan

>  <ATP_Site>  (987) 
nan

>  <Peripheral>  (987) 
nan

>  <Num_H_Atoms_ProtBoundConf>  (987) 
nan

>  <Num_Resolved_Atoms>  (987) 
nan

>  <Num_Not_Resolved_Atoms>  (987) 
nan

$$$$
CHEMBL3321809
     RDKit          3D

  0  0  0  0  0  0  0  0  0  0999 V3000
M  V30 BEGIN CTAB
M  V30 COUNTS 40 43 0 0 0
M  V30 BEGIN ATOM
M  V30 1 C 1.058485 -2.741688 2.122439 0
M  V30 2 C 1.806185 -2.755300 0.863637 0
M  V30 3 C 2.504293 -3.900533 0.499019 0
M  V30 4 C 3.197363 -3.878769 -0.692427 0
M  V30 5 C 3.226094 -2.771446 -1.533828 0
M  V30 6 O 3.961292 -2.883674 -2.700816 0
M  V30 7 C 2.518008 -1.627400 -1.151431 0
M  V30 8 C 1.813188 -1.638377 0.052225 0
M  V30 9 N 1.110430 -0.431294 0.380465 0
M  V30 10 C 1.764085 0.761394 0.398647 0
M  V30 11 N 3.143871 1.009816 0.119995 0
M  V30 12 C 0.897904 1.779561 0.737601 0
M  V30 13 C 1.211054 3.197703 0.864619 0
M  V30 14 N 0.166873 4.101067 1.227878 0
M  V30 15 O 2.388102 3.587666 0.651864 0
M  V30 16 C -0.325746 1.175173 0.931056 0
M  V30 17 N -1.528827 1.640007 1.269226 0
M  V30 18 C -2.580306 0.794641 1.389923 0
M  V30 19 C -3.805455 1.318827 1.741395 0
M  V30 20 C -4.880896 0.458093 1.865386 0
M  V30 21 C -4.749070 -0.902342 1.645387 0
M  V30 22 C -3.486016 -1.370869 1.293081 0
M  V30 23 C -2.386024 -0.548311 1.158180 0
M  V30 24 N -1.175871 -1.035145 0.815329 0
M  V30 25 C -0.167244 -0.176159 0.706269 0
M  V30 26 H 0.082640 -3.269521 1.945842 0
M  V30 27 H 1.590292 -3.349761 2.904443 0
M  V30 28 H 0.917913 -1.750260 2.581240 0
M  V30 29 H 2.493329 -4.777303 1.145239 0
M  V30 30 H 3.732804 -4.771072 -0.962128 0
M  V30 31 H 4.964665 -2.932957 -2.627765 0
M  V30 32 H 2.559150 -0.782208 -1.826267 0
M  V30 33 H 3.322771 1.554094 -0.756817 0
M  V30 34 H 4.052776 0.774379 0.591629 0
M  V30 35 H 0.134982 4.438436 2.216104 0
M  V30 36 H -0.659471 4.632308 0.936029 0
M  V30 37 H -3.884195 2.364810 1.905417 0
M  V30 38 H -5.833897 0.876582 2.140284 0
M  V30 39 H -5.602575 -1.576017 1.745107 0
M  V30 40 H -3.349479 -2.442598 1.112351 0
M  V30 END ATOM
M  V30 BEGIN BOND
M  V30 1 1 1 2
M  V30 2 2 2 3
M  V30 3 1 3 4
M  V30 4 2 4 5
M  V30 5 1 5 6
M  V30 6 1 5 7
M  V30 7 2 7 8
M  V30 8 1 8 9
M  V30 9 1 9 10
M  V30 10 1 10 11
M  V30 11 2 10 12
M  V30 12 1 12 13
M  V30 13 1 13 14
M  V30 14 2 13 15
M  V30 15 1 12 16
M  V30 16 2 16 17
M  V30 17 1 17 18
M  V30 18 2 18 19
M  V30 19 1 19 20
M  V30 20 2 20 21
M  V30 21 1 21 22
M  V30 22 2 22 23
M  V30 23 1 23 24
M  V30 24 2 24 25
M  V30 25 1 8 2
M  V30 26 1 25 9
M  V30 27 1 25 16
M  V30 28 1 23 18
M  V30 29 1 1 26
M  V30 30 1 1 27
M  V30 31 1 1 28
M  V30 32 1 3 29
M  V30 33 1 4 30
M  V30 34 1 6 31
M  V30 35 1 7 32
M  V30 36 1 11 33
M  V30 37 1 11 34
M  V30 38 1 14 35
M  V30 39 1 14 36
M  V30 40 1 19 37
M  V30 41 1 20 38
M  V30 42 1 21 39
M  V30 43 1 22 40
M  V30 END BOND
M  V30 END CTAB
M  END
>  <Dataset>  (988) 
ChEMBL_Kinases

>  <Ligand_Instance>  (988) 
nan

>  <PDB_ID>  (988) 
nan

>  <Standardized_SMILES>  (988) 
Cc1ccc(O)cc1-n1c(N)c(C(N)=O)c2nc3ccccc3nc21

>  <Name>  (988) 
nan

>  <Pocket>  (988) 
nan

>  <ATP_Site>  (988) 
nan

>  <Peripheral>  (988) 
nan

>  <Num_H_Atoms_ProtBoundConf>  (988) 
nan

>  <Num_Resolved_Atoms>  (988) 
nan

>  <Num_Not_Resolved_Atoms>  (988) 
nan

$$$$
CHEMBL3675407
     RDKit          3D

  0  0  0  0  0  0  0  0  0  0999 V3000
M  V30 BEGIN CTAB
M  V30 COUNTS 47 49 0 0 0
M  V30 BEGIN ATOM
M  V30 1 C 0.202145 -3.470843 3.054354 0
M  V30 2 N -0.500749 -3.699650 1.811675 0
M  V30 3 C -1.673894 -2.889589 1.682837 0
M  V30 4 C -1.344171 -1.407214 1.524942 0 CFG=1
M  V30 5 N -0.578485 -1.058585 0.413175 0
M  V30 6 C 0.201901 -0.703265 -0.720019 0
M  V30 7 N -0.092832 -0.883446 -2.008548 0
M  V30 8 C 0.704494 -0.514531 -3.005833 0
M  V30 9 N 1.865155 0.068962 -2.686640 0
M  V30 10 C 2.200734 0.269414 -1.412783 0
M  V30 11 C 3.408471 0.874319 -1.164865 0
M  V30 12 C 4.350842 1.312494 -2.161413 0
M  V30 13 N 3.853494 1.078669 -3.510297 0
M  V30 14 O 5.280643 1.745633 -2.846091 0
M  V30 15 C 3.880030 1.144076 0.126519 0
M  V30 16 C 3.045410 0.760242 1.184980 0
M  V30 17 O 3.475431 1.009799 2.480758 0
M  V30 18 C 2.688092 0.652760 3.579673 0
M  V30 19 C 1.856817 0.163335 0.903503 0
M  V30 20 C 1.415533 -0.091481 -0.364894 0
M  V30 21 C -2.592879 -0.642600 1.782067 0
M  V30 22 C -3.344415 -0.356448 0.655987 0
M  V30 23 C -4.521146 0.366868 0.931407 0
M  V30 24 C -4.961062 0.787954 2.161109 0
M  V30 25 C -4.125601 0.439566 3.195683 0
M  V30 26 F -4.499702 0.824398 4.462107 0
M  V30 27 C -2.953322 -0.258660 3.078232 0
M  V30 28 H -0.594903 -3.279999 3.821317 0
M  V30 29 H 0.669209 -4.455598 3.328625 0
M  V30 30 H 0.975229 -2.705370 3.014826 0
M  V30 31 H -0.620203 -4.678884 1.544983 0
M  V30 32 H -2.248570 -3.193709 0.774289 0
M  V30 33 H -2.334043 -3.059206 2.547347 0
M  V30 34 H -0.722246 -1.193606 2.467385 0
M  V30 35 H -1.417825 -1.493498 -0.086363 0
M  V30 36 H 0.458348 -0.666242 -4.044159 0
M  V30 37 H 3.096281 1.513271 -4.125772 0
M  V30 38 H 3.077093 1.570717 -4.056877 0
M  V30 39 H 4.813020 1.615325 0.393833 0
M  V30 40 H 2.657526 -0.416807 3.782664 0
M  V30 41 H 3.157496 1.121471 4.494367 0
M  V30 42 H 1.690599 1.125515 3.492640 0
M  V30 43 H 1.227103 -0.127223 1.718879 0
M  V30 44 H -3.183826 -0.585816 -0.361168 0
M  V30 45 H -5.170079 0.634921 0.097777 0
M  V30 46 H -5.878507 1.337475 2.274067 0
M  V30 47 H -2.302549 -0.529191 3.895312 0
M  V30 END ATOM
M  V30 BEGIN BOND
M  V30 1 1 1 2
M  V30 2 1 2 3
M  V30 3 1 3 4
M  V30 4 1 4 5
M  V30 5 1 5 6
M  V30 6 2 6 7
M  V30 7 1 7 8
M  V30 8 2 8 9
M  V30 9 1 9 10
M  V30 10 2 10 11
M  V30 11 1 11 12
M  V30 12 1 12 13
M  V30 13 2 12 14
M  V30 14 1 11 15
M  V30 15 2 15 16
M  V30 16 1 16 17
M  V30 17 1 17 18
M  V30 18 1 16 19
M  V30 19 2 19 20
M  V30 20 1 4 21
M  V30 21 2 21 22
M  V30 22 1 22 23
M  V30 23 2 23 24
M  V30 24 1 24 25
M  V30 25 1 25 26
M  V30 26 2 25 27
M  V30 27 1 20 6
M  V30 28 1 27 21
M  V30 29 1 20 10
M  V30 30 1 1 28
M  V30 31 1 1 29
M  V30 32 1 1 30
M  V30 33 1 2 31
M  V30 34 1 3 32
M  V30 35 1 3 33
M  V30 36 1 4 34 CFG=1
M  V30 37 1 5 35
M  V30 38 1 8 36
M  V30 39 1 13 37
M  V30 40 1 13 38
M  V30 41 1 15 39
M  V30 42 1 18 40
M  V30 43 1 18 41
M  V30 44 1 18 42
M  V30 45 1 19 43
M  V30 46 1 22 44
M  V30 47 1 23 45
M  V30 48 1 24 46
M  V30 49 1 27 47
M  V30 END BOND
M  V30 END CTAB
M  END
>  <Dataset>  (989) 
ChEMBL_Kinases

>  <Ligand_Instance>  (989) 
nan

>  <PDB_ID>  (989) 
nan

>  <Standardized_SMILES>  (989) 
CNC[C@@H](Nc1ncnc2c(C(N)=O)cc(OC)cc12)c1cccc(F)c1

>  <Name>  (989) 
nan

>  <Pocket>  (989) 
nan

>  <ATP_Site>  (989) 
nan

>  <Peripheral>  (989) 
nan

>  <Num_H_Atoms_ProtBoundConf>  (989) 
nan

>  <Num_Resolved_Atoms>  (989) 
nan

>  <Num_Not_Resolved_Atoms>  (989) 
nan

$$$$
CHEMBL4202639
     RDKit          3D

  0  0  0  0  0  0  0  0  0  0999 V3000
M  V30 BEGIN CTAB
M  V30 COUNTS 54 58 0 0 0
M  V30 BEGIN ATOM
M  V30 1 C 2.723740 -0.513007 5.503460 0
M  V30 2 N 3.122076 -1.519346 4.584640 0
M  V30 3 C 4.429047 -2.059630 4.740122 0
M  V30 4 C 4.854561 -2.696688 3.412947 0
M  V30 5 N 3.797694 -2.482065 2.445914 0
M  V30 6 C 3.931849 -1.750691 1.242836 0
M  V30 7 O 5.000511 -1.205490 0.890424 0
M  V30 8 C 2.874451 -1.547590 0.297824 0
M  V30 9 C 1.700087 -0.954867 0.738009 0
M  V30 10 C 0.682603 -0.759664 -0.170151 0
M  V30 11 C 0.731740 -1.108369 -1.501982 0
M  V30 12 C -0.363543 -0.890659 -2.438277 0
M  V30 13 C -1.554545 -0.311125 -2.064623 0
M  V30 14 N -2.597629 -0.093918 -2.915055 0
M  V30 15 C -3.819665 0.444049 -2.759355 0
M  V30 16 C -4.424981 0.982173 -1.565441 0
M  V30 17 C -4.372227 0.366144 -0.313082 0
M  V30 18 C -4.924954 0.818694 0.855412 0
M  V30 19 C -5.622017 2.029038 0.801960 0
M  V30 20 C -5.752286 2.747365 -0.382331 0
M  V30 21 C -5.153315 2.173275 -1.448512 0
M  V30 22 O -5.229743 2.820595 -2.683523 0
M  V30 23 C -4.439869 0.390742 -4.009809 0
M  V30 24 N -3.541001 -0.180482 -4.836500 0
M  V30 25 C -2.413764 -0.482433 -4.187745 0
M  V30 26 C -1.251441 -1.069626 -4.642347 0
M  V30 27 N -0.264078 -1.249278 -3.729705 0
M  V30 28 C 1.903411 -1.706089 -1.967702 0
M  V30 29 C 2.930785 -1.899531 -1.035295 0
M  V30 30 C 2.581999 -3.118906 2.907791 0
M  V30 31 C 2.150201 -2.503076 4.245522 0
M  V30 32 H 2.121613 0.234942 4.905420 0
M  V30 33 H 2.142578 -0.860055 6.358240 0
M  V30 34 H 3.630623 0.076672 5.797523 0
M  V30 35 H 5.183221 -1.331631 5.086139 0
M  V30 36 H 4.417282 -2.877352 5.487471 0
M  V30 37 H 5.012618 -3.806569 3.538700 0
M  V30 38 H 5.820205 -2.282319 3.077156 0
M  V30 39 H 1.602583 -0.656522 1.780094 0
M  V30 40 H -0.209099 -0.291086 0.236362 0
M  V30 41 H -1.715602 0.004776 -1.062257 0
M  V30 42 H -3.843728 -0.591146 -0.200452 0
M  V30 43 H -4.847379 0.294704 1.786163 0
M  V30 44 H -6.055211 2.379968 1.724622 0
M  V30 45 H -6.283824 3.674379 -0.436279 0
M  V30 46 H -5.956734 3.491880 -2.838847 0
M  V30 47 H -5.418132 0.730403 -4.259191 0
M  V30 48 H -1.116719 -1.381453 -5.685374 0
M  V30 49 H 2.060215 -2.022129 -2.987347 0
M  V30 50 H 3.855475 -2.364254 -1.377198 0
M  V30 51 H 2.821609 -4.188711 3.093605 0
M  V30 52 H 1.768651 -3.097148 2.154850 0
M  V30 53 H 2.069935 -3.282469 5.039194 0
M  V30 54 H 1.141082 -2.047877 4.174676 0
M  V30 END ATOM
M  V30 BEGIN BOND
M  V30 1 1 1 2
M  V30 2 1 2 3
M  V30 3 1 3 4
M  V30 4 1 4 5
M  V30 5 1 5 6
M  V30 6 2 6 7
M  V30 7 1 6 8
M  V30 8 2 8 9
M  V30 9 1 9 10
M  V30 10 2 10 11
M  V30 11 1 11 12
M  V30 12 2 12 13
M  V30 13 1 13 14
M  V30 14 1 14 15
M  V30 15 1 15 16
M  V30 16 2 16 17
M  V30 17 1 17 18
M  V30 18 2 18 19
M  V30 19 1 19 20
M  V30 20 2 20 21
M  V30 21 1 21 22
M  V30 22 2 15 23
M  V30 23 1 23 24
M  V30 24 2 24 25
M  V30 25 1 25 26
M  V30 26 2 26 27
M  V30 27 1 11 28
M  V30 28 2 28 29
M  V30 29 1 5 30
M  V30 30 1 30 31
M  V30 31 1 31 2
M  V30 32 1 29 8
M  V30 33 1 27 12
M  V30 34 1 25 14
M  V30 35 1 21 16
M  V30 36 1 1 32
M  V30 37 1 1 33
M  V30 38 1 1 34
M  V30 39 1 3 35
M  V30 40 1 3 36
M  V30 41 1 4 37
M  V30 42 1 4 38
M  V30 43 1 9 39
M  V30 44 1 10 40
M  V30 45 1 13 41
M  V30 46 1 17 42
M  V30 47 1 18 43
M  V30 48 1 19 44
M  V30 49 1 20 45
M  V30 50 1 22 46
M  V30 51 1 23 47
M  V30 52 1 26 48
M  V30 53 1 28 49
M  V30 54 1 29 50
M  V30 55 1 30 51
M  V30 56 1 30 52
M  V30 57 1 31 53
M  V30 58 1 31 54
M  V30 END BOND
M  V30 END CTAB
M  END
>  <Dataset>  (990) 
ChEMBL_Kinases

>  <Ligand_Instance>  (990) 
nan

>  <PDB_ID>  (990) 
nan

>  <Standardized_SMILES>  (990) 
CN1CCN(C(=O)c2ccc(-c3cn4c(-c5ccccc5O)cnc4cn3)cc2)CC1

>  <Name>  (990) 
nan

>  <Pocket>  (990) 
nan

>  <ATP_Site>  (990) 
nan

>  <Peripheral>  (990) 
nan

>  <Num_H_Atoms_ProtBoundConf>  (990) 
nan

>  <Num_Resolved_Atoms>  (990) 
nan

>  <Num_Not_Resolved_Atoms>  (990) 
nan

$$$$
CHEMBL4203551
     RDKit          3D

  0  0  0  0  0  0  0  0  0  0999 V3000
M  V30 BEGIN CTAB
M  V30 COUNTS 82 88 0 0 0
M  V30 BEGIN ATOM
M  V30 1 C 1.274005 -2.463205 5.941073 0
M  V30 2 S -0.428945 -2.486533 5.301802 0
M  V30 3 C -0.450336 -1.526750 3.768592 0 CFG=1
M  V30 4 C -0.171695 -0.121404 4.084392 0
M  V30 5 O 0.085357 0.497253 5.172877 0
M  V30 6 N -0.195597 0.714208 2.929149 0
M  V30 7 C 0.038240 2.123890 2.906300 0
M  V30 8 C 1.403719 2.356347 2.716164 0
M  V30 9 C 1.898964 3.661168 2.656707 0
M  V30 10 C 1.028006 4.724446 2.787431 0
M  V30 11 N 1.100559 6.070051 2.788512 0
M  V30 12 N -0.081768 6.621742 2.959189 0
M  V30 13 C -1.021752 5.648932 3.083118 0
M  V30 14 C -2.460848 5.830843 3.287153 0
M  V30 15 C -3.434761 5.122465 2.580357 0
M  V30 16 C -4.778342 5.325532 2.806515 0
M  V30 17 C -5.173931 6.258939 3.761968 0
M  V30 18 F -6.509963 6.406821 3.931661 0
M  V30 19 C -4.255667 6.989567 4.492115 0
M  V30 20 C -2.926508 6.752192 4.231485 0
M  V30 21 C -0.323331 4.462684 2.975207 0
M  V30 22 C -0.832847 3.185137 3.036882 0
M  V30 23 C 0.555972 -2.106756 2.791008 0
M  V30 24 C -0.140927 -2.128746 1.460950 0
M  V30 25 N -1.438390 -1.599247 1.693915 0
M  V30 26 C -2.473921 -2.333907 0.943696 0
M  V30 27 C -2.307239 -2.073888 -0.477902 0
M  V30 28 O -3.209495 -2.733861 -1.003211 0
M  V30 29 N -2.189982 -1.855710 -1.864893 0
M  V30 30 C -2.909945 -2.323594 -3.012985 0
M  V30 31 C -2.051484 -3.221090 -3.887893 0
M  V30 32 N -0.693927 -2.711455 -3.843453 0
M  V30 33 C 0.563912 -3.396062 -4.005416 0
M  V30 34 C 1.259326 -2.842551 -5.082404 0
M  V30 35 C 2.508814 -3.327200 -5.438560 0
M  V30 36 C 3.052151 -4.362891 -4.712645 0
M  V30 37 C 4.366825 -4.868301 -5.080899 0
M  V30 38 N 4.933191 -5.886958 -4.369665 0
M  V30 39 C 6.160014 -6.358788 -4.709436 0
M  V30 40 C 6.877964 -5.836789 -5.773667 0
M  V30 41 C 6.252029 -4.808035 -6.454630 0
M  V30 42 N 5.043183 -4.353834 -6.108017 0
M  V30 43 C 2.357953 -4.890106 -3.665027 0
M  V30 44 C 1.119367 -4.432149 -3.288227 0
M  V30 45 F 0.330165 -4.851071 -2.290228 0
M  V30 46 C -0.573615 -1.268588 -3.593291 0
M  V30 47 C -1.103617 -0.956229 -2.211493 0
M  V30 48 C -1.744471 -1.786437 3.072235 0
M  V30 49 H 1.846535 -1.572110 5.604022 0
M  V30 50 H 1.785427 -3.345095 5.503993 0
M  V30 51 H 1.221624 -2.512005 7.054869 0
M  V30 52 H -0.372675 0.526383 1.904655 0
M  V30 53 H 2.197353 1.636545 2.598831 0
M  V30 54 H 2.936052 3.917546 2.512963 0
M  V30 55 H 2.030677 6.555221 2.661705 0
M  V30 56 H -3.093356 4.396798 1.836948 0
M  V30 57 H -5.498652 4.742747 2.223642 0
M  V30 58 H -4.585151 7.702818 5.222079 0
M  V30 59 H -2.193206 7.319627 4.798140 0
M  V30 60 H -1.831767 2.859908 3.175050 0
M  V30 61 H 0.783785 -3.164817 3.078297 0
M  V30 62 H 1.511447 -1.543454 2.779472 0
M  V30 63 H -0.162237 -3.161278 1.028917 0
M  V30 64 H 0.424603 -1.528325 0.701836 0
M  V30 65 H -3.423193 -1.933906 1.308793 0
M  V30 66 H -2.422419 -3.419668 1.207255 0
M  V30 67 H -3.242970 -1.416951 -3.593370 0
M  V30 68 H -3.837951 -2.830270 -2.730930 0
M  V30 69 H -2.378147 -3.133453 -4.942482 0
M  V30 70 H -2.084326 -4.271683 -3.537709 0
M  V30 71 H 0.928803 -2.020365 -5.728915 0
M  V30 72 H 3.082445 -2.931494 -6.262030 0
M  V30 73 H 6.596634 -7.176557 -4.125007 0
M  V30 74 H 7.857805 -6.191038 -6.069262 0
M  V30 75 H 6.739179 -4.335650 -7.305190 0
M  V30 76 H 2.741926 -5.716146 -3.051992 0
M  V30 77 H -1.237512 -0.776772 -4.350198 0
M  V30 78 H 0.430168 -0.898367 -3.786801 0
M  V30 79 H -1.524431 0.084897 -2.178161 0
M  V30 80 H -0.266199 -0.966528 -1.516010 0
M  V30 81 H -2.023728 -2.861535 3.233354 0
M  V30 82 H -2.569339 -1.134267 3.430442 0
M  V30 END ATOM
M  V30 BEGIN BOND
M  V30 1 1 1 2
M  V30 2 1 3 2 CFG=1
M  V30 3 1 3 4
M  V30 4 2 4 5
M  V30 5 1 4 6
M  V30 6 1 6 7
M  V30 7 2 7 8
M  V30 8 1 8 9
M  V30 9 2 9 10
M  V30 10 1 10 11
M  V30 11 1 11 12
M  V30 12 2 12 13
M  V30 13 1 13 14
M  V30 14 2 14 15
M  V30 15 1 15 16
M  V30 16 2 16 17
M  V30 17 1 17 18
M  V30 18 1 17 19
M  V30 19 2 19 20
M  V30 20 1 13 21
M  V30 21 2 21 22
M  V30 22 1 3 23
M  V30 23 1 23 24
M  V30 24 1 24 25
M  V30 25 1 25 26
M  V30 26 1 26 27
M  V30 27 2 27 28
M  V30 28 1 27 29
M  V30 29 1 29 30
M  V30 30 1 30 31
M  V30 31 1 31 32
M  V30 32 1 32 33
M  V30 33 2 33 34
M  V30 34 1 34 35
M  V30 35 2 35 36
M  V30 36 1 36 37
M  V30 37 2 37 38
M  V30 38 1 38 39
M  V30 39 2 39 40
M  V30 40 1 40 41
M  V30 41 2 41 42
M  V30 42 1 36 43
M  V30 43 2 43 44
M  V30 44 1 44 45
M  V30 45 1 32 46
M  V30 46 1 46 47
M  V30 47 1 25 48
M  V30 48 1 48 3
M  V30 49 1 22 7
M  V30 50 1 47 29
M  V30 51 1 21 10
M  V30 52 1 44 33
M  V30 53 1 20 14
M  V30 54 1 42 37
M  V30 55 1 1 49
M  V30 56 1 1 50
M  V30 57 1 1 51
M  V30 58 1 6 52
M  V30 59 1 8 53
M  V30 60 1 9 54
M  V30 61 1 11 55
M  V30 62 1 15 56
M  V30 63 1 16 57
M  V30 64 1 19 58
M  V30 65 1 20 59
M  V30 66 1 22 60
M  V30 67 1 23 61
M  V30 68 1 23 62
M  V30 69 1 24 63
M  V30 70 1 24 64
M  V30 71 1 26 65
M  V30 72 1 26 66
M  V30 73 1 30 67
M  V30 74 1 30 68
M  V30 75 1 31 69
M  V30 76 1 31 70
M  V30 77 1 34 71
M  V30 78 1 35 72
M  V30 79 1 39 73
M  V30 80 1 40 74
M  V30 81 1 41 75
M  V30 82 1 43 76
M  V30 83 1 46 77
M  V30 84 1 46 78
M  V30 85 1 47 79
M  V30 86 1 47 80
M  V30 87 1 48 81
M  V30 88 1 48 82
M  V30 END BOND
M  V30 END CTAB
M  END
>  <Dataset>  (991) 
ChEMBL_Kinases

>  <Ligand_Instance>  (991) 
nan

>  <PDB_ID>  (991) 
nan

>  <Standardized_SMILES>  (991) 
CS[C@@]1(C(=O)Nc2ccc3[nH]nc(-c4ccc(F)cc4)c3c2)CCN(CC(=O)N2CCN(c3ccc(-c4ncccn4)cc3F)CC2)C1

>  <Name>  (991) 
nan

>  <Pocket>  (991) 
nan

>  <ATP_Site>  (991) 
nan

>  <Peripheral>  (991) 
nan

>  <Num_H_Atoms_ProtBoundConf>  (991) 
nan

>  <Num_Resolved_Atoms>  (991) 
nan

>  <Num_Not_Resolved_Atoms>  (991) 
nan

$$$$
CHEMBL4205502
     RDKit          3D

  0  0  0  0  0  0  0  0  0  0999 V3000
M  V30 BEGIN CTAB
M  V30 COUNTS 54 59 0 0 0
M  V30 BEGIN ATOM
M  V30 1 Cl 4.780266 -6.821558 0.965330 0
M  V30 2 C 4.495951 -5.081252 1.129885 0
M  V30 3 C 4.433124 -4.608313 2.422685 0
M  V30 4 C 4.213902 -3.254372 2.577401 0
M  V30 5 C 4.067962 -2.434409 1.467229 0
M  V30 6 N 3.849214 -1.113988 1.342384 0
M  V30 7 C 3.778264 -0.779489 0.026584 0
M  V30 8 C 3.568137 0.638733 -0.373385 0
M  V30 9 N 2.208162 1.076249 -0.425865 0
M  V30 10 C 1.200975 0.202292 -0.198659 0
M  V30 11 N 0.296020 1.288570 -0.328575 0
M  V30 12 C -1.041404 1.277890 -0.232165 0
M  V30 13 N -1.965756 2.412710 -0.360554 0
M  V30 14 C -1.590931 3.811945 -0.425337 0
M  V30 15 C -2.138073 4.439633 0.841531 0
M  V30 16 N -2.960769 3.521302 1.614446 0
M  V30 17 C -3.971763 2.866614 0.819097 0
M  V30 18 C -3.392505 2.255598 -0.449471 0
M  V30 19 N -1.740591 0.130219 0.022562 0
M  V30 20 C -1.098512 -1.029711 0.184104 0
M  V30 21 C 0.189206 -0.675118 0.029470 0
M  V30 22 N 0.990198 -1.801621 0.174043 0
M  V30 23 C 0.206643 -2.853416 0.416900 0
M  V30 24 N -1.024923 -2.322839 0.409420 0
M  V30 25 C -2.300587 -2.961241 0.616576 0
M  V30 26 C -2.578197 -3.885506 -0.396795 0
M  V30 27 C -3.763961 -4.615534 -0.371424 0
M  V30 28 C -4.628378 -4.386286 0.676915 0
M  V30 29 N -4.343015 -3.486985 1.649533 0
M  V30 30 C -3.203938 -2.773456 1.641990 0
M  V30 31 N 3.954945 -1.904520 -0.715285 0
M  V30 32 C 4.134501 -2.931835 0.160296 0
M  V30 33 C 4.354633 -4.291954 0.008421 0
M  V30 34 H 4.542979 -5.211989 3.310208 0
M  V30 35 H 4.155303 -2.835091 3.581174 0
M  V30 36 H 3.755645 -0.486801 2.187317 0
M  V30 37 H 4.190549 1.293213 0.319603 0
M  V30 38 H 4.066302 0.769985 -1.381834 0
M  V30 39 H 2.436529 2.048041 -0.655525 0
M  V30 40 H -2.123512 4.312762 -1.281800 0
M  V30 41 H -0.499929 3.969252 -0.560315 0
M  V30 42 H -1.261865 4.700535 1.483940 0
M  V30 43 H -2.654054 5.397164 0.660446 0
M  V30 44 H -3.458576 4.087166 2.330996 0
M  V30 45 H -4.869590 3.455515 0.627880 0
M  V30 46 H -4.331947 1.986849 1.431265 0
M  V30 47 H -3.706846 1.202383 -0.594324 0
M  V30 48 H -3.805677 2.886993 -1.283062 0
M  V30 49 H 0.441427 -3.900587 0.588650 0
M  V30 50 H -1.928921 -4.107797 -1.253400 0
M  V30 51 H -3.990426 -5.334477 -1.152193 0
M  V30 52 H -5.577207 -4.923545 0.758862 0
M  V30 53 H -2.880504 -2.036783 2.364507 0
M  V30 54 H 4.412477 -4.704591 -0.992980 0
M  V30 END ATOM
M  V30 BEGIN BOND
M  V30 1 1 1 2
M  V30 2 2 2 3
M  V30 3 1 3 4
M  V30 4 2 4 5
M  V30 5 1 5 6
M  V30 6 1 6 7
M  V30 7 1 7 8
M  V30 8 1 8 9
M  V30 9 1 9 10
M  V30 10 2 10 11
M  V30 11 1 11 12
M  V30 12 1 12 13
M  V30 13 1 13 14
M  V30 14 1 14 15
M  V30 15 1 15 16
M  V30 16 1 16 17
M  V30 17 1 17 18
M  V30 18 2 12 19
M  V30 19 1 19 20
M  V30 20 2 20 21
M  V30 21 1 21 22
M  V30 22 2 22 23
M  V30 23 1 23 24
M  V30 24 1 24 25
M  V30 25 2 25 26
M  V30 26 1 26 27
M  V30 27 2 27 28
M  V30 28 1 28 29
M  V30 29 2 29 30
M  V30 30 2 7 31
M  V30 31 1 31 32
M  V30 32 2 32 33
M  V30 33 1 33 2
M  V30 34 1 32 5
M  V30 35 1 21 10
M  V30 36 1 30 25
M  V30 37 1 18 13
M  V30 38 1 24 20
M  V30 39 1 3 34
M  V30 40 1 4 35
M  V30 41 1 6 36
M  V30 42 1 8 37
M  V30 43 1 8 38
M  V30 44 1 9 39
M  V30 45 1 14 40
M  V30 46 1 14 41
M  V30 47 1 15 42
M  V30 48 1 15 43
M  V30 49 1 16 44
M  V30 50 1 17 45
M  V30 51 1 17 46
M  V30 52 1 18 47
M  V30 53 1 18 48
M  V30 54 1 23 49
M  V30 55 1 26 50
M  V30 56 1 27 51
M  V30 57 1 28 52
M  V30 58 1 30 53
M  V30 59 1 33 54
M  V30 END BOND
M  V30 END CTAB
M  END
>  <Dataset>  (992) 
ChEMBL_Kinases

>  <Ligand_Instance>  (992) 
nan

>  <PDB_ID>  (992) 
nan

>  <Standardized_SMILES>  (992) 
Clc1ccc2[nH]c(CNc3nc(N4CCNCC4)nc4c3ncn4-c3cccnc3)nc2c1

>  <Name>  (992) 
nan

>  <Pocket>  (992) 
nan

>  <ATP_Site>  (992) 
nan

>  <Peripheral>  (992) 
nan

>  <Num_H_Atoms_ProtBoundConf>  (992) 
nan

>  <Num_Resolved_Atoms>  (992) 
nan

>  <Num_Not_Resolved_Atoms>  (992) 
nan

$$$$
CHEMBL3675416
     RDKit          3D

  0  0  0  0  0  0  0  0  0  0999 V3000
M  V30 BEGIN CTAB
M  V30 COUNTS 61 64 0 0 0
M  V30 BEGIN ATOM
M  V30 1 C 3.842769 -3.484583 4.062795 0
M  V30 2 N 3.490357 -3.309574 2.705091 0
M  V30 3 C 2.145114 -3.531571 2.378019 0
M  V30 4 C 1.116040 -2.564592 2.878696 0
M  V30 5 N 1.339800 -1.231056 2.379181 0
M  V30 6 C 2.306195 -0.215001 2.610137 0
M  V30 7 N 3.298651 -0.362173 3.492240 0
M  V30 8 C 4.231845 0.544884 3.782302 0
M  V30 9 N 4.203799 1.729303 3.148787 0
M  V30 10 C 3.234761 1.934528 2.255527 0
M  V30 11 C 3.207900 3.146116 1.607715 0
M  V30 12 C 4.241656 4.109127 1.953028 0
M  V30 13 N 4.296172 5.382667 1.347038 0
M  V30 14 O 5.157253 3.916022 2.792756 0
M  V30 15 C 2.268640 3.496653 0.662627 0
M  V30 16 C 1.321693 2.519639 0.397424 0
M  V30 17 C 1.337908 1.302747 1.039402 0
M  V30 18 C 2.281348 1.000622 1.962639 0
M  V30 19 C -0.198970 -3.064885 2.381313 0
M  V30 20 C -1.095304 -3.686426 3.205058 0
M  V30 21 C -2.311997 -4.145575 2.716382 0
M  V30 22 C -2.587319 -3.951476 1.360107 0
M  V30 23 C -1.664685 -3.317512 0.535869 0
M  V30 24 N -2.169978 -3.235912 -0.805592 0
M  V30 25 C -2.887779 -2.042165 -0.996662 0
M  V30 26 O -3.036902 -1.193932 -0.086517 0
M  V30 27 C -3.512911 -1.719391 -2.295738 0
M  V30 28 C -4.207188 -0.512118 -2.382572 0
M  V30 29 C -4.836664 -0.111725 -3.570128 0
M  V30 30 C -4.771418 -0.926610 -4.682497 0
M  V30 31 O -5.354715 -0.634256 -5.908810 0
M  V30 32 C -6.079089 0.567363 -6.091139 0
M  V30 33 C -4.080275 -2.117356 -4.577979 0
M  V30 34 F -4.004216 -2.943227 -5.675216 0
M  V30 35 C -3.446718 -2.535372 -3.406742 0
M  V30 36 C -0.462636 -2.869156 1.041201 0
M  V30 37 H 2.937240 -3.533956 4.698050 0
M  V30 38 H 4.533974 -2.696097 4.430545 0
M  V30 39 H 4.427444 -4.443555 4.155523 0
M  V30 40 H 3.976239 -2.656383 2.120702 0
M  V30 41 H 1.886439 -4.587333 2.715854 0
M  V30 42 H 2.022967 -3.608960 1.261251 0
M  V30 43 H 1.092564 -2.536211 4.003197 0
M  V30 44 H 0.610961 -0.975351 1.688586 0
M  V30 45 H 5.024561 0.396288 4.502399 0
M  V30 46 H 4.323894 6.300119 0.921382 0
M  V30 47 H 4.940239 5.704578 0.598972 0
M  V30 48 H 2.281101 4.470059 0.170175 0
M  V30 49 H 0.568197 2.790967 -0.355565 0
M  V30 50 H 0.558420 0.654175 0.741584 0
M  V30 51 H -0.852431 -3.822492 4.253994 0
M  V30 52 H -2.984862 -4.631620 3.415416 0
M  V30 53 H -3.554565 -4.344529 1.085835 0
M  V30 54 H -2.042499 -3.943212 -1.561996 0
M  V30 55 H -4.313800 0.198372 -1.555872 0
M  V30 56 H -5.373534 0.817092 -3.645384 0
M  V30 57 H -5.425935 1.433634 -6.266120 0
M  V30 58 H -6.829734 0.465744 -6.923899 0
M  V30 59 H -6.703245 0.809217 -5.198046 0
M  V30 60 H -2.908625 -3.469545 -3.335654 0
M  V30 61 H 0.164040 -2.395643 0.298762 0
M  V30 END ATOM
M  V30 BEGIN BOND
M  V30 1 1 1 2
M  V30 2 1 2 3
M  V30 3 1 3 4
M  V30 4 1 4 5
M  V30 5 1 5 6
M  V30 6 2 6 7
M  V30 7 1 7 8
M  V30 8 2 8 9
M  V30 9 1 9 10
M  V30 10 2 10 11
M  V30 11 1 11 12
M  V30 12 1 12 13
M  V30 13 2 12 14
M  V30 14 1 11 15
M  V30 15 2 15 16
M  V30 16 1 16 17
M  V30 17 2 17 18
M  V30 18 1 4 19
M  V30 19 2 19 20
M  V30 20 1 20 21
M  V30 21 2 21 22
M  V30 22 1 22 23
M  V30 23 1 23 24
M  V30 24 1 24 25
M  V30 25 2 25 26
M  V30 26 1 25 27
M  V30 27 2 27 28
M  V30 28 1 28 29
M  V30 29 2 29 30
M  V30 30 1 30 31
M  V30 31 1 31 32
M  V30 32 1 30 33
M  V30 33 1 33 34
M  V30 34 2 33 35
M  V30 35 2 23 36
M  V30 36 1 18 6
M  V30 37 1 36 19
M  V30 38 1 18 10
M  V30 39 1 35 27
M  V30 40 1 1 37
M  V30 41 1 1 38
M  V30 42 1 1 39
M  V30 43 1 2 40
M  V30 44 1 3 41
M  V30 45 1 3 42
M  V30 46 1 4 43
M  V30 47 1 5 44
M  V30 48 1 8 45
M  V30 49 1 13 46
M  V30 50 1 13 47
M  V30 51 1 15 48
M  V30 52 1 16 49
M  V30 53 1 17 50
M  V30 54 1 20 51
M  V30 55 1 21 52
M  V30 56 1 22 53
M  V30 57 1 24 54
M  V30 58 1 28 55
M  V30 59 1 29 56
M  V30 60 1 32 57
M  V30 61 1 32 58
M  V30 62 1 32 59
M  V30 63 1 35 60
M  V30 64 1 36 61
M  V30 END BOND
M  V30 END CTAB
M  END
>  <Dataset>  (993) 
ChEMBL_Kinases

>  <Ligand_Instance>  (993) 
nan

>  <PDB_ID>  (993) 
nan

>  <Standardized_SMILES>  (993) 
CNCC(Nc1ncnc2c(C(N)=O)cccc12)c1cccc(NC(=O)c2ccc(OC)c(F)c2)c1

>  <Name>  (993) 
nan

>  <Pocket>  (993) 
nan

>  <ATP_Site>  (993) 
nan

>  <Peripheral>  (993) 
nan

>  <Num_H_Atoms_ProtBoundConf>  (993) 
nan

>  <Num_Resolved_Atoms>  (993) 
nan

>  <Num_Not_Resolved_Atoms>  (993) 
nan

$$$$
CHEMBL4205223
     RDKit          3D

  0  0  0  0  0  0  0  0  0  0999 V3000
M  V30 BEGIN CTAB
M  V30 COUNTS 53 58 0 0 0
M  V30 BEGIN ATOM
M  V30 1 Cl 4.302637 -1.499684 5.933701 0
M  V30 2 C 4.304875 -0.982802 4.263621 0
M  V30 3 C 5.417333 -1.351355 3.540037 0
M  V30 4 C 5.537057 -1.000529 2.203393 0
M  V30 5 C 4.519486 -0.277747 1.622048 0
M  V30 6 N 4.290183 0.222913 0.402227 0
M  V30 7 C 3.090441 0.874817 0.362433 0
M  V30 8 C 2.663367 1.500437 -0.919882 0
M  V30 9 N 1.896118 0.601872 -1.758879 0
M  V30 10 C 0.677709 0.080184 -1.241192 0
M  V30 11 N 0.211186 0.380811 -0.021593 0
M  V30 12 C -0.942343 -0.116941 0.459830 0
M  V30 13 N -1.379639 0.244185 1.764380 0
M  V30 14 C -0.599077 1.146227 2.590239 0
M  V30 15 C -1.544973 1.880813 3.515654 0
M  V30 16 O -2.786160 2.045725 2.958612 0
M  V30 17 C -3.475183 0.904819 2.650278 0
M  V30 18 C -2.621142 -0.285163 2.297211 0
M  V30 19 N -1.690023 -0.954339 -0.279204 0
M  V30 20 C -1.309614 -1.327086 -1.534238 0
M  V30 21 C -0.121191 -0.792508 -1.985792 0
M  V30 22 N 0.091872 -1.264046 -3.225287 0
M  V30 23 C -0.939467 -2.074898 -3.541839 0
M  V30 24 N -1.802917 -2.118123 -2.508950 0
M  V30 25 C -3.044323 -2.796616 -2.282479 0
M  V30 26 C -2.916851 -3.915430 -1.481235 0
M  V30 27 C -4.059341 -4.665869 -1.185384 0
M  V30 28 C -5.253624 -4.209434 -1.736978 0
M  V30 29 N -5.335055 -3.106688 -2.518019 0
M  V30 30 C -4.245060 -2.372013 -2.813260 0
M  V30 31 N 2.522564 0.799774 1.580123 0
M  V30 32 C 3.385536 0.103416 2.341915 0
M  V30 33 C 3.271915 -0.249011 3.673228 0
M  V30 34 H 6.237930 -1.918017 3.956585 0
M  V30 35 H 6.394364 -1.268460 1.593951 0
M  V30 36 H 5.004724 0.079970 -0.364849 0
M  V30 37 H 2.010325 2.379669 -0.650729 0
M  V30 38 H 3.525851 1.938887 -1.462594 0
M  V30 39 H 2.173112 0.307289 -2.720985 0
M  V30 40 H -0.131118 1.881265 1.922042 0
M  V30 41 H 0.103275 0.544851 3.179293 0
M  V30 42 H -1.124964 2.896753 3.672475 0
M  V30 43 H -1.562292 1.395004 4.512862 0
M  V30 44 H -4.084680 1.144546 1.730116 0
M  V30 45 H -4.238821 0.624443 3.429950 0
M  V30 46 H -2.382117 -0.805591 3.258939 0
M  V30 47 H -3.157359 -0.905154 1.578481 0
M  V30 48 H -1.210663 -2.666332 -4.397368 0
M  V30 49 H -1.995172 -4.269459 -1.054308 0
M  V30 50 H -4.104403 -5.557499 -0.575696 0
M  V30 51 H -6.175596 -4.769539 -1.529787 0
M  V30 52 H -4.238914 -1.481365 -3.429927 0
M  V30 53 H 2.426289 0.009048 4.294433 0
M  V30 END ATOM
M  V30 BEGIN BOND
M  V30 1 1 1 2
M  V30 2 2 2 3
M  V30 3 1 3 4
M  V30 4 2 4 5
M  V30 5 1 5 6
M  V30 6 1 6 7
M  V30 7 1 7 8
M  V30 8 1 8 9
M  V30 9 1 9 10
M  V30 10 2 10 11
M  V30 11 1 11 12
M  V30 12 1 12 13
M  V30 13 1 13 14
M  V30 14 1 14 15
M  V30 15 1 15 16
M  V30 16 1 16 17
M  V30 17 1 17 18
M  V30 18 2 12 19
M  V30 19 1 19 20
M  V30 20 2 20 21
M  V30 21 1 21 22
M  V30 22 2 22 23
M  V30 23 1 23 24
M  V30 24 1 24 25
M  V30 25 2 25 26
M  V30 26 1 26 27
M  V30 27 2 27 28
M  V30 28 1 28 29
M  V30 29 2 29 30
M  V30 30 2 7 31
M  V30 31 1 31 32
M  V30 32 2 32 33
M  V30 33 1 33 2
M  V30 34 1 32 5
M  V30 35 1 21 10
M  V30 36 1 30 25
M  V30 37 1 18 13
M  V30 38 1 24 20
M  V30 39 1 3 34
M  V30 40 1 4 35
M  V30 41 1 6 36
M  V30 42 1 8 37
M  V30 43 1 8 38
M  V30 44 1 9 39
M  V30 45 1 14 40
M  V30 46 1 14 41
M  V30 47 1 15 42
M  V30 48 1 15 43
M  V30 49 1 17 44
M  V30 50 1 17 45
M  V30 51 1 18 46
M  V30 52 1 18 47
M  V30 53 1 23 48
M  V30 54 1 26 49
M  V30 55 1 27 50
M  V30 56 1 28 51
M  V30 57 1 30 52
M  V30 58 1 33 53
M  V30 END BOND
M  V30 END CTAB
M  END
>  <Dataset>  (994) 
ChEMBL_Kinases

>  <Ligand_Instance>  (994) 
nan

>  <PDB_ID>  (994) 
nan

>  <Standardized_SMILES>  (994) 
Clc1ccc2[nH]c(CNc3nc(N4CCOCC4)nc4c3ncn4-c3cccnc3)nc2c1

>  <Name>  (994) 
nan

>  <Pocket>  (994) 
nan

>  <ATP_Site>  (994) 
nan

>  <Peripheral>  (994) 
nan

>  <Num_H_Atoms_ProtBoundConf>  (994) 
nan

>  <Num_Resolved_Atoms>  (994) 
nan

>  <Num_Not_Resolved_Atoms>  (994) 
nan

$$$$
CHEMBL4205192
     RDKit          3D

  0  0  0  0  0  0  0  0  0  0999 V3000
M  V30 BEGIN CTAB
M  V30 COUNTS 86 92 0 0 0
M  V30 BEGIN ATOM
M  V30 1 C 1.074549 -8.769104 4.374832 0
M  V30 2 C 0.097740 -9.593002 3.586436 0
M  V30 3 N 0.427594 -9.583609 2.154997 0
M  V30 4 C 0.449927 -8.328380 1.486074 0
M  V30 5 N 0.720836 -8.123332 0.168038 0
M  V30 6 N 0.637601 -6.819429 -0.044719 0
M  V30 7 C 0.321704 -6.195744 1.103393 0
M  V30 8 C 0.148452 -4.753092 1.236858 0
M  V30 9 C 0.298494 -3.891061 0.152570 0
M  V30 10 C 0.124073 -2.535851 0.346803 0
M  V30 11 C -0.192756 -1.958398 1.552408 0
M  V30 12 C -0.369102 -0.522782 1.731833 0
M  V30 13 C -0.238360 0.327154 0.746549 0
M  V30 14 C -0.428188 1.779021 0.982674 0
M  V30 15 N -1.539721 1.906852 1.932712 0
M  V30 16 C -2.895859 2.395052 1.899110 0
M  V30 17 O -3.584513 2.364003 2.983242 0
M  V30 18 C -3.865703 2.978367 0.955538 0
M  V30 19 N -3.320116 3.085411 -0.395668 0
M  V30 20 C -4.274306 3.791158 -1.257071 0
M  V30 21 C -4.017934 3.264749 -2.649763 0
M  V30 22 C -3.248284 1.998625 -2.432663 0 CFG=1
M  V30 23 S -3.952476 0.611786 -3.374820 0
M  V30 24 C -5.585175 0.166207 -2.783362 0
M  V30 25 C -1.816686 2.188092 -2.785278 0
M  V30 26 O -1.388776 3.308855 -3.199880 0
M  V30 27 N -0.847482 1.179729 -2.694957 0
M  V30 28 C 0.533259 1.279258 -3.016381 0
M  V30 29 C 0.713269 0.938031 -4.363515 0
M  V30 30 C 1.988838 0.954227 -4.939928 0
M  V30 31 C 3.091157 1.306803 -4.190227 0
M  V30 32 N 4.425672 1.437777 -4.373356 0
M  V30 33 N 5.010211 1.826095 -3.233965 0
M  V30 34 C 4.068682 1.957846 -2.278765 0
M  V30 35 C 4.347304 2.367568 -0.910731 0
M  V30 36 C 5.446502 1.736025 -0.337715 0
M  V30 37 C 5.846124 2.017676 0.967131 0
M  V30 38 C 5.127049 2.943989 1.692713 0
M  V30 39 F 5.484291 3.252550 2.981445 0
M  V30 40 C 4.046669 3.570018 1.140794 0
M  V30 41 C 3.661483 3.285212 -0.145442 0
M  V30 42 C 2.871646 1.633380 -2.877113 0
M  V30 43 C 1.641010 1.629995 -2.275803 0
M  V30 44 C -3.451633 1.726387 -0.963245 0
M  V30 45 C -1.070860 1.384157 3.198974 0
M  V30 46 C -0.705420 -0.076796 3.102438 0
M  V30 47 C -0.326001 -2.866773 2.579247 0
M  V30 48 C -0.169810 -4.232137 2.473636 0
M  V30 49 O 0.216529 -7.141608 2.005827 0
M  V30 50 H 2.077685 -8.718355 3.894907 0
M  V30 51 H 1.185946 -9.143301 5.422749 0
M  V30 52 H 0.685352 -7.740094 4.457786 0
M  V30 53 H 0.092452 -10.625047 3.983930 0
M  V30 54 H -0.900910 -9.111627 3.647840 0
M  V30 55 H 0.643712 -10.447441 1.613236 0
M  V30 56 H 0.546915 -4.335542 -0.796546 0
M  V30 57 H 0.258912 -1.965552 -0.536996 0
M  V30 58 H 0.008853 0.010456 -0.255761 0
M  V30 59 H 0.488624 2.256738 1.391342 0
M  V30 60 H -0.757764 2.240865 0.044137 0
M  V30 61 H -4.803371 2.389255 0.865303 0
M  V30 62 H -4.139995 4.003730 1.258141 0
M  V30 63 H -5.324012 3.662733 -0.919023 0
M  V30 64 H -4.057924 4.888934 -1.262017 0
M  V30 65 H -3.486063 4.007945 -3.305055 0
M  V30 66 H -5.009853 3.013954 -3.076823 0
M  V30 67 H -5.658628 -0.059184 -1.715129 0
M  V30 68 H -5.884505 -0.765645 -3.329914 0
M  V30 69 H -6.314414 0.932596 -3.101889 0
M  V30 70 H -1.158809 0.231127 -2.351053 0
M  V30 71 H -0.048214 0.636605 -5.092817 0
M  V30 72 H 2.180674 0.700378 -5.972666 0
M  V30 73 H 4.804757 1.227545 -5.335174 0
M  V30 74 H 6.066659 0.993126 -0.843190 0
M  V30 75 H 6.708664 1.525537 1.422457 0
M  V30 76 H 3.429461 4.312092 1.649241 0
M  V30 77 H 2.818406 3.715710 -0.700606 0
M  V30 78 H 1.372831 1.865675 -1.274251 0
M  V30 79 H -4.494473 1.363375 -0.831873 0
M  V30 80 H -2.696859 1.037381 -0.610938 0
M  V30 81 H -1.806616 1.567056 4.016468 0
M  V30 82 H -0.127758 1.939890 3.478448 0
M  V30 83 H 0.130207 -0.303340 3.821801 0
M  V30 84 H -1.612112 -0.627517 3.492042 0
M  V30 85 H -0.577229 -2.507076 3.579528 0
M  V30 86 H -0.284630 -4.901940 3.307836 0
M  V30 END ATOM
M  V30 BEGIN BOND
M  V30 1 1 1 2
M  V30 2 1 2 3
M  V30 3 1 3 4
M  V30 4 2 4 5
M  V30 5 1 5 6
M  V30 6 2 6 7
M  V30 7 1 7 8
M  V30 8 2 8 9
M  V30 9 1 9 10
M  V30 10 2 10 11
M  V30 11 1 11 12
M  V30 12 2 12 13
M  V30 13 1 13 14
M  V30 14 1 14 15
M  V30 15 1 15 16
M  V30 16 2 16 17
M  V30 17 1 16 18
M  V30 18 1 18 19
M  V30 19 1 19 20
M  V30 20 1 20 21
M  V30 21 1 21 22
M  V30 22 1 22 23 CFG=3
M  V30 23 1 23 24
M  V30 24 1 22 25
M  V30 25 2 25 26
M  V30 26 1 25 27
M  V30 27 1 27 28
M  V30 28 2 28 29
M  V30 29 1 29 30
M  V30 30 2 30 31
M  V30 31 1 31 32
M  V30 32 1 32 33
M  V30 33 2 33 34
M  V30 34 1 34 35
M  V30 35 2 35 36
M  V30 36 1 36 37
M  V30 37 2 37 38
M  V30 38 1 38 39
M  V30 39 1 38 40
M  V30 40 2 40 41
M  V30 41 1 34 42
M  V30 42 2 42 43
M  V30 43 1 22 44
M  V30 44 1 15 45
M  V30 45 1 45 46
M  V30 46 1 11 47
M  V30 47 2 47 48
M  V30 48 1 7 49
M  V30 49 1 49 4
M  V30 50 1 48 8
M  V30 51 1 46 12
M  V30 52 1 44 19
M  V30 53 1 43 28
M  V30 54 1 42 31
M  V30 55 1 41 35
M  V30 56 1 1 50
M  V30 57 1 1 51
M  V30 58 1 1 52
M  V30 59 1 2 53
M  V30 60 1 2 54
M  V30 61 1 3 55
M  V30 62 1 9 56
M  V30 63 1 10 57
M  V30 64 1 13 58
M  V30 65 1 14 59
M  V30 66 1 14 60
M  V30 67 1 18 61
M  V30 68 1 18 62
M  V30 69 1 20 63
M  V30 70 1 20 64
M  V30 71 1 21 65
M  V30 72 1 21 66
M  V30 73 1 24 67
M  V30 74 1 24 68
M  V30 75 1 24 69
M  V30 76 1 27 70
M  V30 77 1 29 71
M  V30 78 1 30 72
M  V30 79 1 32 73
M  V30 80 1 36 74
M  V30 81 1 37 75
M  V30 82 1 40 76
M  V30 83 1 41 77
M  V30 84 1 43 78
M  V30 85 1 44 79
M  V30 86 1 44 80
M  V30 87 1 45 81
M  V30 88 1 45 82
M  V30 89 1 46 83
M  V30 90 1 46 84
M  V30 91 1 47 85
M  V30 92 1 48 86
M  V30 END BOND
M  V30 END CTAB
M  END
>  <Dataset>  (995) 
ChEMBL_Kinases

>  <Ligand_Instance>  (995) 
nan

>  <PDB_ID>  (995) 
nan

>  <Standardized_SMILES>  (995) 
CCNc1nnc(-c2ccc(C3=CCN(C(=O)CN4CC[C@@](SC)(C(=O)Nc5ccc6[nH]nc(-c7ccc(F)cc7)c6c5)C4)CC3)cc2)o1

>  <Name>  (995) 
nan

>  <Pocket>  (995) 
nan

>  <ATP_Site>  (995) 
nan

>  <Peripheral>  (995) 
nan

>  <Num_H_Atoms_ProtBoundConf>  (995) 
nan

>  <Num_Resolved_Atoms>  (995) 
nan

>  <Num_Not_Resolved_Atoms>  (995) 
nan

$$$$
CHEMBL4205151
     RDKit          3D

  0  0  0  0  0  0  0  0  0  0999 V3000
M  V30 BEGIN CTAB
M  V30 COUNTS 53 58 0 0 0
M  V30 BEGIN ATOM
M  V30 1 F 4.615525 -0.379889 5.401937 0
M  V30 2 C 4.611257 -0.762016 4.094988 0
M  V30 3 C 3.837698 -0.022644 3.206450 0
M  V30 4 C 3.797802 -0.366231 1.874168 0
M  V30 5 N 3.144361 0.173480 0.837948 0
M  V30 6 C 3.418688 -0.515513 -0.285190 0
M  V30 7 C 2.995884 -0.387444 -1.698265 0
M  V30 8 N 1.815634 -1.116948 -2.038910 0
M  V30 9 C 0.579804 -0.854412 -1.403294 0
M  V30 10 N 0.401991 0.078245 -0.450452 0
M  V30 11 C -0.792190 0.296561 0.127638 0
M  V30 12 N -0.928965 1.294841 1.128883 0
M  V30 13 C 0.124779 2.161732 1.615334 0
M  V30 14 C 0.245515 1.865332 3.112084 0
M  V30 15 O -0.963738 2.179155 3.728153 0
M  V30 16 C -1.989685 1.357821 3.293935 0
M  V30 17 C -2.188392 1.559011 1.794250 0
M  V30 18 N -1.890893 -0.399796 -0.204342 0
M  V30 19 C -1.807365 -1.349864 -1.144904 0
M  V30 20 C -0.579632 -1.568356 -1.733565 0
M  V30 21 N -0.711598 -2.554043 -2.641996 0
M  V30 22 C -1.994593 -2.962477 -2.640021 0
M  V30 23 N -2.659380 -2.219291 -1.719586 0
M  V30 24 C -4.050336 -2.342834 -1.410119 0
M  V30 25 C -4.698814 -3.499710 -1.019346 0
M  V30 26 C -6.063829 -3.448777 -0.754469 0
M  V30 27 C -6.731505 -2.240890 -0.890275 0
M  V30 28 N -6.062189 -1.133302 -1.274197 0
M  V30 29 C -4.741876 -1.137133 -1.540596 0
M  V30 30 N 4.270517 -1.498782 0.123157 0
M  V30 31 C 4.531779 -1.447550 1.437334 0
M  V30 32 C 5.294070 -2.181436 2.295034 0
M  V30 33 C 5.337435 -1.840861 3.632388 0
M  V30 34 F 6.085910 -2.549376 4.515147 0
M  V30 35 H 3.267041 0.828480 3.580924 0
M  V30 36 H 2.789335 0.704918 -1.861648 0
M  V30 37 H 3.862916 -0.636820 -2.342336 0
M  V30 38 H 1.836890 -1.863368 -2.767201 0
M  V30 39 H 1.083827 2.044209 1.114870 0
M  V30 40 H -0.257814 3.215265 1.524469 0
M  V30 41 H 0.412225 0.778580 3.212453 0
M  V30 42 H 1.027185 2.470139 3.577600 0
M  V30 43 H -2.913945 1.662136 3.826579 0
M  V30 44 H -1.804529 0.280027 3.524305 0
M  V30 45 H -2.431553 2.624135 1.635005 0
M  V30 46 H -2.998132 0.900676 1.421556 0
M  V30 47 H -2.449032 -3.747947 -3.256402 0
M  V30 48 H -4.061110 -4.375563 -0.951991 0
M  V30 49 H -6.516994 -4.384888 -0.452803 0
M  V30 50 H -7.794176 -2.225012 -0.678752 0
M  V30 51 H -4.293119 -0.195466 -1.842629 0
M  V30 52 H 4.708847 -2.248264 -0.487472 0
M  V30 53 H 5.864534 -3.031821 1.921777 0
M  V30 END ATOM
M  V30 BEGIN BOND
M  V30 1 1 1 2
M  V30 2 2 2 3
M  V30 3 1 3 4
M  V30 4 1 4 5
M  V30 5 2 5 6
M  V30 6 1 6 7
M  V30 7 1 7 8
M  V30 8 1 8 9
M  V30 9 2 9 10
M  V30 10 1 10 11
M  V30 11 1 11 12
M  V30 12 1 12 13
M  V30 13 1 13 14
M  V30 14 1 14 15
M  V30 15 1 15 16
M  V30 16 1 16 17
M  V30 17 2 11 18
M  V30 18 1 18 19
M  V30 19 2 19 20
M  V30 20 1 20 21
M  V30 21 2 21 22
M  V30 22 1 22 23
M  V30 23 1 23 24
M  V30 24 2 24 25
M  V30 25 1 25 26
M  V30 26 2 26 27
M  V30 27 1 27 28
M  V30 28 2 28 29
M  V30 29 1 6 30
M  V30 30 1 30 31
M  V30 31 1 31 32
M  V30 32 2 32 33
M  V30 33 1 33 34
M  V30 34 1 33 2
M  V30 35 2 31 4
M  V30 36 1 20 9
M  V30 37 1 29 24
M  V30 38 1 17 12
M  V30 39 1 23 19
M  V30 40 1 3 35
M  V30 41 1 7 36
M  V30 42 1 7 37
M  V30 43 1 8 38
M  V30 44 1 13 39
M  V30 45 1 13 40
M  V30 46 1 14 41
M  V30 47 1 14 42
M  V30 48 1 16 43
M  V30 49 1 16 44
M  V30 50 1 17 45
M  V30 51 1 17 46
M  V30 52 1 22 47
M  V30 53 1 25 48
M  V30 54 1 26 49
M  V30 55 1 27 50
M  V30 56 1 29 51
M  V30 57 1 30 52
M  V30 58 1 32 53
M  V30 END BOND
M  V30 END CTAB
M  END
>  <Dataset>  (996) 
ChEMBL_Kinases

>  <Ligand_Instance>  (996) 
nan

>  <PDB_ID>  (996) 
nan

>  <Standardized_SMILES>  (996) 
Fc1cc2nc(CNc3nc(N4CCOCC4)nc4c3ncn4-c3cccnc3)[nH]c2cc1F

>  <Name>  (996) 
nan

>  <Pocket>  (996) 
nan

>  <ATP_Site>  (996) 
nan

>  <Peripheral>  (996) 
nan

>  <Num_H_Atoms_ProtBoundConf>  (996) 
nan

>  <Num_Resolved_Atoms>  (996) 
nan

>  <Num_Not_Resolved_Atoms>  (996) 
nan

$$$$
CHEMBL4204961
     RDKit          3D

  0  0  0  0  0  0  0  0  0  0999 V3000
M  V30 BEGIN CTAB
M  V30 COUNTS 70 75 0 0 0
M  V30 BEGIN ATOM
M  V30 1 C 1.446546 -3.608776 5.198274 0
M  V30 2 C 2.714939 -4.064223 4.518731 0
M  V30 3 N 2.569834 -4.149944 3.069699 0
M  V30 4 C 3.804354 -4.588814 2.446217 0
M  V30 5 C 4.807564 -3.473052 2.289304 0
M  V30 6 N 4.240367 -2.387408 1.581789 0
M  V30 7 C 4.510311 -1.099259 2.103083 0
M  V30 8 C 3.866885 -0.039568 1.335117 0
M  V30 9 C 4.556501 0.465097 0.227396 0
M  V30 10 C 4.041764 1.474568 -0.559135 0
M  V30 11 C 2.813342 2.020344 -0.267350 0
M  V30 12 N 2.140860 3.066020 -0.993239 0
M  V30 13 C 0.855333 3.599675 -0.627573 0
M  V30 14 N 0.796262 4.686775 0.155192 0
M  V30 15 C -0.362463 5.220393 0.526950 0
M  V30 16 C -1.546445 4.633012 0.090865 0
M  V30 17 F -2.764633 5.140108 0.442984 0
M  V30 18 C -1.506565 3.520698 -0.710071 0
M  V30 19 C -2.765695 2.895671 -1.164705 0
M  V30 20 C -3.840919 3.592065 -1.678008 0
M  V30 21 C -4.967682 2.865016 -2.060235 0
M  V30 22 F -6.026172 3.554525 -2.566274 0
M  V30 23 C -5.034355 1.491417 -1.940518 0
M  V30 24 N -6.002847 0.610608 -2.240171 0
M  V30 25 C -5.568766 -0.645555 -1.927504 0
M  V30 26 N -4.311134 -0.482402 -1.432477 0
M  V30 27 C -3.950746 0.812973 -1.425657 0
M  V30 28 C -2.819381 1.502279 -1.037733 0
M  V30 29 C -3.460584 -1.567352 -0.965134 0
M  V30 30 C -3.253818 -2.601898 -2.036713 0
M  V30 31 C -4.183085 -2.402928 -3.214272 0
M  V30 32 C -5.585526 -2.916457 -2.922063 0
M  V30 33 C -6.377559 -1.883494 -2.123862 0
M  V30 34 N -0.295464 3.042900 -1.041398 0
M  V30 35 N 2.112406 1.551795 0.807377 0
M  V30 36 C 2.635266 0.568271 1.557613 0
M  V30 37 C 2.855192 -2.583876 1.320688 0
M  V30 38 C 2.134674 -2.844600 2.613623 0
M  V30 39 H 0.528952 -3.989529 4.705248 0
M  V30 40 H 1.452415 -2.494382 5.253014 0
M  V30 41 H 1.503074 -3.971042 6.243355 0
M  V30 42 H 3.502814 -3.301398 4.777470 0
M  V30 43 H 3.086007 -5.018449 4.937613 0
M  V30 44 H 3.539551 -5.063099 1.475934 0
M  V30 45 H 4.219528 -5.374181 3.143144 0
M  V30 46 H 5.649148 -3.901159 1.665316 0
M  V30 47 H 5.217139 -3.188725 3.289487 0
M  V30 48 H 4.187239 -1.093933 3.170540 0
M  V30 49 H 5.614076 -0.953571 2.104018 0
M  V30 50 H 5.518015 0.111292 -0.085895 0
M  V30 51 H 4.523034 1.897569 -1.413991 0
M  V30 52 H 2.590285 3.491320 -1.852673 0
M  V30 53 H -0.472179 6.090661 1.152848 0
M  V30 54 H -3.750195 4.652597 -1.754414 0
M  V30 55 H -1.983632 0.943563 -0.637287 0
M  V30 56 H -4.002299 -2.028524 -0.091452 0
M  V30 57 H -2.522756 -1.151645 -0.556340 0
M  V30 58 H -3.362813 -3.639962 -1.691440 0
M  V30 59 H -2.219491 -2.459339 -2.415922 0
M  V30 60 H -4.191373 -1.358946 -3.569546 0
M  V30 61 H -3.786920 -3.022652 -4.047066 0
M  V30 62 H -6.082590 -3.075078 -3.921278 0
M  V30 63 H -5.481327 -3.880318 -2.389661 0
M  V30 64 H -7.277259 -1.603118 -2.704072 0
M  V30 65 H -6.656467 -2.346240 -1.155843 0
M  V30 66 H 2.097765 0.177218 2.417953 0
M  V30 67 H 2.453886 -1.697691 0.780873 0
M  V30 68 H 2.674665 -3.474132 0.645257 0
M  V30 69 H 1.034325 -2.843638 2.464008 0
M  V30 70 H 2.400597 -2.042397 3.328494 0
M  V30 END ATOM
M  V30 BEGIN BOND
M  V30 1 1 1 2
M  V30 2 1 2 3
M  V30 3 1 3 4
M  V30 4 1 4 5
M  V30 5 1 5 6
M  V30 6 1 6 7
M  V30 7 1 7 8
M  V30 8 2 8 9
M  V30 9 1 9 10
M  V30 10 2 10 11
M  V30 11 1 11 12
M  V30 12 1 12 13
M  V30 13 2 13 14
M  V30 14 1 14 15
M  V30 15 2 15 16
M  V30 16 1 16 17
M  V30 17 1 16 18
M  V30 18 1 18 19
M  V30 19 2 19 20
M  V30 20 1 20 21
M  V30 21 1 21 22
M  V30 22 2 21 23
M  V30 23 1 23 24
M  V30 24 2 24 25
M  V30 25 1 25 26
M  V30 26 1 26 27
M  V30 27 2 27 28
M  V30 28 1 26 29
M  V30 29 1 29 30
M  V30 30 1 30 31
M  V30 31 1 31 32
M  V30 32 1 32 33
M  V30 33 2 18 34
M  V30 34 1 11 35
M  V30 35 2 35 36
M  V30 36 1 6 37
M  V30 37 1 37 38
M  V30 38 1 38 3
M  V30 39 1 36 8
M  V30 40 1 34 13
M  V30 41 1 28 19
M  V30 42 1 27 23
M  V30 43 1 33 25
M  V30 44 1 1 39
M  V30 45 1 1 40
M  V30 46 1 1 41
M  V30 47 1 2 42
M  V30 48 1 2 43
M  V30 49 1 4 44
M  V30 50 1 4 45
M  V30 51 1 5 46
M  V30 52 1 5 47
M  V30 53 1 7 48
M  V30 54 1 7 49
M  V30 55 1 9 50
M  V30 56 1 10 51
M  V30 57 1 12 52
M  V30 58 1 15 53
M  V30 59 1 20 54
M  V30 60 1 28 55
M  V30 61 1 29 56
M  V30 62 1 29 57
M  V30 63 1 30 58
M  V30 64 1 30 59
M  V30 65 1 31 60
M  V30 66 1 31 61
M  V30 67 1 32 62
M  V30 68 1 32 63
M  V30 69 1 33 64
M  V30 70 1 33 65
M  V30 71 1 36 66
M  V30 72 1 37 67
M  V30 73 1 37 68
M  V30 74 1 38 69
M  V30 75 1 38 70
M  V30 END BOND
M  V30 END CTAB
M  END
>  <Dataset>  (997) 
ChEMBL_Kinases

>  <Ligand_Instance>  (997) 
nan

>  <PDB_ID>  (997) 
nan

>  <Standardized_SMILES>  (997) 
CCN1CCN(Cc2ccc(Nc3ncc(F)c(-c4cc(F)c5nc6n(c5c4)CCCCC6)n3)nc2)CC1

>  <Name>  (997) 
nan

>  <Pocket>  (997) 
nan

>  <ATP_Site>  (997) 
nan

>  <Peripheral>  (997) 
nan

>  <Num_H_Atoms_ProtBoundConf>  (997) 
nan

>  <Num_Resolved_Atoms>  (997) 
nan

>  <Num_Not_Resolved_Atoms>  (997) 
nan

$$$$
CHEMBL3675414
     RDKit          3D

  0  0  0  0  0  0  0  0  0  0999 V3000
M  V30 BEGIN CTAB
M  V30 COUNTS 46 48 0 0 0
M  V30 BEGIN ATOM
M  V30 1 C -0.060614 -3.990581 3.908617 0
M  V30 2 N -0.257592 -3.228369 2.653839 0
M  V30 3 C -1.177322 -4.064922 1.877279 0
M  V30 4 C -0.970889 -2.029239 3.050141 0
M  V30 5 C -1.076038 -0.964659 2.017628 0
M  V30 6 N 0.242322 -0.482872 1.571116 0
M  V30 7 C 0.657782 0.629930 0.798702 0
M  V30 8 N -0.291542 1.492301 0.391736 0
M  V30 9 C -0.009650 2.618905 -0.322329 0
M  V30 10 N 1.294803 2.877247 -0.634352 0
M  V30 11 C 2.233782 2.008043 -0.222455 0
M  V30 12 C 3.561874 2.224896 -0.510261 0
M  V30 13 C 4.043192 3.384593 -1.236438 0
M  V30 14 N 3.206695 4.419470 -1.699949 0
M  V30 15 O 5.205170 3.686448 -1.576558 0
M  V30 16 C 4.605054 1.389658 -0.130816 0
M  V30 17 C 4.282236 0.241380 0.599459 0
M  V30 18 C 2.959804 0.017786 0.891796 0
M  V30 19 C 1.980527 0.863767 0.498308 0
M  V30 20 C -1.934594 -1.258573 0.858686 0
M  V30 21 C -3.297011 -0.997937 0.856626 0
M  V30 22 C -4.185320 -1.211488 -0.173491 0
M  V30 23 C -3.661663 -1.750833 -1.350688 0
M  V30 24 C -2.321755 -2.030276 -1.410681 0
M  V30 25 Br -1.565563 -2.767322 -3.007656 0
M  V30 26 C -1.489050 -1.794187 -0.348900 0
M  V30 27 H -0.826841 -4.756089 4.016998 0
M  V30 28 H 0.930401 -4.507523 3.872130 0
M  V30 29 H -0.018356 -3.241856 4.719778 0
M  V30 30 H -2.169140 -3.582959 1.779760 0
M  V30 31 H -0.722212 -4.254840 0.894878 0
M  V30 32 H -1.318597 -5.067676 2.348161 0
M  V30 33 H -0.481784 -1.607508 3.949039 0
M  V30 34 H -2.002452 -2.362428 3.324156 0
M  V30 35 H -1.539316 -0.072641 2.545905 0
M  V30 36 H 0.956113 -1.127941 1.909946 0
M  V30 37 H -0.758248 3.322961 -0.654903 0
M  V30 38 H 2.555773 5.185666 -1.962668 0
M  V30 39 H 2.450265 4.992334 -1.246946 0
M  V30 40 H 5.640354 1.606147 -0.384368 0
M  V30 41 H 5.077176 -0.444510 0.919341 0
M  V30 42 H 2.795031 -0.882082 1.454328 0
M  V30 43 H -3.713265 -0.573961 1.772045 0
M  V30 44 H -5.235956 -0.976592 -0.088728 0
M  V30 45 H -4.285482 -1.952428 -2.208521 0
M  V30 46 H -0.419805 -2.025712 -0.421791 0
M  V30 END ATOM
M  V30 BEGIN BOND
M  V30 1 1 1 2
M  V30 2 1 2 3
M  V30 3 1 2 4
M  V30 4 1 4 5
M  V30 5 1 5 6
M  V30 6 1 6 7
M  V30 7 2 7 8
M  V30 8 1 8 9
M  V30 9 2 9 10
M  V30 10 1 10 11
M  V30 11 2 11 12
M  V30 12 1 12 13
M  V30 13 1 13 14
M  V30 14 2 13 15
M  V30 15 1 12 16
M  V30 16 2 16 17
M  V30 17 1 17 18
M  V30 18 2 18 19
M  V30 19 1 5 20
M  V30 20 2 20 21
M  V30 21 1 21 22
M  V30 22 2 22 23
M  V30 23 1 23 24
M  V30 24 1 24 25
M  V30 25 2 24 26
M  V30 26 1 19 7
M  V30 27 1 26 20
M  V30 28 1 19 11
M  V30 29 1 1 27
M  V30 30 1 1 28
M  V30 31 1 1 29
M  V30 32 1 3 30
M  V30 33 1 3 31
M  V30 34 1 3 32
M  V30 35 1 4 33
M  V30 36 1 4 34
M  V30 37 1 5 35
M  V30 38 1 6 36
M  V30 39 1 9 37
M  V30 40 1 14 38
M  V30 41 1 14 39
M  V30 42 1 16 40
M  V30 43 1 17 41
M  V30 44 1 18 42
M  V30 45 1 21 43
M  V30 46 1 22 44
M  V30 47 1 23 45
M  V30 48 1 26 46
M  V30 END BOND
M  V30 END CTAB
M  END
>  <Dataset>  (998) 
ChEMBL_Kinases

>  <Ligand_Instance>  (998) 
nan

>  <PDB_ID>  (998) 
nan

>  <Standardized_SMILES>  (998) 
CN(C)CC(Nc1ncnc2c(C(N)=O)cccc12)c1cccc(Br)c1

>  <Name>  (998) 
nan

>  <Pocket>  (998) 
nan

>  <ATP_Site>  (998) 
nan

>  <Peripheral>  (998) 
nan

>  <Num_H_Atoms_ProtBoundConf>  (998) 
nan

>  <Num_Resolved_Atoms>  (998) 
nan

>  <Num_Not_Resolved_Atoms>  (998) 
nan

$$$$
CHEMBL4204707
     RDKit          3D

  0  0  0  0  0  0  0  0  0  0999 V3000
M  V30 BEGIN CTAB
M  V30 COUNTS 91 97 0 0 0
M  V30 BEGIN ATOM
M  V30 1 C 1.358769 -5.556666 -1.928091 0
M  V30 2 S 2.288127 -4.043708 -1.690213 0
M  V30 3 C 1.738541 -2.660380 -2.697070 0 CFG=1
M  V30 4 C 2.541106 -1.430899 -2.417135 0
M  V30 5 O 2.084015 -0.413468 -1.845577 0
M  V30 6 N 3.896230 -1.358109 -2.794198 0
M  V30 7 C 4.843556 -0.328357 -2.627842 0
M  V30 8 C 6.118269 -0.458363 -3.195812 0
M  V30 9 C 7.119579 0.463013 -3.081145 0
M  V30 10 C 6.900272 1.601602 -2.371560 0
M  V30 11 N 7.674073 2.660219 -2.086302 0
M  V30 12 N 6.983500 3.513296 -1.344497 0
M  V30 13 C 5.732372 3.012868 -1.134228 0
M  V30 14 C 4.693985 3.658675 -0.348938 0
M  V30 15 C 5.115885 4.165920 0.885750 0
M  V30 16 C 4.131244 4.779870 1.644598 0
M  V30 17 N 2.832643 4.905394 1.259053 0
M  V30 18 C 2.435211 4.414241 0.067912 0
M  V30 19 O 1.107926 4.618847 -0.169885 0
M  V30 20 C 0.473807 4.206598 -1.349752 0
M  V30 21 C -0.308904 5.365173 -1.973788 0
M  V30 22 C -0.545081 3.101546 -1.013535 0
M  V30 23 C 3.378141 3.797412 -0.716646 0
M  V30 24 C 5.675014 1.818016 -1.775005 0
M  V30 25 C 4.737183 0.839291 -1.946289 0
M  V30 26 C 1.719484 -3.060393 -4.133432 0
M  V30 27 C 0.271309 -3.200869 -4.485762 0
M  V30 28 N -0.447339 -2.267272 -3.607001 0
M  V30 29 C -1.760446 -2.913236 -3.395216 0
M  V30 30 C -2.650606 -2.046320 -2.624937 0
M  V30 31 O -1.937239 -1.012711 -2.479498 0
M  V30 32 N -3.870335 -1.788848 -1.981351 0
M  V30 33 C -3.999607 -0.468157 -1.405520 0
M  V30 34 C -4.037756 -0.677019 0.062063 0
M  V30 35 C -4.691714 -1.735446 0.499615 0
M  V30 36 C -4.730581 -1.940374 1.943248 0
M  V30 37 C -5.385190 -3.007332 2.506678 0
M  V30 38 C -5.477235 -3.271810 3.853918 0
M  V30 39 C -4.860289 -2.394265 4.744395 0
M  V30 40 C -4.836693 -2.479845 6.207540 0
M  V30 41 N -5.825383 -2.446784 7.128465 0
M  V30 42 C -5.250093 -2.561040 8.359374 0
M  V30 43 N -3.907211 -2.664056 8.187016 0
M  V30 44 C -2.889586 -2.802247 9.238083 0
M  V30 45 N -3.688359 -2.612734 6.892446 0
M  V30 46 C -4.181995 -1.295842 4.230955 0
M  V30 47 C -4.126942 -1.085766 2.844932 0
M  V30 48 C -5.387851 -2.724031 -0.356260 0
M  V30 49 C -5.004149 -2.670367 -1.812530 0
M  V30 50 C 0.306937 -2.301213 -2.361901 0
M  V30 51 H 1.193076 -6.009787 -0.907663 0
M  V30 52 H 1.966830 -6.333727 -2.464795 0
M  V30 53 H 0.421648 -5.460916 -2.487225 0
M  V30 54 H 4.246611 -2.235157 -3.286283 0
M  V30 55 H 6.371172 -1.356583 -3.784188 0
M  V30 56 H 8.076617 0.298177 -3.545545 0
M  V30 57 H 8.645749 2.787275 -2.394508 0
M  V30 58 H 6.127728 4.081321 1.212875 0
M  V30 59 H 4.462145 5.173290 2.603457 0
M  V30 60 H 1.169193 3.781457 -2.093691 0
M  V30 61 H -1.166454 4.950423 -2.510723 0
M  V30 62 H -0.651318 6.023630 -1.133241 0
M  V30 63 H 0.361261 5.883102 -2.669465 0
M  V30 64 H -1.066465 3.307471 -0.061016 0
M  V30 65 H -1.253052 2.996130 -1.845272 0
M  V30 66 H -0.017453 2.121745 -0.940221 0
M  V30 67 H 3.075106 3.408806 -1.652657 0
M  V30 68 H 3.784469 1.044081 -1.462312 0
M  V30 69 H 2.245152 -4.014315 -4.321190 0
M  V30 70 H 2.198140 -2.288186 -4.788477 0
M  V30 71 H -0.108322 -4.220170 -4.440656 0
M  V30 72 H 0.100567 -2.788305 -5.527820 0
M  V30 73 H -2.217567 -3.134602 -4.400687 0
M  V30 74 H -1.536629 -3.893775 -2.938386 0
M  V30 75 H -3.234681 0.252599 -1.746076 0
M  V30 76 H -4.986863 -0.028454 -1.701102 0
M  V30 77 H -3.511604 0.083338 0.606660 0
M  V30 78 H -5.892551 -3.740929 1.905484 0
M  V30 79 H -5.980709 -4.093791 4.320425 0
M  V30 80 H -5.736985 -2.573047 9.338584 0
M  V30 81 H -1.945238 -2.436492 8.800291 0
M  V30 82 H -3.144338 -2.062479 10.039949 0
M  V30 83 H -2.854348 -3.828868 9.606445 0
M  V30 84 H -3.682577 -0.580493 4.878991 0
M  V30 85 H -3.580957 -0.209563 2.533972 0
M  V30 86 H -6.480542 -2.531839 -0.234552 0
M  V30 87 H -5.209522 -3.765957 -0.015748 0
M  V30 88 H -5.893144 -2.284865 -2.393624 0
M  V30 89 H -4.813711 -3.680669 -2.236997 0
M  V30 90 H -0.113031 -3.102054 -1.707818 0
M  V30 91 H 0.228925 -1.356887 -1.794101 0
M  V30 END ATOM
M  V30 BEGIN BOND
M  V30 1 1 1 2
M  V30 2 1 3 2 CFG=1
M  V30 3 1 3 4
M  V30 4 2 4 5
M  V30 5 1 4 6
M  V30 6 1 6 7
M  V30 7 2 7 8
M  V30 8 1 8 9
M  V30 9 2 9 10
M  V30 10 1 10 11
M  V30 11 1 11 12
M  V30 12 2 12 13
M  V30 13 1 13 14
M  V30 14 2 14 15
M  V30 15 1 15 16
M  V30 16 2 16 17
M  V30 17 1 17 18
M  V30 18 1 18 19
M  V30 19 1 19 20
M  V30 20 1 20 21
M  V30 21 1 20 22
M  V30 22 2 18 23
M  V30 23 1 13 24
M  V30 24 2 24 25
M  V30 25 1 3 26
M  V30 26 1 26 27
M  V30 27 1 27 28
M  V30 28 1 28 29
M  V30 29 1 29 30
M  V30 30 2 30 31
M  V30 31 1 30 32
M  V30 32 1 32 33
M  V30 33 1 33 34
M  V30 34 2 34 35
M  V30 35 1 35 36
M  V30 36 2 36 37
M  V30 37 1 37 38
M  V30 38 2 38 39
M  V30 39 1 39 40
M  V30 40 1 40 41
M  V30 41 2 41 42
M  V30 42 1 42 43
M  V30 43 1 43 44
M  V30 44 1 43 45
M  V30 45 1 39 46
M  V30 46 2 46 47
M  V30 47 1 35 48
M  V30 48 1 48 49
M  V30 49 1 28 50
M  V30 50 1 50 3
M  V30 51 1 25 7
M  V30 52 1 49 32
M  V30 53 1 24 10
M  V30 54 1 47 36
M  V30 55 1 23 14
M  V30 56 2 45 40
M  V30 57 1 1 51
M  V30 58 1 1 52
M  V30 59 1 1 53
M  V30 60 1 6 54
M  V30 61 1 8 55
M  V30 62 1 9 56
M  V30 63 1 11 57
M  V30 64 1 15 58
M  V30 65 1 16 59
M  V30 66 1 20 60
M  V30 67 1 21 61
M  V30 68 1 21 62
M  V30 69 1 21 63
M  V30 70 1 22 64
M  V30 71 1 22 65
M  V30 72 1 22 66
M  V30 73 1 23 67
M  V30 74 1 25 68
M  V30 75 1 26 69
M  V30 76 1 26 70
M  V30 77 1 27 71
M  V30 78 1 27 72
M  V30 79 1 29 73
M  V30 80 1 29 74
M  V30 81 1 33 75
M  V30 82 1 33 76
M  V30 83 1 34 77
M  V30 84 1 37 78
M  V30 85 1 38 79
M  V30 86 1 42 80
M  V30 87 1 44 81
M  V30 88 1 44 82
M  V30 89 1 44 83
M  V30 90 1 46 84
M  V30 91 1 47 85
M  V30 92 1 48 86
M  V30 93 1 48 87
M  V30 94 1 49 88
M  V30 95 1 49 89
M  V30 96 1 50 90
M  V30 97 1 50 91
M  V30 END BOND
M  V30 END CTAB
M  END
>  <Dataset>  (999) 
ChEMBL_Kinases

>  <Ligand_Instance>  (999) 
nan

>  <PDB_ID>  (999) 
nan

>  <Standardized_SMILES>  (999) 
CS[C@@]1(C(=O)Nc2ccc3[nH]nc(-c4ccnc(OC(C)C)c4)c3c2)CCN(CC(=O)N2CC=C(c3ccc(-c4ncn(C)n4)cc3)CC2)C1

>  <Name>  (999) 
nan

>  <Pocket>  (999) 
nan

>  <ATP_Site>  (999) 
nan

>  <Peripheral>  (999) 
nan

>  <Num_H_Atoms_ProtBoundConf>  (999) 
nan

>  <Num_Resolved_Atoms>  (999) 
nan

>  <Num_Not_Resolved_Atoms>  (999) 
nan

$$$$
